data_image0
_cell_length_a       86.336
_cell_length_b       86.327
_cell_length_c       86.191
_cell_angle_alpha    90
_cell_angle_beta     90
_cell_angle_gamma    90

_symmetry_space_group_name_H-M    "P 1"
_symmetry_int_tables_number       1

loop_
  _symmetry_equiv_pos_as_xyz
  'x, y, z'

loop_
  _atom_site_label
  _atom_site_occupancy
  _atom_site_fract_x
  _atom_site_fract_y
  _atom_site_fract_z
  _atom_site_thermal_displace_type
  _atom_site_B_iso_or_equiv
  _atom_site_type_symbol
  Cr1      1.0000 0.82129  0.93035  0.90407  Biso   1.000  Cr
  Cr2      1.0000 0.81937  0.42973  0.40509  Biso   1.000  Cr
  Cr3      1.0000 0.32115  0.82016  0.34533  Biso   1.000  Cr
  Cr4      1.0000 0.31860  0.32098  0.84541  Biso   1.000  Cr
  Cr5      1.0000 0.92927  0.32151  0.40391  Biso   1.000  Cr
  Cr6      1.0000 0.42998  0.32119  0.90266  Biso   1.000  Cr
  Cr7      1.0000 0.42998  0.82075  0.40460  Biso   1.000  Cr
  Cr8      1.0000 0.42855  0.43117  0.84573  Biso   1.000  Cr
  Cr9      1.0000 0.42971  0.92985  0.34565  Biso   1.000  Cr
  Cr10     1.0000 0.92906  0.43112  0.34620  Biso   1.000  Cr
  Cr11     1.0000 0.93055  0.93037  0.84520  Biso   1.000  Cr
  Cr12     1.0000 0.67870  0.06916  0.59640  Biso   1.000  Cr
  Cr13     1.0000 0.67985  0.56909  0.09696  Biso   1.000  Cr
  Cr14     1.0000 0.56990  0.57013  0.15514  Biso   1.000  Cr
  Cr15     1.0000 0.56964  0.07021  0.65601  Biso   1.000  Cr
  Cr16     1.0000 0.07024  0.56855  0.65382  Biso   1.000  Cr
  Cr17     1.0000 0.07036  0.07030  0.15640  Biso   1.000  Cr
  Cr18     1.0000 0.06903  0.17741  0.09452  Biso   1.000  Cr
  Cr19     1.0000 0.56851  0.17857  0.59565  Biso   1.000  Cr
  Cr20     1.0000 0.17965  0.67855  0.65539  Biso   1.000  Cr
  Cr21     1.0000 0.17848  0.18014  0.15359  Biso   1.000  Cr
  Cr22     1.0000 0.17908  0.06860  0.09749  Biso   1.000  Cr
  Cr23     1.0000 0.17946  0.57032  0.59444  Biso   1.000  Cr
  Cr24     1.0000 0.67807  0.18027  0.65342  Biso   1.000  Cr
  Cr25     1.0000 0.67913  0.67856  0.15460  Biso   1.000  Cr
  Cr26     1.0000 0.06918  0.67975  0.59745  Biso   1.000  Cr
  Cr27     1.0000 0.56986  0.67820  0.09588  Biso   1.000  Cr
  Cr28     1.0000 0.32032  0.92987  0.40424  Biso   1.000  Cr
  Cr29     1.0000 0.32004  0.42918  0.90642  Biso   1.000  Cr
  Cr30     1.0000 0.92993  0.82091  0.90536  Biso   1.000  Cr
  Cr31     1.0000 0.81980  0.32079  0.34471  Biso   1.000  Cr
  Cr32     1.0000 0.82084  0.81974  0.84599  Biso   1.000  Cr
  Cr33     1.0000 0.14329  0.35598  0.50127  Biso   1.000  Cr
  Cr34     1.0000 0.14345  0.85541  0.99889  Biso   1.000  Cr
  Cr35     1.0000 0.60659  0.89064  0.00017  Biso   1.000  Cr
  Cr36     1.0000 0.60634  0.39303  0.49919  Biso   1.000  Cr
  Cr37     1.0000 0.10921  0.85714  0.24933  Biso   1.000  Cr
  Cr38     1.0000 0.10558  0.35593  0.75026  Biso   1.000  Cr
  Cr39     1.0000 0.64359  0.39276  0.74989  Biso   1.000  Cr
  Cr40     1.0000 0.64445  0.89168  0.25114  Biso   1.000  Cr
  Cr41     1.0000 0.50034  0.14300  0.35603  Biso   1.000  Cr
  Cr42     1.0000 0.99971  0.14291  0.85519  Biso   1.000  Cr
  Cr43     1.0000 0.00044  0.60635  0.89340  Biso   1.000  Cr
  Cr44     1.0000 0.50039  0.60731  0.39302  Biso   1.000  Cr
  Cr45     1.0000 0.25060  0.10569  0.85878  Biso   1.000  Cr
  Cr46     1.0000 0.75017  0.10692  0.35758  Biso   1.000  Cr
  Cr47     1.0000 0.75138  0.64540  0.39206  Biso   1.000  Cr
  Cr48     1.0000 0.25075  0.64295  0.89158  Biso   1.000  Cr
  Cr49     1.0000 0.35665  0.49899  0.14405  Biso   1.000  Cr
  Cr50     1.0000 0.35721  0.99993  0.64524  Biso   1.000  Cr
  Cr51     1.0000 0.89264  0.99944  0.60712  Biso   1.000  Cr
  Cr52     1.0000 0.89393  0.49938  0.10645  Biso   1.000  Cr
  Cr53     1.0000 0.85582  0.25008  0.10629  Biso   1.000  Cr
  Cr54     1.0000 0.85700  0.74897  0.60620  Biso   1.000  Cr
  Cr55     1.0000 0.39308  0.74907  0.64171  Biso   1.000  Cr
  Cr56     1.0000 0.39200  0.24886  0.14297  Biso   1.000  Cr
  Cr57     1.0000 0.10736  0.39210  0.99980  Biso   1.000  Cr
  Cr58     1.0000 0.10628  0.89094  0.49926  Biso   1.000  Cr
  Cr59     1.0000 0.64264  0.85696  0.50061  Biso   1.000  Cr
  Cr60     1.0000 0.64220  0.35640  0.00060  Biso   1.000  Cr
  Cr61     1.0000 0.60657  0.35456  0.25119  Biso   1.000  Cr
  Cr62     1.0000 0.60706  0.85845  0.74999  Biso   1.000  Cr
  Cr63     1.0000 0.14347  0.89210  0.74978  Biso   1.000  Cr
  Cr64     1.0000 0.14409  0.39222  0.25082  Biso   1.000  Cr
  Cr65     1.0000 0.89265  0.74840  0.14344  Biso   1.000  Cr
  Cr66     1.0000 0.89175  0.24942  0.64258  Biso   1.000  Cr
  Cr67     1.0000 0.35668  0.25020  0.60601  Biso   1.000  Cr
  Cr68     1.0000 0.35716  0.74913  0.10662  Biso   1.000  Cr
  Cr69     1.0000 0.85650  0.50009  0.64387  Biso   1.000  Cr
  Cr70     1.0000 0.85562  0.99958  0.14347  Biso   1.000  Cr
  Cr71     1.0000 0.39127  0.99937  0.10590  Biso   1.000  Cr
  Cr72     1.0000 0.39288  0.49980  0.60561  Biso   1.000  Cr
  Cr73     1.0000 0.25015  0.60735  0.35747  Biso   1.000  Cr
  Cr74     1.0000 0.75020  0.60579  0.85800  Biso   1.000  Cr
  Cr75     1.0000 0.74921  0.14235  0.89265  Biso   1.000  Cr
  Cr76     1.0000 0.24953  0.14245  0.39264  Biso   1.000  Cr
  Cr77     1.0000 0.00002  0.10503  0.39218  Biso   1.000  Cr
  Cr78     1.0000 0.49919  0.10500  0.89318  Biso   1.000  Cr
  Cr79     1.0000 0.50087  0.64324  0.85588  Biso   1.000  Cr
  Cr80     1.0000 0.00076  0.64274  0.35690  Biso   1.000  Cr
  Cr81     1.0000 0.85530  0.64282  0.50055  Biso   1.000  Cr
  Cr82     1.0000 0.85681  0.14276  0.99986  Biso   1.000  Cr
  Cr83     1.0000 0.39345  0.10685  0.00045  Biso   1.000  Cr
  Cr84     1.0000 0.39269  0.60622  0.50061  Biso   1.000  Cr
  Cr85     1.0000 0.89288  0.14469  0.75076  Biso   1.000  Cr
  Cr86     1.0000 0.89418  0.64227  0.25079  Biso   1.000  Cr
  Cr87     1.0000 0.35828  0.60603  0.24999  Biso   1.000  Cr
  Cr88     1.0000 0.35580  0.10688  0.75025  Biso   1.000  Cr
  Cr89     1.0000 0.49952  0.85799  0.64623  Biso   1.000  Cr
  Cr90     1.0000 0.00024  0.85640  0.14280  Biso   1.000  Cr
  Cr91     1.0000 0.00006  0.39250  0.10836  Biso   1.000  Cr
  Cr92     1.0000 0.49957  0.39191  0.60844  Biso   1.000  Cr
  Cr93     1.0000 0.74972  0.89235  0.14350  Biso   1.000  Cr
  Cr94     1.0000 0.25078  0.89203  0.64360  Biso   1.000  Cr
  Cr95     1.0000 0.24953  0.35754  0.60875  Biso   1.000  Cr
  Cr96     1.0000 0.74960  0.35463  0.10918  Biso   1.000  Cr
  Cr97     1.0000 0.64284  0.50005  0.85620  Biso   1.000  Cr
  Cr98     1.0000 0.64313  0.00020  0.35563  Biso   1.000  Cr
  Cr99     1.0000 0.10763  0.00012  0.39230  Biso   1.000  Cr
  Cr100    1.0000 0.10748  0.50100  0.89566  Biso   1.000  Cr
  Cr101    1.0000 0.14368  0.75067  0.89342  Biso   1.000  Cr
  Cr102    1.0000 0.14486  0.24926  0.39299  Biso   1.000  Cr
  Cr103    1.0000 0.60719  0.25066  0.35844  Biso   1.000  Cr
  Cr104    1.0000 0.60803  0.74945  0.85685  Biso   1.000  Cr
  Cr105    1.0000 0.89259  0.60676  0.00089  Biso   1.000  Cr
  Cr106    1.0000 0.89347  0.10684  0.50019  Biso   1.000  Cr
  Cr107    1.0000 0.35599  0.14262  0.50061  Biso   1.000  Cr
  Cr108    1.0000 0.35752  0.64358  0.00065  Biso   1.000  Cr
  Cr109    1.0000 0.39360  0.64451  0.75074  Biso   1.000  Cr
  Cr110    1.0000 0.39267  0.14366  0.25086  Biso   1.000  Cr
  Cr111    1.0000 0.85778  0.10693  0.25015  Biso   1.000  Cr
  Cr112    1.0000 0.85734  0.60629  0.75083  Biso   1.000  Cr
  Cr113    1.0000 0.10637  0.25110  0.85805  Biso   1.000  Cr
  Cr114    1.0000 0.10672  0.74978  0.35641  Biso   1.000  Cr
  Cr115    1.0000 0.64374  0.75008  0.39381  Biso   1.000  Cr
  Cr116    1.0000 0.64302  0.25026  0.89274  Biso   1.000  Cr
  Cr117    1.0000 0.14411  0.50004  0.35744  Biso   1.000  Cr
  Cr118    1.0000 0.14182  0.00037  0.85393  Biso   1.000  Cr
  Cr119    1.0000 0.60691  0.99955  0.89225  Biso   1.000  Cr
  Cr120    1.0000 0.60711  0.49995  0.39520  Biso   1.000  Cr
  Cr121    1.0000 0.74980  0.39261  0.64189  Biso   1.000  Cr
  Cr122    1.0000 0.25052  0.39313  0.14289  Biso   1.000  Cr
  Cr123    1.0000 0.25107  0.85869  0.10626  Biso   1.000  Cr
  Cr124    1.0000 0.75001  0.85780  0.60830  Biso   1.000  Cr
  Cr125    1.0000 0.00041  0.89543  0.60669  Biso   1.000  Cr
  Cr126    1.0000 0.50109  0.89439  0.10631  Biso   1.000  Cr
  Cr127    1.0000 0.50035  0.35629  0.14223  Biso   1.000  Cr
  Cr128    1.0000 0.99919  0.35786  0.64390  Biso   1.000  Cr
  Cr129    1.0000 0.12434  0.35566  0.62563  Biso   1.000  Cr
  Cr130    1.0000 0.62396  0.85679  0.62537  Biso   1.000  Cr
  Cr131    1.0000 0.62457  0.89474  0.12627  Biso   1.000  Cr
  Cr132    1.0000 0.12601  0.39384  0.12524  Biso   1.000  Cr
  Cr133    1.0000 0.12551  0.85509  0.12404  Biso   1.000  Cr
  Cr134    1.0000 0.62550  0.39355  0.62428  Biso   1.000  Cr
  Cr135    1.0000 0.62608  0.12593  0.35368  Biso   1.000  Cr
  Cr136    1.0000 0.62573  0.62557  0.85411  Biso   1.000  Cr
  Cr137    1.0000 0.12506  0.62593  0.89602  Biso   1.000  Cr
  Cr138    1.0000 0.12491  0.12567  0.39446  Biso   1.000  Cr
  Cr139    1.0000 0.12529  0.12587  0.85355  Biso   1.000  Cr
  Cr140    1.0000 0.62601  0.62469  0.39611  Biso   1.000  Cr
  Cr141    1.0000 0.35563  0.62388  0.12529  Biso   1.000  Cr
  Cr142    1.0000 0.85637  0.62493  0.62587  Biso   1.000  Cr
  Cr143    1.0000 0.89524  0.12431  0.62595  Biso   1.000  Cr
  Cr144    1.0000 0.85370  0.12519  0.12497  Biso   1.000  Cr
  Cr145    1.0000 0.39549  0.62379  0.62621  Biso   1.000  Cr
  Cr146    1.0000 0.39470  0.12382  0.12579  Biso   1.000  Cr
  Cr147    1.0000 0.10473  0.37694  0.87433  Biso   1.000  Cr
  Cr148    1.0000 0.64547  0.87523  0.37568  Biso   1.000  Cr
  Cr149    1.0000 0.60520  0.37575  0.37411  Biso   1.000  Cr
  Cr150    1.0000 0.60649  0.87417  0.87524  Biso   1.000  Cr
  Cr151    1.0000 0.14529  0.87513  0.87437  Biso   1.000  Cr
  Cr152    1.0000 0.14624  0.37538  0.37692  Biso   1.000  Cr
  Cr153    1.0000 0.87443  0.87358  0.14585  Biso   1.000  Cr
  Cr154    1.0000 0.37387  0.37599  0.60619  Biso   1.000  Cr
  Cr155    1.0000 0.87398  0.37514  0.64334  Biso   1.000  Cr
  Cr156    1.0000 0.37619  0.87479  0.10385  Biso   1.000  Cr
  Cr157    1.0000 0.37515  0.60505  0.37483  Biso   1.000  Cr
  Cr158    1.0000 0.87447  0.14451  0.87449  Biso   1.000  Cr
  Cr159    1.0000 0.87516  0.10434  0.37526  Biso   1.000  Cr
  Cr160    1.0000 0.87499  0.60408  0.87579  Biso   1.000  Cr
  Cr161    1.0000 0.37605  0.64428  0.87552  Biso   1.000  Cr
  Cr162    1.0000 0.37484  0.14469  0.37520  Biso   1.000  Cr
  Cr163    1.0000 0.87587  0.64473  0.37544  Biso   1.000  Cr
  Cr164    1.0000 0.37509  0.10429  0.87510  Biso   1.000  Cr
  Cr165    1.0000 0.37485  0.87425  0.64626  Biso   1.000  Cr
  Cr166    1.0000 0.37475  0.37452  0.14435  Biso   1.000  Cr
  Cr167    1.0000 0.87437  0.37516  0.10566  Biso   1.000  Cr
  Cr168    1.0000 0.87601  0.87430  0.60470  Biso   1.000  Cr
  Cr169    1.0000 0.64615  0.37607  0.87579  Biso   1.000  Cr
  Cr170    1.0000 0.10651  0.87461  0.37429  Biso   1.000  Cr
  Cr171    1.0000 0.89567  0.62347  0.12607  Biso   1.000  Cr
  Cr172    1.0000 0.35427  0.12483  0.62592  Biso   1.000  Cr
  Cr173    1.0000 0.12550  0.62577  0.35381  Biso   1.000  Cr
  Cr174    1.0000 0.62347  0.12544  0.89480  Biso   1.000  Cr
  Cr175    1.0000 0.12585  0.89478  0.62414  Biso   1.000  Cr
  Cr176    1.0000 0.62562  0.35463  0.12649  Biso   1.000  Cr
  Cr177    1.0000 0.21629  0.21430  0.29881  Biso   1.000  Cr
  Cr178    1.0000 0.21541  0.71662  0.79873  Biso   1.000  Cr
  Cr179    1.0000 0.71544  0.21508  0.79910  Biso   1.000  Cr
  Cr180    1.0000 0.71518  0.71586  0.29886  Biso   1.000  Cr
  Cr181    1.0000 0.53481  0.03356  0.79968  Biso   1.000  Cr
  Cr182    1.0000 0.53521  0.53439  0.30002  Biso   1.000  Cr
  Cr183    1.0000 0.03645  0.71537  0.45111  Biso   1.000  Cr
  Cr184    1.0000 0.03368  0.21405  0.95033  Biso   1.000  Cr
  Cr185    1.0000 0.53492  0.21376  0.45085  Biso   1.000  Cr
  Cr186    1.0000 0.71502  0.53491  0.95123  Biso   1.000  Cr
  Cr187    1.0000 0.21559  0.53463  0.45143  Biso   1.000  Cr
  Cr188    1.0000 0.29891  0.21318  0.21519  Biso   1.000  Cr
  Cr189    1.0000 0.29870  0.71629  0.71410  Biso   1.000  Cr
  Cr190    1.0000 0.79862  0.21362  0.71506  Biso   1.000  Cr
  Cr191    1.0000 0.79923  0.71349  0.21534  Biso   1.000  Cr
  Cr192    1.0000 0.79854  0.53468  0.03362  Biso   1.000  Cr
  Cr193    1.0000 0.29886  0.53508  0.53414  Biso   1.000  Cr
  Cr194    1.0000 0.45039  0.03561  0.71585  Biso   1.000  Cr
  Cr195    1.0000 0.45153  0.53424  0.21619  Biso   1.000  Cr
  Cr196    1.0000 0.95007  0.71395  0.53304  Biso   1.000  Cr
  Cr197    1.0000 0.95000  0.21488  0.03459  Biso   1.000  Cr
  Cr198    1.0000 0.44993  0.21424  0.53357  Biso   1.000  Cr
  Cr199    1.0000 0.21606  0.29922  0.21581  Biso   1.000  Cr
  Cr200    1.0000 0.21522  0.79799  0.71278  Biso   1.000  Cr
  Cr201    1.0000 0.71530  0.29903  0.71522  Biso   1.000  Cr
  Cr202    1.0000 0.71595  0.79792  0.21445  Biso   1.000  Cr
  Cr203    1.0000 0.03226  0.79945  0.53578  Biso   1.000  Cr
  Cr204    1.0000 0.03417  0.29874  0.03529  Biso   1.000  Cr
  Cr205    1.0000 0.53405  0.29873  0.53471  Biso   1.000  Cr
  Cr206    1.0000 0.71505  0.44988  0.03513  Biso   1.000  Cr
  Cr207    1.0000 0.21489  0.45088  0.53598  Biso   1.000  Cr
  Cr208    1.0000 0.53312  0.95042  0.71415  Biso   1.000  Cr
  Cr209    1.0000 0.53459  0.44874  0.21617  Biso   1.000  Cr
  Cr210    1.0000 0.96536  0.46595  0.20168  Biso   1.000  Cr
  Cr211    1.0000 0.96396  0.96674  0.70113  Biso   1.000  Cr
  Cr212    1.0000 0.78662  0.78564  0.70147  Biso   1.000  Cr
  Cr213    1.0000 0.78555  0.28216  0.20181  Biso   1.000  Cr
  Cr214    1.0000 0.28523  0.78561  0.20018  Biso   1.000  Cr
  Cr215    1.0000 0.28430  0.28206  0.70032  Biso   1.000  Cr
  Cr216    1.0000 0.46611  0.28448  0.04844  Biso   1.000  Cr
  Cr217    1.0000 0.46719  0.78676  0.54964  Biso   1.000  Cr
  Cr218    1.0000 0.96612  0.78455  0.04929  Biso   1.000  Cr
  Cr219    1.0000 0.28635  0.96534  0.54919  Biso   1.000  Cr
  Cr220    1.0000 0.78577  0.96514  0.04925  Biso   1.000  Cr
  Cr221    1.0000 0.96614  0.54901  0.28588  Biso   1.000  Cr
  Cr222    1.0000 0.96581  0.05029  0.78439  Biso   1.000  Cr
  Cr223    1.0000 0.28477  0.04929  0.46514  Biso   1.000  Cr
  Cr224    1.0000 0.78472  0.04969  0.96561  Biso   1.000  Cr
  Cr225    1.0000 0.78550  0.69994  0.78580  Biso   1.000  Cr
  Cr226    1.0000 0.78452  0.20067  0.28653  Biso   1.000  Cr
  Cr227    1.0000 0.28687  0.70058  0.28542  Biso   1.000  Cr
  Cr228    1.0000 0.28343  0.20039  0.78678  Biso   1.000  Cr
  Cr229    1.0000 0.46429  0.20062  0.96466  Biso   1.000  Cr
  Cr230    1.0000 0.46472  0.70049  0.46755  Biso   1.000  Cr
  Cr231    1.0000 0.96406  0.70082  0.96552  Biso   1.000  Cr
  Cr232    1.0000 0.05008  0.46368  0.28408  Biso   1.000  Cr
  Cr233    1.0000 0.04967  0.96550  0.78512  Biso   1.000  Cr
  Cr234    1.0000 0.54939  0.28416  0.96452  Biso   1.000  Cr
  Cr235    1.0000 0.54955  0.78438  0.46504  Biso   1.000  Cr
  Cr236    1.0000 0.04923  0.78297  0.96463  Biso   1.000  Cr
  Cr237    1.0000 0.20084  0.96399  0.46657  Biso   1.000  Cr
  Cr238    1.0000 0.70044  0.96452  0.96606  Biso   1.000  Cr
  Cr239    1.0000 0.70198  0.78485  0.78287  Biso   1.000  Cr
  Cr240    1.0000 0.70096  0.28451  0.28571  Biso   1.000  Cr
  Cr241    1.0000 0.20173  0.78335  0.28455  Biso   1.000  Cr
  Cr242    1.0000 0.20004  0.28368  0.78531  Biso   1.000  Cr
  Cr243    1.0000 0.46504  0.96671  0.20080  Biso   1.000  Cr
  Cr244    1.0000 0.46607  0.46495  0.70062  Biso   1.000  Cr
  Cr245    1.0000 0.96774  0.28496  0.54927  Biso   1.000  Cr
  Cr246    1.0000 0.28471  0.46585  0.04871  Biso   1.000  Cr
  Cr247    1.0000 0.78533  0.46617  0.54895  Biso   1.000  Cr
  Cr248    1.0000 0.20135  0.46457  0.96605  Biso   1.000  Cr
  Cr249    1.0000 0.69987  0.46542  0.46632  Biso   1.000  Cr
  Cr250    1.0000 0.55026  0.96424  0.28410  Biso   1.000  Cr
  Cr251    1.0000 0.54936  0.46329  0.78468  Biso   1.000  Cr
  Cr252    1.0000 0.04984  0.28406  0.46391  Biso   1.000  Cr
  Cr253    1.0000 0.96504  0.20035  0.46493  Biso   1.000  Cr
  Cr254    1.0000 0.28530  0.55022  0.96527  Biso   1.000  Cr
  Cr255    1.0000 0.78417  0.54960  0.46324  Biso   1.000  Cr
  Cr256    1.0000 0.46557  0.04900  0.28466  Biso   1.000  Cr
  Cr257    1.0000 0.46663  0.55015  0.78425  Biso   1.000  Cr
  Cr258    1.0000 0.03622  0.53465  0.80047  Biso   1.000  Cr
  Cr259    1.0000 0.03477  0.03264  0.29842  Biso   1.000  Cr
  Cr260    1.0000 0.53669  0.71518  0.95107  Biso   1.000  Cr
  Cr261    1.0000 0.71480  0.03563  0.45091  Biso   1.000  Cr
  Cr262    1.0000 0.21385  0.03549  0.95083  Biso   1.000  Cr
  Cr263    1.0000 0.03498  0.44964  0.71786  Biso   1.000  Cr
  Cr264    1.0000 0.03505  0.95071  0.21400  Biso   1.000  Cr
  Cr265    1.0000 0.71601  0.95074  0.53405  Biso   1.000  Cr
  Cr266    1.0000 0.21491  0.95026  0.03280  Biso   1.000  Cr
  Cr267    1.0000 0.53394  0.79861  0.03691  Biso   1.000  Cr
  Cr268    1.0000 0.95032  0.53418  0.71606  Biso   1.000  Cr
  Cr269    1.0000 0.95099  0.03541  0.21444  Biso   1.000  Cr
  Cr270    1.0000 0.45098  0.71489  0.03405  Biso   1.000  Cr
  Cr271    1.0000 0.79934  0.03629  0.53370  Biso   1.000  Cr
  Cr272    1.0000 0.29932  0.03569  0.03317  Biso   1.000  Cr
  Cr273    1.0000 0.09550  0.92340  0.50984  Biso   1.000  Cr
  Cr274    1.0000 0.31830  0.29075  0.70746  Biso   1.000  Cr
  Cr275    1.0000 0.09571  0.42414  0.01080  Biso   1.000  Cr
  Cr276    1.0000 0.31969  0.79289  0.20698  Biso   1.000  Cr
  Cr277    1.0000 0.59595  0.92327  0.01011  Biso   1.000  Cr
  Cr278    1.0000 0.81958  0.29125  0.20779  Biso   1.000  Cr
  Cr279    1.0000 0.59371  0.42422  0.51117  Biso   1.000  Cr
  Cr280    1.0000 0.82051  0.79395  0.70864  Biso   1.000  Cr
  Cr281    1.0000 0.65455  0.32463  0.01138  Biso   1.000  Cr
  Cr282    1.0000 0.43162  0.95564  0.20770  Biso   1.000  Cr
  Cr283    1.0000 0.65478  0.82544  0.51212  Biso   1.000  Cr
  Cr284    1.0000 0.43150  0.45827  0.70698  Biso   1.000  Cr
  Cr285    1.0000 0.15490  0.32372  0.51146  Biso   1.000  Cr
  Cr286    1.0000 0.93054  0.95650  0.70799  Biso   1.000  Cr
  Cr287    1.0000 0.15580  0.82382  0.01012  Biso   1.000  Cr
  Cr288    1.0000 0.93092  0.45799  0.20724  Biso   1.000  Cr
  Cr289    1.0000 0.15512  0.42441  0.23914  Biso   1.000  Cr
  Cr290    1.0000 0.93186  0.79366  0.04369  Biso   1.000  Cr
  Cr291    1.0000 0.15506  0.92446  0.74007  Biso   1.000  Cr
  Cr292    1.0000 0.93345  0.29284  0.54268  Biso   1.000  Cr
  Cr293    1.0000 0.65492  0.42488  0.73828  Biso   1.000  Cr
  Cr294    1.0000 0.43323  0.79578  0.54331  Biso   1.000  Cr
  Cr295    1.0000 0.65568  0.92362  0.23986  Biso   1.000  Cr
  Cr296    1.0000 0.43181  0.29255  0.04220  Biso   1.000  Cr
  Cr297    1.0000 0.59662  0.82547  0.74029  Biso   1.000  Cr
  Cr298    1.0000 0.81929  0.45800  0.54162  Biso   1.000  Cr
  Cr299    1.0000 0.59419  0.32290  0.23964  Biso   1.000  Cr
  Cr300    1.0000 0.81981  0.95655  0.04245  Biso   1.000  Cr
  Cr301    1.0000 0.09590  0.82515  0.23939  Biso   1.000  Cr
  Cr302    1.0000 0.31887  0.45733  0.04261  Biso   1.000  Cr
  Cr303    1.0000 0.09404  0.32372  0.73929  Biso   1.000  Cr
  Cr304    1.0000 0.32019  0.95639  0.54199  Biso   1.000  Cr
  Cr305    1.0000 0.51005  0.09386  0.92545  Biso   1.000  Cr
  Cr306    1.0000 0.70706  0.31895  0.29374  Biso   1.000  Cr
  Cr307    1.0000 0.51140  0.59584  0.42525  Biso   1.000  Cr
  Cr308    1.0000 0.70867  0.81833  0.79378  Biso   1.000  Cr
  Cr309    1.0000 0.01091  0.09417  0.42440  Biso   1.000  Cr
  Cr310    1.0000 0.20623  0.31812  0.79302  Biso   1.000  Cr
  Cr311    1.0000 0.01051  0.59577  0.92619  Biso   1.000  Cr
  Cr312    1.0000 0.20819  0.81745  0.29370  Biso   1.000  Cr
  Cr313    1.0000 0.01051  0.65487  0.32480  Biso   1.000  Cr
  Cr314    1.0000 0.20837  0.43109  0.95575  Biso   1.000  Cr
  Cr315    1.0000 0.01062  0.15627  0.82369  Biso   1.000  Cr
  Cr316    1.0000 0.20874  0.93012  0.45780  Biso   1.000  Cr
  Cr317    1.0000 0.51071  0.65570  0.82416  Biso   1.000  Cr
  Cr318    1.0000 0.70736  0.43144  0.45759  Biso   1.000  Cr
  Cr319    1.0000 0.51088  0.15539  0.32404  Biso   1.000  Cr
  Cr320    1.0000 0.70880  0.93083  0.95693  Biso   1.000  Cr
  Cr321    1.0000 0.23899  0.15419  0.42472  Biso   1.000  Cr
  Cr322    1.0000 0.04217  0.93170  0.79345  Biso   1.000  Cr
  Cr323    1.0000 0.23922  0.65401  0.92379  Biso   1.000  Cr
  Cr324    1.0000 0.04229  0.43035  0.29435  Biso   1.000  Cr
  Cr325    1.0000 0.73838  0.15407  0.92482  Biso   1.000  Cr
  Cr326    1.0000 0.54225  0.93047  0.29335  Biso   1.000  Cr
  Cr327    1.0000 0.73994  0.65567  0.42405  Biso   1.000  Cr
  Cr328    1.0000 0.54207  0.42969  0.79409  Biso   1.000  Cr
  Cr329    1.0000 0.73988  0.59526  0.82545  Biso   1.000  Cr
  Cr330    1.0000 0.54320  0.81827  0.45601  Biso   1.000  Cr
  Cr331    1.0000 0.73937  0.09564  0.32535  Biso   1.000  Cr
  Cr332    1.0000 0.54334  0.31815  0.95529  Biso   1.000  Cr
  Cr333    1.0000 0.24014  0.59554  0.32511  Biso   1.000  Cr
  Cr334    1.0000 0.04347  0.81707  0.95604  Biso   1.000  Cr
  Cr335    1.0000 0.23980  0.09543  0.82649  Biso   1.000  Cr
  Cr336    1.0000 0.04374  0.31809  0.45511  Biso   1.000  Cr
  Cr337    1.0000 0.92604  0.50946  0.09466  Biso   1.000  Cr
  Cr338    1.0000 0.29623  0.70832  0.31895  Biso   1.000  Cr
  Cr339    1.0000 0.92489  0.01022  0.59527  Biso   1.000  Cr
  Cr340    1.0000 0.29194  0.20788  0.82055  Biso   1.000  Cr
  Cr341    1.0000 0.42533  0.50996  0.59456  Biso   1.000  Cr
  Cr342    1.0000 0.79506  0.70834  0.81933  Biso   1.000  Cr
  Cr343    1.0000 0.42413  0.00965  0.09604  Biso   1.000  Cr
  Cr344    1.0000 0.79266  0.20741  0.32065  Biso   1.000  Cr
  Cr345    1.0000 0.32443  0.01036  0.65518  Biso   1.000  Cr
  Cr346    1.0000 0.95705  0.20733  0.43101  Biso   1.000  Cr
  Cr347    1.0000 0.32459  0.50998  0.15516  Biso   1.000  Cr
  Cr348    1.0000 0.95617  0.70756  0.93148  Biso   1.000  Cr
  Cr349    1.0000 0.82391  0.01016  0.15578  Biso   1.000  Cr
  Cr350    1.0000 0.45724  0.20666  0.93033  Biso   1.000  Cr
  Cr351    1.0000 0.82400  0.51040  0.65488  Biso   1.000  Cr
  Cr352    1.0000 0.45722  0.70708  0.43319  Biso   1.000  Cr
  Cr353    1.0000 0.42452  0.23834  0.15381  Biso   1.000  Cr
  Cr354    1.0000 0.79324  0.04204  0.93188  Biso   1.000  Cr
  Cr355    1.0000 0.42501  0.73878  0.65426  Biso   1.000  Cr
  Cr356    1.0000 0.79318  0.54119  0.42979  Biso   1.000  Cr
  Cr357    1.0000 0.92412  0.23921  0.65414  Biso   1.000  Cr
  Cr358    1.0000 0.29304  0.04171  0.43133  Biso   1.000  Cr
  Cr359    1.0000 0.92513  0.73805  0.15449  Biso   1.000  Cr
  Cr360    1.0000 0.29334  0.54190  0.93155  Biso   1.000  Cr
  Cr361    1.0000 0.82409  0.73932  0.59603  Biso   1.000  Cr
  Cr362    1.0000 0.45734  0.54211  0.81760  Biso   1.000  Cr
  Cr363    1.0000 0.82450  0.23875  0.09369  Biso   1.000  Cr
  Cr364    1.0000 0.45798  0.04264  0.31893  Biso   1.000  Cr
  Cr365    1.0000 0.32528  0.73796  0.09481  Biso   1.000  Cr
  Cr366    1.0000 0.95724  0.54143  0.31962  Biso   1.000  Cr
  Cr367    1.0000 0.32469  0.23966  0.59390  Biso   1.000  Cr
  Cr368    1.0000 0.95695  0.04359  0.81816  Biso   1.000  Cr
  Cr369    1.0000 0.67433  0.34491  0.98919  Biso   1.000  Cr
  Cr370    1.0000 0.04397  0.56857  0.79221  Biso   1.000  Cr
  Cr371    1.0000 0.67445  0.84517  0.48958  Biso   1.000  Cr
  Cr372    1.0000 0.04207  0.06723  0.29338  Biso   1.000  Cr
  Cr373    1.0000 0.17555  0.34454  0.49076  Biso   1.000  Cr
  Cr374    1.0000 0.54419  0.56822  0.29336  Biso   1.000  Cr
  Cr375    1.0000 0.17610  0.84450  0.98901  Biso   1.000  Cr
  Cr376    1.0000 0.54391  0.06753  0.79306  Biso   1.000  Cr
  Cr377    1.0000 0.07469  0.90353  0.48786  Biso   1.000  Cr
  Cr378    1.0000 0.70682  0.68169  0.29230  Biso   1.000  Cr
  Cr379    1.0000 0.07493  0.40337  0.98996  Biso   1.000  Cr
  Cr380    1.0000 0.70705  0.18097  0.79290  Biso   1.000  Cr
  Cr381    1.0000 0.57523  0.90331  0.98842  Biso   1.000  Cr
  Cr382    1.0000 0.20828  0.68195  0.79361  Biso   1.000  Cr
  Cr383    1.0000 0.57364  0.40361  0.48927  Biso   1.000  Cr
  Cr384    1.0000 0.20593  0.18094  0.29206  Biso   1.000  Cr
  Cr385    1.0000 0.17577  0.40511  0.26152  Biso   1.000  Cr
  Cr386    1.0000 0.54247  0.17957  0.45728  Biso   1.000  Cr
  Cr387    1.0000 0.17585  0.90345  0.76044  Biso   1.000  Cr
  Cr388    1.0000 0.54506  0.68126  0.95806  Biso   1.000  Cr
  Cr389    1.0000 0.67544  0.40523  0.76052  Biso   1.000  Cr
  Cr390    1.0000 0.04327  0.18016  0.95659  Biso   1.000  Cr
  Cr391    1.0000 0.67641  0.90383  0.26156  Biso   1.000  Cr
  Cr392    1.0000 0.04529  0.68155  0.45802  Biso   1.000  Cr
  Cr393    1.0000 0.57551  0.84556  0.76110  Biso   1.000  Cr
  Cr394    1.0000 0.20419  0.06918  0.95809  Biso   1.000  Cr
  Cr395    1.0000 0.57405  0.34362  0.26108  Biso   1.000  Cr
  Cr396    1.0000 0.20597  0.56866  0.45719  Biso   1.000  Cr
  Cr397    1.0000 0.07667  0.84709  0.26017  Biso   1.000  Cr
  Cr398    1.0000 0.70515  0.06945  0.45755  Biso   1.000  Cr
  Cr399    1.0000 0.07370  0.34364  0.76107  Biso   1.000  Cr
  Cr400    1.0000 0.70523  0.56864  0.95792  Biso   1.000  Cr
  Cr401    1.0000 0.84412  0.76050  0.57484  Biso   1.000  Cr
  Cr402    1.0000 0.06847  0.95796  0.20377  Biso   1.000  Cr
  Cr403    1.0000 0.84497  0.26136  0.07417  Biso   1.000  Cr
  Cr404    1.0000 0.06863  0.45680  0.70864  Biso   1.000  Cr
  Cr405    1.0000 0.34485  0.76062  0.07501  Biso   1.000  Cr
  Cr406    1.0000 0.56717  0.95752  0.70612  Biso   1.000  Cr
  Cr407    1.0000 0.34477  0.26209  0.57427  Biso   1.000  Cr
  Cr408    1.0000 0.56835  0.45672  0.20789  Biso   1.000  Cr
  Cr409    1.0000 0.40465  0.25954  0.17483  Biso   1.000  Cr
  Cr410    1.0000 0.18064  0.45748  0.54376  Biso   1.000  Cr
  Cr411    1.0000 0.40420  0.76054  0.67381  Biso   1.000  Cr
  Cr412    1.0000 0.18150  0.95717  0.04323  Biso   1.000  Cr
  Cr413    1.0000 0.90370  0.26039  0.67460  Biso   1.000  Cr
  Cr414    1.0000 0.68119  0.45721  0.04405  Biso   1.000  Cr
  Cr415    1.0000 0.90518  0.75952  0.17523  Biso   1.000  Cr
  Cr416    1.0000 0.68196  0.95765  0.54295  Biso   1.000  Cr
  Cr417    1.0000 0.90524  0.48884  0.07401  Biso   1.000  Cr
  Cr418    1.0000 0.68126  0.29264  0.70632  Biso   1.000  Cr
  Cr419    1.0000 0.90410  0.98975  0.57446  Biso   1.000  Cr
  Cr420    1.0000 0.68182  0.79163  0.20572  Biso   1.000  Cr
  Cr421    1.0000 0.40489  0.48926  0.57367  Biso   1.000  Cr
  Cr422    1.0000 0.18196  0.29265  0.20688  Biso   1.000  Cr
  Cr423    1.0000 0.40442  0.98948  0.07393  Biso   1.000  Cr
  Cr424    1.0000 0.18074  0.79177  0.70536  Biso   1.000  Cr
  Cr425    1.0000 0.34418  0.98940  0.67675  Biso   1.000  Cr
  Cr426    1.0000 0.56794  0.79140  0.04500  Biso   1.000  Cr
  Cr427    1.0000 0.34509  0.48924  0.17635  Biso   1.000  Cr
  Cr428    1.0000 0.56769  0.29136  0.54370  Biso   1.000  Cr
  Cr429    1.0000 0.84522  0.98926  0.17607  Biso   1.000  Cr
  Cr430    1.0000 0.06610  0.79226  0.54485  Biso   1.000  Cr
  Cr431    1.0000 0.84458  0.48942  0.67560  Biso   1.000  Cr
  Cr432    1.0000 0.06792  0.29107  0.04371  Biso   1.000  Cr
  Cr433    1.0000 0.26063  0.17435  0.40439  Biso   1.000  Cr
  Cr434    1.0000 0.45780  0.54208  0.18192  Biso   1.000  Cr
  Cr435    1.0000 0.26199  0.67425  0.90479  Biso   1.000  Cr
  Cr436    1.0000 0.45616  0.04422  0.68165  Biso   1.000  Cr
  Cr437    1.0000 0.76033  0.17407  0.90467  Biso   1.000  Cr
  Cr438    1.0000 0.95800  0.54224  0.68194  Biso   1.000  Cr
  Cr439    1.0000 0.76191  0.67701  0.40480  Biso   1.000  Cr
  Cr440    1.0000 0.95796  0.04424  0.18059  Biso   1.000  Cr
  Cr441    1.0000 0.76078  0.57405  0.84566  Biso   1.000  Cr
  Cr442    1.0000 0.95673  0.20591  0.06858  Biso   1.000  Cr
  Cr443    1.0000 0.76106  0.07504  0.34553  Biso   1.000  Cr
  Cr444    1.0000 0.95636  0.70550  0.56719  Biso   1.000  Cr
  Cr445    1.0000 0.26113  0.57531  0.34621  Biso   1.000  Cr
  Cr446    1.0000 0.45651  0.20573  0.56761  Biso   1.000  Cr
  Cr447    1.0000 0.26061  0.07363  0.84587  Biso   1.000  Cr
  Cr448    1.0000 0.45714  0.70601  0.06817  Biso   1.000  Cr
  Cr449    1.0000 0.98951  0.67491  0.34596  Biso   1.000  Cr
  Cr450    1.0000 0.79215  0.04433  0.56789  Biso   1.000  Cr
  Cr451    1.0000 0.98835  0.17504  0.84464  Biso   1.000  Cr
  Cr452    1.0000 0.79345  0.54124  0.06852  Biso   1.000  Cr
  Cr453    1.0000 0.48988  0.67557  0.84561  Biso   1.000  Cr
  Cr454    1.0000 0.29177  0.04352  0.06725  Biso   1.000  Cr
  Cr455    1.0000 0.48852  0.17461  0.34467  Biso   1.000  Cr
  Cr456    1.0000 0.29275  0.54339  0.56855  Biso   1.000  Cr
  Cr457    1.0000 0.48918  0.07277  0.90503  Biso   1.000  Cr
  Cr458    1.0000 0.29199  0.70570  0.68050  Biso   1.000  Cr
  Cr459    1.0000 0.48915  0.57556  0.40529  Biso   1.000  Cr
  Cr460    1.0000 0.29225  0.20596  0.18091  Biso   1.000  Cr
  Cr461    1.0000 0.98898  0.07337  0.40496  Biso   1.000  Cr
  Cr462    1.0000 0.79314  0.70484  0.18125  Biso   1.000  Cr
  Cr463    1.0000 0.98942  0.57466  0.90565  Biso   1.000  Cr
  Cr464    1.0000 0.79187  0.20612  0.68091  Biso   1.000  Cr
  Cr465    1.0000 0.90580  0.07488  0.49002  Biso   1.000  Cr
  Cr466    1.0000 0.68121  0.70643  0.29360  Biso   1.000  Cr
  Cr467    1.0000 0.90398  0.57456  0.99021  Biso   1.000  Cr
  Cr468    1.0000 0.68166  0.20590  0.79175  Biso   1.000  Cr
  Cr469    1.0000 0.40524  0.07472  0.99042  Biso   1.000  Cr
  Cr470    1.0000 0.18181  0.70605  0.79246  Biso   1.000  Cr
  Cr471    1.0000 0.40542  0.57477  0.48958  Biso   1.000  Cr
  Cr472    1.0000 0.18178  0.20691  0.29336  Biso   1.000  Cr
  Cr473    1.0000 0.34513  0.67481  0.98851  Biso   1.000  Cr
  Cr474    1.0000 0.56889  0.04188  0.79257  Biso   1.000  Cr
  Cr475    1.0000 0.34449  0.17458  0.48929  Biso   1.000  Cr
  Cr476    1.0000 0.56916  0.54262  0.29291  Biso   1.000  Cr
  Cr477    1.0000 0.84404  0.67500  0.48999  Biso   1.000  Cr
  Cr478    1.0000 0.06843  0.04320  0.29186  Biso   1.000  Cr
  Cr479    1.0000 0.84518  0.17461  0.98780  Biso   1.000  Cr
  Cr480    1.0000 0.06996  0.54385  0.79302  Biso   1.000  Cr
  Cr481    1.0000 0.84504  0.57425  0.76095  Biso   1.000  Cr
  Cr482    1.0000 0.06782  0.20614  0.95679  Biso   1.000  Cr
  Cr483    1.0000 0.84536  0.07521  0.26110  Biso   1.000  Cr
  Cr484    1.0000 0.07063  0.70676  0.45823  Biso   1.000  Cr
  Cr485    1.0000 0.34568  0.57414  0.26058  Biso   1.000  Cr
  Cr486    1.0000 0.56859  0.20404  0.45802  Biso   1.000  Cr
  Cr487    1.0000 0.34415  0.07468  0.76061  Biso   1.000  Cr
  Cr488    1.0000 0.57073  0.70609  0.95828  Biso   1.000  Cr
  Cr489    1.0000 0.40478  0.17596  0.26053  Biso   1.000  Cr
  Cr490    1.0000 0.18132  0.54291  0.45735  Biso   1.000  Cr
  Cr491    1.0000 0.40492  0.67683  0.76080  Biso   1.000  Cr
  Cr492    1.0000 0.17947  0.04328  0.95764  Biso   1.000  Cr
  Cr493    1.0000 0.90440  0.17709  0.76074  Biso   1.000  Cr
  Cr494    1.0000 0.68072  0.54266  0.95794  Biso   1.000  Cr
  Cr495    1.0000 0.90456  0.67522  0.26070  Biso   1.000  Cr
  Cr496    1.0000 0.68062  0.04351  0.45768  Biso   1.000  Cr
  Cr497    1.0000 0.49020  0.90508  0.07396  Biso   1.000  Cr
  Cr498    1.0000 0.29361  0.68148  0.70692  Biso   1.000  Cr
  Cr499    1.0000 0.48790  0.40298  0.57636  Biso   1.000  Cr
  Cr500    1.0000 0.29191  0.17955  0.20539  Biso   1.000  Cr
  Cr501    1.0000 0.98991  0.90578  0.57406  Biso   1.000  Cr
  Cr502    1.0000 0.79229  0.67946  0.20669  Biso   1.000  Cr
  Cr503    1.0000 0.98934  0.40396  0.07611  Biso   1.000  Cr
  Cr504    1.0000 0.79162  0.17991  0.70556  Biso   1.000  Cr
  Cr505    1.0000 0.98773  0.34542  0.67559  Biso   1.000  Cr
  Cr506    1.0000 0.79134  0.56814  0.04495  Biso   1.000  Cr
  Cr507    1.0000 0.98926  0.84450  0.17480  Biso   1.000  Cr
  Cr508    1.0000 0.79207  0.07007  0.54295  Biso   1.000  Cr
  Cr509    1.0000 0.48907  0.34419  0.17403  Biso   1.000  Cr
  Cr510    1.0000 0.29257  0.56906  0.54362  Biso   1.000  Cr
  Cr511    1.0000 0.48912  0.84423  0.67774  Biso   1.000  Cr
  Cr512    1.0000 0.29144  0.06934  0.04252  Biso   1.000  Cr
  Cr513    1.0000 0.76090  0.84576  0.57624  Biso   1.000  Cr
  Cr514    1.0000 0.95753  0.06951  0.20600  Biso   1.000  Cr
  Cr515    1.0000 0.75972  0.34518  0.07640  Biso   1.000  Cr
  Cr516    1.0000 0.95816  0.56786  0.70698  Biso   1.000  Cr
  Cr517    1.0000 0.26206  0.84471  0.07486  Biso   1.000  Cr
  Cr518    1.0000 0.45719  0.06964  0.70693  Biso   1.000  Cr
  Cr519    1.0000 0.26024  0.34625  0.57628  Biso   1.000  Cr
  Cr520    1.0000 0.45747  0.56826  0.20638  Biso   1.000  Cr
  Cr521    1.0000 0.26091  0.40412  0.17542  Biso   1.000  Cr
  Cr522    1.0000 0.45660  0.18036  0.54261  Biso   1.000  Cr
  Cr523    1.0000 0.26044  0.90431  0.67594  Biso   1.000  Cr
  Cr524    1.0000 0.45888  0.68105  0.04261  Biso   1.000  Cr
  Cr525    1.0000 0.76045  0.40355  0.67427  Biso   1.000  Cr
  Cr526    1.0000 0.95713  0.18084  0.04321  Biso   1.000  Cr
  Cr527    1.0000 0.76119  0.90366  0.17545  Biso   1.000  Cr
  Cr528    1.0000 0.95833  0.68039  0.54174  Biso   1.000  Cr
  Cr529    1.0000 0.07495  0.49095  0.90626  Biso   1.000  Cr
  Cr530    1.0000 0.70653  0.29202  0.68124  Biso   1.000  Cr
  Cr531    1.0000 0.07594  0.98919  0.40446  Biso   1.000  Cr
  Cr532    1.0000 0.70695  0.79049  0.18051  Biso   1.000  Cr
  Cr533    1.0000 0.57452  0.48895  0.40552  Biso   1.000  Cr
  Cr534    1.0000 0.20730  0.29219  0.18189  Biso   1.000  Cr
  Cr535    1.0000 0.57537  0.98827  0.90480  Biso   1.000  Cr
  Cr536    1.0000 0.20499  0.79187  0.67917  Biso   1.000  Cr
  Cr537    1.0000 0.67550  0.98940  0.34494  Biso   1.000  Cr
  Cr538    1.0000 0.04066  0.79244  0.56991  Biso   1.000  Cr
  Cr539    1.0000 0.67483  0.48926  0.84468  Biso   1.000  Cr
  Cr540    1.0000 0.04295  0.29106  0.06914  Biso   1.000  Cr
  Cr541    1.0000 0.17476  0.99047  0.84461  Biso   1.000  Cr
  Cr542    1.0000 0.54327  0.79158  0.07082  Biso   1.000  Cr
  Cr543    1.0000 0.17583  0.48879  0.34520  Biso   1.000  Cr
  Cr544    1.0000 0.54238  0.29094  0.56882  Biso   1.000  Cr
  Cr545    1.0000 0.57561  0.76018  0.84588  Biso   1.000  Cr
  Cr546    1.0000 0.20780  0.95679  0.06733  Biso   1.000  Cr
  Cr547    1.0000 0.57516  0.26082  0.34634  Biso   1.000  Cr
  Cr548    1.0000 0.20560  0.45843  0.56954  Biso   1.000  Cr
  Cr549    1.0000 0.07436  0.76053  0.34535  Biso   1.000  Cr
  Cr550    1.0000 0.70742  0.95789  0.56817  Biso   1.000  Cr
  Cr551    1.0000 0.07460  0.26175  0.84582  Biso   1.000  Cr
  Cr552    1.0000 0.70661  0.45731  0.06924  Biso   1.000  Cr
  Cr553    1.0000 0.17654  0.26016  0.40558  Biso   1.000  Cr
  Cr554    1.0000 0.54348  0.45662  0.18236  Biso   1.000  Cr
  Cr555    1.0000 0.17586  0.76098  0.90490  Biso   1.000  Cr
  Cr556    1.0000 0.54212  0.95821  0.68062  Biso   1.000  Cr
  Cr557    1.0000 0.67507  0.26083  0.90476  Biso   1.000  Cr
  Cr558    1.0000 0.04316  0.45694  0.68378  Biso   1.000  Cr
  Cr559    1.0000 0.67528  0.76119  0.40612  Biso   1.000  Cr
  Cr560    1.0000 0.04225  0.95760  0.17957  Biso   1.000  Cr
  Cr561    1.0000 0.32538  0.65489  0.01135  Biso   1.000  Cr
  Cr562    1.0000 0.95557  0.43212  0.20843  Biso   1.000  Cr
  Cr563    1.0000 0.32413  0.15481  0.51181  Biso   1.000  Cr
  Cr564    1.0000 0.95670  0.93215  0.70661  Biso   1.000  Cr
  Cr565    1.0000 0.82353  0.65479  0.51158  Biso   1.000  Cr
  Cr566    1.0000 0.45531  0.43184  0.70851  Biso   1.000  Cr
  Cr567    1.0000 0.82507  0.15558  0.01093  Biso   1.000  Cr
  Cr568    1.0000 0.45833  0.93197  0.20612  Biso   1.000  Cr
  Cr569    1.0000 0.92579  0.09622  0.51095  Biso   1.000  Cr
  Cr570    1.0000 0.29302  0.31582  0.70788  Biso   1.000  Cr
  Cr571    1.0000 0.92492  0.59538  0.01074  Biso   1.000  Cr
  Cr572    1.0000 0.29522  0.81908  0.20800  Biso   1.000  Cr
  Cr573    1.0000 0.42600  0.09613  0.01051  Biso   1.000  Cr
  Cr574    1.0000 0.79405  0.31638  0.20841  Biso   1.000  Cr
  Cr575    1.0000 0.42520  0.59590  0.51089  Biso   1.000  Cr
  Cr576    1.0000 0.79573  0.81958  0.70753  Biso   1.000  Cr
  Cr577    1.0000 0.82521  0.59535  0.73945  Biso   1.000  Cr
  Cr578    1.0000 0.45851  0.82086  0.54313  Biso   1.000  Cr
  Cr579    1.0000 0.82543  0.09575  0.23962  Biso   1.000  Cr
  Cr580    1.0000 0.45662  0.31823  0.04099  Biso   1.000  Cr
  Cr581    1.0000 0.32545  0.59570  0.24005  Biso   1.000  Cr
  Cr582    1.0000 0.95736  0.81876  0.04288  Biso   1.000  Cr
  Cr583    1.0000 0.32360  0.09576  0.73945  Biso   1.000  Cr
  Cr584    1.0000 0.95808  0.31866  0.54170  Biso   1.000  Cr
  Cr585    1.0000 0.42475  0.15467  0.23942  Biso   1.000  Cr
  Cr586    1.0000 0.79470  0.93127  0.04244  Biso   1.000  Cr
  Cr587    1.0000 0.42544  0.65625  0.73959  Biso   1.000  Cr
  Cr588    1.0000 0.79448  0.43224  0.54265  Biso   1.000  Cr
  Cr589    1.0000 0.92482  0.15627  0.73960  Biso   1.000  Cr
  Cr590    1.0000 0.29491  0.93110  0.54268  Biso   1.000  Cr
  Cr591    1.0000 0.92591  0.65486  0.23987  Biso   1.000  Cr
  Cr592    1.0000 0.29399  0.43168  0.04352  Biso   1.000  Cr
  Cr593    1.0000 0.15543  0.23899  0.42568  Biso   1.000  Cr
  Cr594    1.0000 0.93169  0.04373  0.79277  Biso   1.000  Cr
  Cr595    1.0000 0.15586  0.73882  0.92499  Biso   1.000  Cr
  Cr596    1.0000 0.93202  0.54314  0.29418  Biso   1.000  Cr
  Cr597    1.0000 0.65477  0.23859  0.92456  Biso   1.000  Cr
  Cr598    1.0000 0.43171  0.04285  0.29445  Biso   1.000  Cr
  Cr599    1.0000 0.65513  0.73903  0.42593  Biso   1.000  Cr
  Cr600    1.0000 0.43233  0.54332  0.79200  Biso   1.000  Cr
  Cr601    1.0000 0.59597  0.73939  0.82455  Biso   1.000  Cr
  Cr602    1.0000 0.81819  0.54215  0.45528  Biso   1.000  Cr
  Cr603    1.0000 0.59564  0.23893  0.32655  Biso   1.000  Cr
  Cr604    1.0000 0.81874  0.04259  0.95701  Biso   1.000  Cr
  Cr605    1.0000 0.09504  0.74007  0.32385  Biso   1.000  Cr
  Cr606    1.0000 0.31898  0.54254  0.95631  Biso   1.000  Cr
  Cr607    1.0000 0.09479  0.23916  0.82634  Biso   1.000  Cr
  Cr608    1.0000 0.31866  0.04213  0.45630  Biso   1.000  Cr
  Cr609    1.0000 0.09517  0.51123  0.92780  Biso   1.000  Cr
  Cr610    1.0000 0.32091  0.70794  0.29306  Biso   1.000  Cr
  Cr611    1.0000 0.09633  0.01099  0.42453  Biso   1.000  Cr
  Cr612    1.0000 0.31720  0.20784  0.79549  Biso   1.000  Cr
  Cr613    1.0000 0.59397  0.51021  0.42692  Biso   1.000  Cr
  Cr614    1.0000 0.81953  0.70761  0.79337  Biso   1.000  Cr
  Cr615    1.0000 0.59568  0.01046  0.92439  Biso   1.000  Cr
  Cr616    1.0000 0.81837  0.20681  0.29581  Biso   1.000  Cr
  Cr617    1.0000 0.65551  0.01039  0.32368  Biso   1.000  Cr
  Cr618    1.0000 0.43101  0.20865  0.95462  Biso   1.000  Cr
  Cr619    1.0000 0.65433  0.51042  0.82408  Biso   1.000  Cr
  Cr620    1.0000 0.43138  0.70927  0.45753  Biso   1.000  Cr
  Cr621    1.0000 0.15515  0.01032  0.82200  Biso   1.000  Cr
  Cr622    1.0000 0.93155  0.20894  0.45592  Biso   1.000  Cr
  Cr623    1.0000 0.15546  0.51074  0.32524  Biso   1.000  Cr
  Cr624    1.0000 0.93046  0.70850  0.95625  Biso   1.000  Cr
  Cr625    1.0000 0.73863  0.82596  0.59635  Biso   1.000  Cr
  Cr626    1.0000 0.54178  0.45544  0.81881  Biso   1.000  Cr
  Cr627    1.0000 0.73839  0.32365  0.09552  Biso   1.000  Cr
  Cr628    1.0000 0.54312  0.95627  0.31816  Biso   1.000  Cr
  Cr629    1.0000 0.23960  0.82631  0.09623  Biso   1.000  Cr
  Cr630    1.0000 0.04370  0.45654  0.31857  Biso   1.000  Cr
  Cr631    1.0000 0.23872  0.32587  0.59650  Biso   1.000  Cr
  Cr632    1.0000 0.04199  0.95682  0.81891  Biso   1.000  Cr
  Cr633    1.0000 0.23982  0.42498  0.15507  Biso   1.000  Cr
  Cr634    1.0000 0.04317  0.79212  0.93061  Biso   1.000  Cr
  Cr635    1.0000 0.23960  0.92436  0.65444  Biso   1.000  Cr
  Cr636    1.0000 0.04293  0.29271  0.42996  Biso   1.000  Cr
  Cr637    1.0000 0.73932  0.42451  0.65416  Biso   1.000  Cr
  Cr638    1.0000 0.54247  0.79292  0.43100  Biso   1.000  Cr
  Cr639    1.0000 0.73999  0.92490  0.15498  Biso   1.000  Cr
  Cr640    1.0000 0.54289  0.29265  0.93039  Biso   1.000  Cr
  Cr641    1.0000 0.00978  0.32544  0.65531  Biso   1.000  Cr
  Cr642    1.0000 0.20821  0.95537  0.43247  Biso   1.000  Cr
  Cr643    1.0000 0.01164  0.82447  0.15494  Biso   1.000  Cr
  Cr644    1.0000 0.20771  0.45741  0.93159  Biso   1.000  Cr
  Cr645    1.0000 0.51115  0.32410  0.15397  Biso   1.000  Cr
  Cr646    1.0000 0.70770  0.95636  0.93184  Biso   1.000  Cr
  Cr647    1.0000 0.51014  0.82514  0.65570  Biso   1.000  Cr
  Cr648    1.0000 0.70638  0.45673  0.43216  Biso   1.000  Cr
  Cr649    1.0000 0.51129  0.92634  0.09394  Biso   1.000  Cr
  Cr650    1.0000 0.70838  0.29385  0.31933  Biso   1.000  Cr
  Cr651    1.0000 0.51038  0.42361  0.59558  Biso   1.000  Cr
  Cr652    1.0000 0.70766  0.79166  0.81753  Biso   1.000  Cr
  Cr653    1.0000 0.01091  0.92717  0.59373  Biso   1.000  Cr
  Cr654    1.0000 0.20655  0.29363  0.81900  Biso   1.000  Cr
  Cr655    1.0000 0.01113  0.42448  0.09627  Biso   1.000  Cr
  Cr656    1.0000 0.20868  0.79178  0.31863  Biso   1.000  Cr
  Cr657    1.0000 0.92891  0.90484  0.82036  Biso   1.000  Cr
  Cr658    1.0000 0.42962  0.90550  0.31962  Biso   1.000  Cr
  Cr659    1.0000 0.42816  0.40615  0.82032  Biso   1.000  Cr
  Cr660    1.0000 0.82163  0.34589  0.31929  Biso   1.000  Cr
  Cr661    1.0000 0.82005  0.84544  0.82097  Biso   1.000  Cr
  Cr662    1.0000 0.32135  0.84546  0.31988  Biso   1.000  Cr
  Cr663    1.0000 0.32070  0.40301  0.93071  Biso   1.000  Cr
  Cr664    1.0000 0.32103  0.90369  0.42868  Biso   1.000  Cr
  Cr665    1.0000 0.81939  0.40358  0.42949  Biso   1.000  Cr
  Cr666    1.0000 0.43127  0.84652  0.42904  Biso   1.000  Cr
  Cr667    1.0000 0.43090  0.34559  0.92879  Biso   1.000  Cr
  Cr668    1.0000 0.93110  0.84650  0.93019  Biso   1.000  Cr
  Cr669    1.0000 0.93090  0.34625  0.42950  Biso   1.000  Cr
  Cr670    1.0000 0.90567  0.82153  0.93130  Biso   1.000  Cr
  Cr671    1.0000 0.90554  0.32109  0.43038  Biso   1.000  Cr
  Cr672    1.0000 0.40620  0.82127  0.43112  Biso   1.000  Cr
  Cr673    1.0000 0.34420  0.32046  0.82046  Biso   1.000  Cr
  Cr674    1.0000 0.84623  0.31991  0.32060  Biso   1.000  Cr
  Cr675    1.0000 0.40484  0.93116  0.32002  Biso   1.000  Cr
  Cr676    1.0000 0.40249  0.43095  0.82127  Biso   1.000  Cr
  Cr677    1.0000 0.84522  0.42800  0.42943  Biso   1.000  Cr
  Cr678    1.0000 0.84584  0.92977  0.92982  Biso   1.000  Cr
  Cr679    1.0000 0.34510  0.42884  0.93148  Biso   1.000  Cr
  Cr680    1.0000 0.34558  0.92929  0.42949  Biso   1.000  Cr
  Cr681    1.0000 0.65371  0.17982  0.67975  Biso   1.000  Cr
  Cr682    1.0000 0.15377  0.18018  0.17962  Biso   1.000  Cr
  Cr683    1.0000 0.09511  0.07109  0.18186  Biso   1.000  Cr
  Cr684    1.0000 0.09578  0.56871  0.67862  Biso   1.000  Cr
  Cr685    1.0000 0.15370  0.57251  0.56999  Biso   1.000  Cr
  Cr686    1.0000 0.15370  0.06855  0.07211  Biso   1.000  Cr
  Cr687    1.0000 0.65446  0.57029  0.07178  Biso   1.000  Cr
  Cr688    1.0000 0.65346  0.06975  0.57100  Biso   1.000  Cr
  Cr689    1.0000 0.59580  0.67924  0.07164  Biso   1.000  Cr
  Cr690    1.0000 0.59402  0.17896  0.57078  Biso   1.000  Cr
  Cr691    1.0000 0.56969  0.15294  0.57086  Biso   1.000  Cr
  Cr692    1.0000 0.57136  0.65319  0.07060  Biso   1.000  Cr
  Cr693    1.0000 0.06947  0.15252  0.06882  Biso   1.000  Cr
  Cr694    1.0000 0.07075  0.65558  0.57113  Biso   1.000  Cr
  Cr695    1.0000 0.07099  0.59410  0.67898  Biso   1.000  Cr
  Cr696    1.0000 0.57023  0.59534  0.18067  Biso   1.000  Cr
  Cr697    1.0000 0.68033  0.65383  0.18019  Biso   1.000  Cr
  Cr698    1.0000 0.67939  0.15514  0.67867  Biso   1.000  Cr
  Cr699    1.0000 0.17961  0.15543  0.17943  Biso   1.000  Cr
  Cr700    1.0000 0.17896  0.09346  0.07190  Biso   1.000  Cr
  Cr701    1.0000 0.18034  0.59633  0.56988  Biso   1.000  Cr
  Cr702    1.0000 0.07034  0.09677  0.18027  Biso   1.000  Cr
  Cr703    1.0000 0.56956  0.09602  0.68081  Biso   1.000  Cr
  Cr704    1.0000 0.18111  0.65311  0.68036  Biso   1.000  Cr
  Cr705    1.0000 0.68090  0.59402  0.07128  Biso   1.000  Cr
  Cr706    1.0000 0.67935  0.09406  0.57093  Biso   1.000  Cr
  Cr707    1.0000 0.09455  0.17783  0.06998  Biso   1.000  Cr
  Cr708    1.0000 0.09511  0.68161  0.57296  Biso   1.000  Cr
  Cr709    1.0000 0.65449  0.67837  0.18062  Biso   1.000  Cr
  Cr710    1.0000 0.15509  0.67754  0.68149  Biso   1.000  Cr
  Cr711    1.0000 0.59499  0.07097  0.68079  Biso   1.000  Cr
  Cr712    1.0000 0.59504  0.56959  0.18039  Biso   1.000  Cr
  Cr713    1.0000 0.34746  0.82109  0.32088  Biso   1.000  Cr
  Cr714    1.0000 0.84669  0.82155  0.82099  Biso   1.000  Cr
  Cr715    1.0000 0.90478  0.93102  0.82061  Biso   1.000  Cr
  Cr716    1.0000 0.90406  0.42994  0.32066  Biso   1.000  Cr
  Cr717    1.0000 0.40557  0.32040  0.92857  Biso   1.000  Cr
  Cr718    1.0000 0.93055  0.40614  0.32047  Biso   1.000  Cr
  Cr719    1.0000 0.31940  0.34601  0.81974  Biso   1.000  Cr
  Cr720    1.0000 0.82099  0.90449  0.92883  Biso   1.000  Cr
  Cr721    1.0000 0.13566  0.36357  0.88667  Biso   1.000  Cr
  Cr722    1.0000 0.13745  0.86174  0.38728  Biso   1.000  Cr
  Cr723    1.0000 0.63568  0.36267  0.38745  Biso   1.000  Cr
  Cr724    1.0000 0.61436  0.88825  0.38762  Biso   1.000  Cr
  Cr725    1.0000 0.11437  0.88775  0.88738  Biso   1.000  Cr
  Cr726    1.0000 0.11454  0.38763  0.38861  Biso   1.000  Cr
  Cr727    1.0000 0.11380  0.86203  0.86275  Biso   1.000  Cr
  Cr728    1.0000 0.11569  0.36275  0.36304  Biso   1.000  Cr
  Cr729    1.0000 0.61453  0.86198  0.36316  Biso   1.000  Cr
  Cr730    1.0000 0.61564  0.36262  0.86261  Biso   1.000  Cr
  Cr731    1.0000 0.63665  0.38827  0.36278  Biso   1.000  Cr
  Cr732    1.0000 0.63728  0.88741  0.86267  Biso   1.000  Cr
  Cr733    1.0000 0.88793  0.13559  0.36352  Biso   1.000  Cr
  Cr734    1.0000 0.88751  0.63481  0.86235  Biso   1.000  Cr
  Cr735    1.0000 0.38860  0.63620  0.36295  Biso   1.000  Cr
  Cr736    1.0000 0.38903  0.61304  0.88748  Biso   1.000  Cr
  Cr737    1.0000 0.38794  0.11394  0.38777  Biso   1.000  Cr
  Cr738    1.0000 0.86138  0.11335  0.86253  Biso   1.000  Cr
  Cr739    1.0000 0.86319  0.61389  0.36235  Biso   1.000  Cr
  Cr740    1.0000 0.36226  0.11334  0.36309  Biso   1.000  Cr
  Cr741    1.0000 0.36317  0.61324  0.86270  Biso   1.000  Cr
  Cr742    1.0000 0.36338  0.63605  0.38824  Biso   1.000  Cr
  Cr743    1.0000 0.86261  0.63528  0.88781  Biso   1.000  Cr
  Cr744    1.0000 0.36346  0.88690  0.13507  Biso   1.000  Cr
  Cr745    1.0000 0.36115  0.38806  0.63756  Biso   1.000  Cr
  Cr746    1.0000 0.86349  0.88672  0.63582  Biso   1.000  Cr
  Cr747    1.0000 0.88780  0.38770  0.61271  Biso   1.000  Cr
  Cr748    1.0000 0.88766  0.88769  0.11563  Biso   1.000  Cr
  Cr749    1.0000 0.38788  0.38710  0.11343  Biso   1.000  Cr
  Cr750    1.0000 0.86301  0.86181  0.11410  Biso   1.000  Cr
  Cr751    1.0000 0.86295  0.36229  0.61183  Biso   1.000  Cr
  Cr752    1.0000 0.36302  0.86233  0.61450  Biso   1.000  Cr
  Cr753    1.0000 0.36286  0.36183  0.11307  Biso   1.000  Cr
  Cr754    1.0000 0.38620  0.36249  0.63707  Biso   1.000  Cr
  Cr755    1.0000 0.38892  0.86183  0.13491  Biso   1.000  Cr
  Cr756    1.0000 0.11099  0.38625  0.61291  Biso   1.000  Cr
  Cr757    1.0000 0.11287  0.88622  0.11180  Biso   1.000  Cr
  Cr758    1.0000 0.63754  0.86427  0.11266  Biso   1.000  Cr
  Cr759    1.0000 0.13626  0.86256  0.61280  Biso   1.000  Cr
  Cr760    1.0000 0.61181  0.36308  0.63704  Biso   1.000  Cr
  Cr761    1.0000 0.61246  0.86325  0.13827  Biso   1.000  Cr
  Cr762    1.0000 0.13802  0.88583  0.13702  Biso   1.000  Cr
  Cr763    1.0000 0.13680  0.38694  0.63749  Biso   1.000  Cr
  Cr764    1.0000 0.63751  0.88765  0.63714  Biso   1.000  Cr
  Cr765    1.0000 0.63802  0.38575  0.13934  Biso   1.000  Cr
  Cr766    1.0000 0.88541  0.13701  0.13694  Biso   1.000  Cr
  Cr767    1.0000 0.88794  0.63679  0.63776  Biso   1.000  Cr
  Cr768    1.0000 0.38475  0.13935  0.63780  Biso   1.000  Cr
  Cr769    1.0000 0.38684  0.63696  0.13708  Biso   1.000  Cr
  Cr770    1.0000 0.36520  0.63716  0.61252  Biso   1.000  Cr
  Cr771    1.0000 0.36451  0.13667  0.11167  Biso   1.000  Cr
  Cr772    1.0000 0.86369  0.11205  0.63754  Biso   1.000  Cr
  Cr773    1.0000 0.86436  0.61091  0.13793  Biso   1.000  Cr
  Cr774    1.0000 0.38676  0.61177  0.11176  Biso   1.000  Cr
  Cr775    1.0000 0.88667  0.61203  0.61185  Biso   1.000  Cr
  Cr776    1.0000 0.88420  0.11164  0.11168  Biso   1.000  Cr
  Cr777    1.0000 0.63862  0.61195  0.36495  Biso   1.000  Cr
  Cr778    1.0000 0.13710  0.61304  0.86480  Biso   1.000  Cr
  Cr779    1.0000 0.13734  0.13668  0.88559  Biso   1.000  Cr
  Cr780    1.0000 0.13827  0.63802  0.38497  Biso   1.000  Cr
  Cr781    1.0000 0.63728  0.13706  0.38579  Biso   1.000  Cr
  Cr782    1.0000 0.63788  0.63677  0.88585  Biso   1.000  Cr
  Cr783    1.0000 0.61198  0.11191  0.38361  Biso   1.000  Cr
  Cr784    1.0000 0.61214  0.61201  0.88454  Biso   1.000  Cr
  Cr785    1.0000 0.11139  0.11206  0.88353  Biso   1.000  Cr
  Cr786    1.0000 0.11175  0.63822  0.86500  Biso   1.000  Cr
  Cr787    1.0000 0.11191  0.13692  0.36294  Biso   1.000  Cr
  Cr788    1.0000 0.86507  0.63593  0.11269  Biso   1.000  Cr
  Cr789    1.0000 0.86487  0.13715  0.61218  Biso   1.000  Cr
  Cr790    1.0000 0.38562  0.11287  0.61361  Biso   1.000  Cr
  Cr791    1.0000 0.36366  0.61173  0.63768  Biso   1.000  Cr
  Cr792    1.0000 0.36300  0.11169  0.13711  Biso   1.000  Cr
  Cr793    1.0000 0.11065  0.86523  0.63735  Biso   1.000  Cr
  Cr794    1.0000 0.11284  0.36288  0.13725  Biso   1.000  Cr
  Cr795    1.0000 0.61342  0.38552  0.11313  Biso   1.000  Cr
  Cr796    1.0000 0.61161  0.88795  0.61258  Biso   1.000  Cr
  Cr797    1.0000 0.63708  0.36200  0.61176  Biso   1.000  Cr
  Cr798    1.0000 0.13814  0.36266  0.11212  Biso   1.000  Cr
  Cr799    1.0000 0.63683  0.11277  0.86387  Biso   1.000  Cr
  Cr800    1.0000 0.13765  0.11197  0.36382  Biso   1.000  Cr
  Cr801    1.0000 0.11299  0.61266  0.38496  Biso   1.000  Cr
  Cr802    1.0000 0.61339  0.63724  0.36486  Biso   1.000  Cr
  Cr803    1.0000 0.61172  0.13826  0.86341  Biso   1.000  Cr
  Cr804    1.0000 0.88760  0.61350  0.38871  Biso   1.000  Cr
  Cr805    1.0000 0.88754  0.11358  0.88667  Biso   1.000  Cr
  Cr806    1.0000 0.36214  0.13500  0.88841  Biso   1.000  Cr
  Cr807    1.0000 0.86299  0.13504  0.38893  Biso   1.000  Cr
  Cr808    1.0000 0.38676  0.13579  0.86269  Biso   1.000  Cr
  Cr809    1.0000 0.63782  0.86172  0.88755  Biso   1.000  Cr
  Cr810    1.0000 0.13780  0.88775  0.36279  Biso   1.000  Cr
  Cr811    1.0000 0.13605  0.38888  0.86152  Biso   1.000  Cr
  Cr812    1.0000 0.61451  0.38756  0.88823  Biso   1.000  Cr
  Cr813    1.0000 0.86184  0.38708  0.13691  Biso   1.000  Cr
  Cr814    1.0000 0.38782  0.88800  0.61577  Biso   1.000  Cr
  Cr815    1.0000 0.88748  0.36222  0.13641  Biso   1.000  Cr
  Cr816    1.0000 0.88931  0.86209  0.63565  Biso   1.000  Cr
  O1       1.0000 0.15782  0.34139  0.50095  Biso   1.000  O
  O2       1.0000 0.15823  0.84105  0.99891  Biso   1.000  O
  O3       1.0000 0.59258  0.90584  0.99947  Biso   1.000  O
  O4       1.0000 0.59119  0.40698  0.49981  Biso   1.000  O
  O5       1.0000 0.09387  0.84324  0.24942  Biso   1.000  O
  O6       1.0000 0.09107  0.34123  0.74999  Biso   1.000  O
  O7       1.0000 0.65817  0.40744  0.74919  Biso   1.000  O
  O8       1.0000 0.65908  0.90623  0.25058  Biso   1.000  O
  O9       1.0000 0.49977  0.15752  0.34137  Biso   1.000  O
  O10      1.0000 0.99985  0.15824  0.84129  Biso   1.000  O
  O11      1.0000 0.99999  0.59236  0.90858  Biso   1.000  O
  O12      1.0000 0.50038  0.59284  0.40781  Biso   1.000  O
  O13      1.0000 0.25046  0.09163  0.84367  Biso   1.000  O
  O14      1.0000 0.75045  0.09264  0.34268  Biso   1.000  O
  O15      1.0000 0.75080  0.65957  0.40690  Biso   1.000  O
  O16      1.0000 0.25061  0.65704  0.90674  Biso   1.000  O
  O17      1.0000 0.34209  0.49945  0.15858  Biso   1.000  O
  O18      1.0000 0.34183  0.99976  0.65899  Biso   1.000  O
  O19      1.0000 0.90720  0.99964  0.59234  Biso   1.000  O
  O20      1.0000 0.90832  0.49931  0.09163  Biso   1.000  O
  O21      1.0000 0.84185  0.24997  0.09118  Biso   1.000  O
  O22      1.0000 0.84167  0.74979  0.59243  Biso   1.000  O
  O23      1.0000 0.40757  0.74963  0.65653  Biso   1.000  O
  O24      1.0000 0.40704  0.24886  0.15726  Biso   1.000  O
  O25      1.0000 0.09267  0.40658  0.00012  Biso   1.000  O
  O26      1.0000 0.09199  0.90586  0.49916  Biso   1.000  O
  O27      1.0000 0.65728  0.84255  0.50077  Biso   1.000  O
  O28      1.0000 0.65704  0.34206  0.00039  Biso   1.000  O
  O29      1.0000 0.59152  0.34045  0.25032  Biso   1.000  O
  O30      1.0000 0.59292  0.84333  0.75023  Biso   1.000  O
  O31      1.0000 0.15806  0.90670  0.75029  Biso   1.000  O
  O32      1.0000 0.15848  0.40708  0.25018  Biso   1.000  O
  O33      1.0000 0.90764  0.74856  0.15780  Biso   1.000  O
  O34      1.0000 0.90651  0.24960  0.65716  Biso   1.000  O
  O35      1.0000 0.34201  0.25076  0.59138  Biso   1.000  O
  O36      1.0000 0.34227  0.74959  0.09233  Biso   1.000  O
  O37      1.0000 0.84167  0.50005  0.65814  Biso   1.000  O
  O38      1.0000 0.84176  0.00003  0.15871  Biso   1.000  O
  O39      1.0000 0.40660  0.99949  0.09191  Biso   1.000  O
  O40      1.0000 0.40754  0.50012  0.59105  Biso   1.000  O
  O41      1.0000 0.25053  0.59278  0.34286  Biso   1.000  O
  O42      1.0000 0.75017  0.59163  0.84305  Biso   1.000  O
  O43      1.0000 0.74927  0.15678  0.90741  Biso   1.000  O
  O44      1.0000 0.24979  0.15694  0.40734  Biso   1.000  O
  O45      1.0000 0.00001  0.09081  0.40717  Biso   1.000  O
  O46      1.0000 0.49951  0.09049  0.90794  Biso   1.000  O
  O47      1.0000 0.50078  0.65841  0.84208  Biso   1.000  O
  O48      1.0000 0.00002  0.65735  0.34241  Biso   1.000  O
  O49      1.0000 0.84091  0.65758  0.50082  Biso   1.000  O
  O50      1.0000 0.84244  0.15766  0.99954  Biso   1.000  O
  O51      1.0000 0.40828  0.09253  0.00048  Biso   1.000  O
  O52      1.0000 0.40774  0.59228  0.50043  Biso   1.000  O
  O53      1.0000 0.90728  0.15946  0.75010  Biso   1.000  O
  O54      1.0000 0.90836  0.65745  0.25060  Biso   1.000  O
  O55      1.0000 0.34318  0.59189  0.25003  Biso   1.000  O
  O56      1.0000 0.34114  0.09232  0.75003  Biso   1.000  O
  O57      1.0000 0.49960  0.84246  0.65984  Biso   1.000  O
  O58      1.0000 0.00031  0.84175  0.15743  Biso   1.000  O
  O59      1.0000 0.00034  0.40688  0.09349  Biso   1.000  O
  O60      1.0000 0.49921  0.40619  0.59345  Biso   1.000  O
  O61      1.0000 0.75046  0.90716  0.15794  Biso   1.000  O
  O62      1.0000 0.24974  0.90668  0.65817  Biso   1.000  O
  O63      1.0000 0.24951  0.34333  0.59384  Biso   1.000  O
  O64      1.0000 0.74954  0.34102  0.09377  Biso   1.000  O
  O65      1.0000 0.65760  0.50032  0.84181  Biso   1.000  O
  O66      1.0000 0.65814  0.00009  0.34143  Biso   1.000  O
  O67      1.0000 0.09303  0.00051  0.40686  Biso   1.000  O
  O68      1.0000 0.09248  0.50134  0.90986  Biso   1.000  O
  O69      1.0000 0.15860  0.75002  0.90769  Biso   1.000  O
  O70      1.0000 0.15891  0.24959  0.40814  Biso   1.000  O
  O71      1.0000 0.59253  0.25003  0.34381  Biso   1.000  O
  O72      1.0000 0.59313  0.74960  0.84243  Biso   1.000  O
  O73      1.0000 0.90714  0.59221  0.00067  Biso   1.000  O
  O74      1.0000 0.90835  0.09256  0.50048  Biso   1.000  O
  O75      1.0000 0.34139  0.15719  0.50035  Biso   1.000  O
  O76      1.0000 0.34254  0.65770  0.00013  Biso   1.000  O
  O77      1.0000 0.40804  0.65918  0.75038  Biso   1.000  O
  O78      1.0000 0.40733  0.15820  0.25000  Biso   1.000  O
  O79      1.0000 0.84278  0.09273  0.25040  Biso   1.000  O
  O80      1.0000 0.84251  0.59184  0.75028  Biso   1.000  O
  O81      1.0000 0.09183  0.25061  0.84342  Biso   1.000  O
  O82      1.0000 0.09192  0.75003  0.34187  Biso   1.000  O
  O83      1.0000 0.65798  0.75029  0.40872  Biso   1.000  O
  O84      1.0000 0.65773  0.24985  0.90732  Biso   1.000  O
  O85      1.0000 0.15867  0.50024  0.34282  Biso   1.000  O
  O86      1.0000 0.15727  0.00050  0.84026  Biso   1.000  O
  O87      1.0000 0.59250  0.99963  0.90701  Biso   1.000  O
  O88      1.0000 0.59177  0.49974  0.40917  Biso   1.000  O
  O89      1.0000 0.75000  0.40693  0.65674  Biso   1.000  O
  O90      1.0000 0.25074  0.40757  0.15769  Biso   1.000  O
  O91      1.0000 0.25080  0.84334  0.09238  Biso   1.000  O
  O92      1.0000 0.74969  0.84330  0.59357  Biso   1.000  O
  O93      1.0000 0.99998  0.90977  0.59169  Biso   1.000  O
  O94      1.0000 0.50031  0.90895  0.09162  Biso   1.000  O
  O95      1.0000 0.49993  0.34139  0.15656  Biso   1.000  O
  O96      1.0000 0.99875  0.34282  0.65812  Biso   1.000  O
  O97      1.0000 0.20135  0.20082  0.29421  Biso   1.000  O
  O98      1.0000 0.20169  0.70145  0.79541  Biso   1.000  O
  O99      1.0000 0.70136  0.20068  0.79420  Biso   1.000  O
  O100     1.0000 0.70104  0.70125  0.29525  Biso   1.000  O
  O101     1.0000 0.54928  0.04770  0.79527  Biso   1.000  O
  O102     1.0000 0.54963  0.54850  0.29582  Biso   1.000  O
  O103     1.0000 0.05089  0.70122  0.45555  Biso   1.000  O
  O104     1.0000 0.04826  0.20006  0.95436  Biso   1.000  O
  O105     1.0000 0.54875  0.19908  0.45514  Biso   1.000  O
  O106     1.0000 0.70022  0.54869  0.95567  Biso   1.000  O
  O107     1.0000 0.20087  0.54877  0.45497  Biso   1.000  O
  O108     1.0000 0.29419  0.19953  0.20044  Biso   1.000  O
  O109     1.0000 0.29497  0.70111  0.70040  Biso   1.000  O
  O110     1.0000 0.79389  0.19986  0.70047  Biso   1.000  O
  O111     1.0000 0.79470  0.69921  0.20105  Biso   1.000  O
  O112     1.0000 0.79461  0.54807  0.04897  Biso   1.000  O
  O113     1.0000 0.29515  0.54924  0.54876  Biso   1.000  O
  O114     1.0000 0.45452  0.04996  0.70150  Biso   1.000  O
  O115     1.0000 0.45530  0.54825  0.20147  Biso   1.000  O
  O116     1.0000 0.95484  0.69994  0.54737  Biso   1.000  O
  O117     1.0000 0.95434  0.20055  0.04883  Biso   1.000  O
  O118     1.0000 0.45464  0.20012  0.54791  Biso   1.000  O
  O119     1.0000 0.20179  0.29455  0.20155  Biso   1.000  O
  O120     1.0000 0.20029  0.79376  0.69915  Biso   1.000  O
  O121     1.0000 0.70106  0.29432  0.70097  Biso   1.000  O
  O122     1.0000 0.70163  0.79337  0.20023  Biso   1.000  O
  O123     1.0000 0.04633  0.79494  0.55023  Biso   1.000  O
  O124     1.0000 0.04830  0.29327  0.04936  Biso   1.000  O
  O125     1.0000 0.54787  0.29348  0.54907  Biso   1.000  O
  O126     1.0000 0.70087  0.45446  0.04956  Biso   1.000  O
  O127     1.0000 0.20024  0.45513  0.54988  Biso   1.000  O
  O128     1.0000 0.54757  0.95529  0.70028  Biso   1.000  O
  O129     1.0000 0.54879  0.45402  0.20211  Biso   1.000  O
  O130     1.0000 0.95064  0.45185  0.20518  Biso   1.000  O
  O131     1.0000 0.95051  0.95173  0.70548  Biso   1.000  O
  O132     1.0000 0.80091  0.79973  0.70606  Biso   1.000  O
  O133     1.0000 0.79978  0.29673  0.20591  Biso   1.000  O
  O134     1.0000 0.30004  0.79924  0.20484  Biso   1.000  O
  O135     1.0000 0.29853  0.29619  0.70539  Biso   1.000  O
  O136     1.0000 0.45147  0.29851  0.04439  Biso   1.000  O
  O137     1.0000 0.45297  0.80105  0.54503  Biso   1.000  O
  O138     1.0000 0.95178  0.79898  0.04535  Biso   1.000  O
  O139     1.0000 0.30058  0.95081  0.54522  Biso   1.000  O
  O140     1.0000 0.80001  0.95102  0.04448  Biso   1.000  O
  O141     1.0000 0.95173  0.54465  0.29994  Biso   1.000  O
  O142     1.0000 0.95132  0.04608  0.79848  Biso   1.000  O
  O143     1.0000 0.29898  0.04515  0.45080  Biso   1.000  O
  O144     1.0000 0.79905  0.04552  0.95140  Biso   1.000  O
  O145     1.0000 0.80002  0.70556  0.79949  Biso   1.000  O
  O146     1.0000 0.79860  0.20499  0.30103  Biso   1.000  O
  O147     1.0000 0.30135  0.70577  0.29914  Biso   1.000  O
  O148     1.0000 0.29766  0.20497  0.80095  Biso   1.000  O
  O149     1.0000 0.45070  0.20483  0.94980  Biso   1.000  O
  O150     1.0000 0.45116  0.70589  0.45276  Biso   1.000  O
  O151     1.0000 0.95020  0.70577  0.95108  Biso   1.000  O
  O152     1.0000 0.04540  0.45020  0.29903  Biso   1.000  O
  O153     1.0000 0.04423  0.95136  0.79912  Biso   1.000  O
  O154     1.0000 0.54484  0.29831  0.95016  Biso   1.000  O
  O155     1.0000 0.54505  0.79853  0.45062  Biso   1.000  O
  O156     1.0000 0.04502  0.79741  0.95039  Biso   1.000  O
  O157     1.0000 0.20550  0.94975  0.45216  Biso   1.000  O
  O158     1.0000 0.70544  0.95051  0.95153  Biso   1.000  O
  O159     1.0000 0.70592  0.79832  0.79810  Biso   1.000  O
  O160     1.0000 0.70531  0.29918  0.29962  Biso   1.000  O
  O161     1.0000 0.20614  0.79757  0.29895  Biso   1.000  O
  O162     1.0000 0.20474  0.29852  0.79904  Biso   1.000  O
  O163     1.0000 0.45156  0.95134  0.20420  Biso   1.000  O
  O164     1.0000 0.45091  0.45165  0.70500  Biso   1.000  O
  O165     1.0000 0.95303  0.29889  0.54502  Biso   1.000  O
  O166     1.0000 0.29918  0.45161  0.04474  Biso   1.000  O
  O167     1.0000 0.79970  0.45213  0.54429  Biso   1.000  O
  O168     1.0000 0.20503  0.45082  0.95106  Biso   1.000  O
  O169     1.0000 0.70430  0.45108  0.45202  Biso   1.000  O
  O170     1.0000 0.54537  0.95021  0.29852  Biso   1.000  O
  O171     1.0000 0.54422  0.44956  0.79917  Biso   1.000  O
  O172     1.0000 0.04499  0.29827  0.44977  Biso   1.000  O
  O173     1.0000 0.95112  0.20513  0.45056  Biso   1.000  O
  O174     1.0000 0.29927  0.54552  0.95091  Biso   1.000  O
  O175     1.0000 0.79858  0.54474  0.44941  Biso   1.000  O
  O176     1.0000 0.45165  0.04522  0.29943  Biso   1.000  O
  O177     1.0000 0.45195  0.54565  0.79808  Biso   1.000  O
  O178     1.0000 0.05003  0.54916  0.79547  Biso   1.000  O
  O179     1.0000 0.04847  0.04774  0.29489  Biso   1.000  O
  O180     1.0000 0.55092  0.70085  0.95559  Biso   1.000  O
  O181     1.0000 0.70009  0.04953  0.45527  Biso   1.000  O
  O182     1.0000 0.19913  0.04928  0.95575  Biso   1.000  O
  O183     1.0000 0.04881  0.45482  0.70346  Biso   1.000  O
  O184     1.0000 0.04869  0.95458  0.19897  Biso   1.000  O
  O185     1.0000 0.70175  0.95528  0.54844  Biso   1.000  O
  O186     1.0000 0.20146  0.95481  0.04781  Biso   1.000  O
  O187     1.0000 0.54828  0.79358  0.05086  Biso   1.000  O
  O188     1.0000 0.95518  0.54818  0.70156  Biso   1.000  O
  O189     1.0000 0.95551  0.04978  0.20033  Biso   1.000  O
  O190     1.0000 0.45565  0.70065  0.04830  Biso   1.000  O
  O191     1.0000 0.79440  0.05018  0.54819  Biso   1.000  O
  O192     1.0000 0.29406  0.04951  0.04762  Biso   1.000  O
  O193     1.0000 0.07792  0.07892  0.17341  Biso   1.000  O
  O194     1.0000 0.07872  0.57700  0.67066  Biso   1.000  O
  O195     1.0000 0.57747  0.07870  0.67298  Biso   1.000  O
  O196     1.0000 0.57830  0.57836  0.17218  Biso   1.000  O
  O197     1.0000 0.67023  0.17161  0.67044  Biso   1.000  O
  O198     1.0000 0.17114  0.57990  0.57818  Biso   1.000  O
  O199     1.0000 0.57875  0.67046  0.07906  Biso   1.000  O
  O200     1.0000 0.17048  0.07691  0.08061  Biso   1.000  O
  O201     1.0000 0.67037  0.07773  0.57960  Biso   1.000  O
  O202     1.0000 0.67199  0.57750  0.07980  Biso   1.000  O
  O203     1.0000 0.67179  0.67085  0.17222  Biso   1.000  O
  O204     1.0000 0.57712  0.17045  0.57875  Biso   1.000  O
  O205     1.0000 0.07713  0.16975  0.07725  Biso   1.000  O
  O206     1.0000 0.07802  0.67256  0.58025  Biso   1.000  O
  O207     1.0000 0.17213  0.67006  0.67255  Biso   1.000  O
  O208     1.0000 0.17086  0.17223  0.17107  Biso   1.000  O
  O209     1.0000 0.82905  0.32856  0.32804  Biso   1.000  O
  O210     1.0000 0.82902  0.82862  0.82914  Biso   1.000  O
  O211     1.0000 0.92134  0.92202  0.82876  Biso   1.000  O
  O212     1.0000 0.32824  0.42067  0.92318  Biso   1.000  O
  O213     1.0000 0.42271  0.82927  0.42180  Biso   1.000  O
  O214     1.0000 0.82735  0.42099  0.42191  Biso   1.000  O
  O215     1.0000 0.42139  0.92212  0.32843  Biso   1.000  O
  O216     1.0000 0.92230  0.82960  0.92230  Biso   1.000  O
  O217     1.0000 0.32704  0.32891  0.82831  Biso   1.000  O
  O218     1.0000 0.92228  0.32929  0.42160  Biso   1.000  O
  O219     1.0000 0.41974  0.42270  0.82916  Biso   1.000  O
  O220     1.0000 0.32983  0.82870  0.32860  Biso   1.000  O
  O221     1.0000 0.82873  0.92198  0.92142  Biso   1.000  O
  O222     1.0000 0.42225  0.32898  0.92010  Biso   1.000  O
  O223     1.0000 0.92152  0.42270  0.32890  Biso   1.000  O
  O224     1.0000 0.32854  0.92130  0.42116  Biso   1.000  O
  O225     1.0000 0.12576  0.87574  0.12392  Biso   1.000  O
  O226     1.0000 0.12430  0.37629  0.62509  Biso   1.000  O
  O227     1.0000 0.62550  0.37533  0.12650  Biso   1.000  O
  O228     1.0000 0.62452  0.37288  0.62402  Biso   1.000  O
  O229     1.0000 0.62436  0.87744  0.62496  Biso   1.000  O
  O230     1.0000 0.62504  0.87401  0.12588  Biso   1.000  O
  O231     1.0000 0.12466  0.12491  0.87422  Biso   1.000  O
  O232     1.0000 0.12536  0.62571  0.37456  Biso   1.000  O
  O233     1.0000 0.62485  0.12519  0.37434  Biso   1.000  O
  O234     1.0000 0.62616  0.62474  0.37533  Biso   1.000  O
  O235     1.0000 0.62491  0.62513  0.87482  Biso   1.000  O
  O236     1.0000 0.12435  0.62556  0.87527  Biso   1.000  O
  O237     1.0000 0.12488  0.12494  0.37371  Biso   1.000  O
  O238     1.0000 0.87441  0.12448  0.12460  Biso   1.000  O
  O239     1.0000 0.87698  0.62480  0.62491  Biso   1.000  O
  O240     1.0000 0.37490  0.12571  0.62577  Biso   1.000  O
  O241     1.0000 0.37632  0.62445  0.12436  Biso   1.000  O
  O242     1.0000 0.37478  0.62421  0.62551  Biso   1.000  O
  O243     1.0000 0.37406  0.12403  0.12491  Biso   1.000  O
  O244     1.0000 0.87461  0.12441  0.62520  Biso   1.000  O
  O245     1.0000 0.62583  0.37535  0.37456  Biso   1.000  O
  O246     1.0000 0.62720  0.87423  0.87496  Biso   1.000  O
  O247     1.0000 0.12459  0.87489  0.87489  Biso   1.000  O
  O248     1.0000 0.12557  0.37490  0.37656  Biso   1.000  O
  O249     1.0000 0.12537  0.37636  0.87398  Biso   1.000  O
  O250     1.0000 0.62478  0.87502  0.37557  Biso   1.000  O
  O251     1.0000 0.87492  0.37509  0.62269  Biso   1.000  O
  O252     1.0000 0.37594  0.87427  0.12455  Biso   1.000  O
  O253     1.0000 0.87601  0.87408  0.62537  Biso   1.000  O
  O254     1.0000 0.87508  0.87435  0.12520  Biso   1.000  O
  O255     1.0000 0.37322  0.37505  0.62690  Biso   1.000  O
  O256     1.0000 0.87530  0.12499  0.37588  Biso   1.000  O
  O257     1.0000 0.87518  0.62469  0.87538  Biso   1.000  O
  O258     1.0000 0.37594  0.62355  0.87545  Biso   1.000  O
  O259     1.0000 0.37510  0.12405  0.37518  Biso   1.000  O
  O260     1.0000 0.37589  0.62576  0.37541  Biso   1.000  O
  O261     1.0000 0.87456  0.12386  0.87440  Biso   1.000  O
  O262     1.0000 0.87558  0.62403  0.37552  Biso   1.000  O
  O263     1.0000 0.37451  0.12499  0.87530  Biso   1.000  O
  O264     1.0000 0.37510  0.87504  0.62548  Biso   1.000  O
  O265     1.0000 0.37515  0.37454  0.12368  Biso   1.000  O
  O266     1.0000 0.87448  0.37466  0.12634  Biso   1.000  O
  O267     1.0000 0.62549  0.37502  0.87596  Biso   1.000  O
  O268     1.0000 0.12725  0.87448  0.37456  Biso   1.000  O
  O269     1.0000 0.87503  0.62349  0.12574  Biso   1.000  O
  O270     1.0000 0.62415  0.12564  0.87407  Biso   1.000  O
  O271     1.0000 0.12452  0.87425  0.62508  Biso   1.000  O
  O272     1.0000 0.12562  0.37315  0.12475  Biso   1.000  O
  O273     1.0000 0.85628  0.91224  0.92487  Biso   1.000  O
  O274     1.0000 0.31786  0.29689  0.72759  Biso   1.000  O
  O275     1.0000 0.33973  0.32693  0.80055  Biso   1.000  O
  O276     1.0000 0.21443  0.27402  0.81452  Biso   1.000  O
  O277     1.0000 0.21827  0.27428  0.78935  Biso   1.000  O
  O278     1.0000 0.07311  0.92450  0.48288  Biso   1.000  O
  O279     1.0000 0.09460  0.93457  0.49191  Biso   1.000  O
  O280     1.0000 0.08737  0.97120  0.40313  Biso   1.000  O
  O281     1.0000 0.10300  0.98017  0.38535  Biso   1.000  O
  O282     1.0000 0.10618  0.89470  0.38099  Biso   1.000  O
  O283     1.0000 0.12253  0.90311  0.36360  Biso   1.000  O
  O284     1.0000 0.70074  0.93742  0.92398  Biso   1.000  O
  O285     1.0000 0.64584  0.89682  0.87963  Biso   1.000  O
  O286     1.0000 0.18940  0.97610  0.45284  Biso   1.000  O
  O287     1.0000 0.18855  0.96197  0.43172  Biso   1.000  O
  O288     1.0000 0.11781  0.00819  0.42434  Biso   1.000  O
  O289     1.0000 0.12065  0.99109  0.40580  Biso   1.000  O
  O290     1.0000 0.85429  0.40998  0.42355  Biso   1.000  O
  O291     1.0000 0.32478  0.80783  0.22144  Biso   1.000  O
  O292     1.0000 0.33752  0.81681  0.30287  Biso   1.000  O
  O293     1.0000 0.21593  0.77219  0.31356  Biso   1.000  O
  O294     1.0000 0.22004  0.77352  0.28846  Biso   1.000  O
  O295     1.0000 0.07209  0.42436  0.98556  Biso   1.000  O
  O296     1.0000 0.09372  0.43544  0.99288  Biso   1.000  O
  O297     1.0000 0.08429  0.47610  0.89355  Biso   1.000  O
  O298     1.0000 0.10895  0.47987  0.89765  Biso   1.000  O
  O299     1.0000 0.10379  0.39832  0.87043  Biso   1.000  O
  O300     1.0000 0.12809  0.40576  0.87130  Biso   1.000  O
  O301     1.0000 0.69995  0.43768  0.42453  Biso   1.000  O
  O302     1.0000 0.64450  0.39744  0.38014  Biso   1.000  O
  O303     1.0000 0.18983  0.47707  0.95280  Biso   1.000  O
  O304     1.0000 0.18770  0.46361  0.93123  Biso   1.000  O
  O305     1.0000 0.11195  0.49903  0.93228  Biso   1.000  O
  O306     1.0000 0.12329  0.50289  0.90992  Biso   1.000  O
  O307     1.0000 0.35625  0.91196  0.42441  Biso   1.000  O
  O308     1.0000 0.81989  0.29796  0.22767  Biso   1.000  O
  O309     1.0000 0.83609  0.31655  0.30254  Biso   1.000  O
  O310     1.0000 0.71597  0.27433  0.31444  Biso   1.000  O
  O311     1.0000 0.71939  0.27521  0.28929  Biso   1.000  O
  O312     1.0000 0.57371  0.92423  0.98320  Biso   1.000  O
  O313     1.0000 0.59522  0.93440  0.99218  Biso   1.000  O
  O314     1.0000 0.58697  0.97042  0.90354  Biso   1.000  O
  O315     1.0000 0.60248  0.97946  0.88564  Biso   1.000  O
  O316     1.0000 0.60623  0.89425  0.88187  Biso   1.000  O
  O317     1.0000 0.62188  0.90258  0.86378  Biso   1.000  O
  O318     1.0000 0.20099  0.93641  0.42478  Biso   1.000  O
  O319     1.0000 0.14591  0.89685  0.38019  Biso   1.000  O
  O320     1.0000 0.68893  0.97668  0.95245  Biso   1.000  O
  O321     1.0000 0.68786  0.96255  0.93144  Biso   1.000  O
  O322     1.0000 0.61713  0.00809  0.92398  Biso   1.000  O
  O323     1.0000 0.62048  0.99101  0.90547  Biso   1.000  O
  O324     1.0000 0.35310  0.41021  0.93846  Biso   1.000  O
  O325     1.0000 0.81980  0.80086  0.72843  Biso   1.000  O
  O326     1.0000 0.83680  0.81774  0.80280  Biso   1.000  O
  O327     1.0000 0.71494  0.77225  0.81186  Biso   1.000  O
  O328     1.0000 0.72004  0.77456  0.78700  Biso   1.000  O
  O329     1.0000 0.57053  0.42450  0.48499  Biso   1.000  O
  O330     1.0000 0.59154  0.43598  0.49373  Biso   1.000  O
  O331     1.0000 0.58492  0.47343  0.39443  Biso   1.000  O
  O332     1.0000 0.60975  0.47903  0.39708  Biso   1.000  O
  O333     1.0000 0.60532  0.39579  0.38071  Biso   1.000  O
  O334     1.0000 0.62149  0.40379  0.36296  Biso   1.000  O
  O335     1.0000 0.20087  0.43874  0.92303  Biso   1.000  O
  O336     1.0000 0.15295  0.39075  0.87511  Biso   1.000  O
  O337     1.0000 0.68822  0.47706  0.45259  Biso   1.000  O
  O338     1.0000 0.68626  0.46254  0.43176  Biso   1.000  O
  O339     1.0000 0.61057  0.49797  0.43165  Biso   1.000  O
  O340     1.0000 0.62243  0.50268  0.40979  Biso   1.000  O
  O341     1.0000 0.89836  0.33962  0.43840  Biso   1.000  O
  O342     1.0000 0.42855  0.93946  0.22139  Biso   1.000  O
  O343     1.0000 0.40996  0.92568  0.29985  Biso   1.000  O
  O344     1.0000 0.53644  0.97624  0.31300  Biso   1.000  O
  O345     1.0000 0.53238  0.97457  0.28798  Biso   1.000  O
  O346     1.0000 0.67688  0.32379  0.98480  Biso   1.000  O
  O347     1.0000 0.65521  0.31374  0.99324  Biso   1.000  O
  O348     1.0000 0.66403  0.27889  0.90338  Biso   1.000  O
  O349     1.0000 0.64777  0.27015  0.88604  Biso   1.000  O
  O350     1.0000 0.64822  0.35494  0.87100  Biso   1.000  O
  O351     1.0000 0.62448  0.34585  0.87175  Biso   1.000  O
  O352     1.0000 0.04978  0.31154  0.42184  Biso   1.000  O
  O353     1.0000 0.09866  0.36024  0.37610  Biso   1.000  O
  O354     1.0000 0.56028  0.27142  0.95098  Biso   1.000  O
  O355     1.0000 0.56282  0.28636  0.93068  Biso   1.000  O
  O356     1.0000 0.63335  0.24176  0.92471  Biso   1.000  O
  O357     1.0000 0.62990  0.25901  0.90634  Biso   1.000  O
  O358     1.0000 0.89860  0.84049  0.93869  Biso   1.000  O
  O359     1.0000 0.43163  0.45256  0.72723  Biso   1.000  O
  O360     1.0000 0.41267  0.43508  0.80333  Biso   1.000  O
  O361     1.0000 0.53456  0.47509  0.81347  Biso   1.000  O
  O362     1.0000 0.53161  0.47388  0.78818  Biso   1.000  O
  O363     1.0000 0.67724  0.82398  0.48587  Biso   1.000  O
  O364     1.0000 0.65557  0.81411  0.49430  Biso   1.000  O
  O365     1.0000 0.66400  0.77918  0.40485  Biso   1.000  O
  O366     1.0000 0.64827  0.77012  0.38708  Biso   1.000  O
  O367     1.0000 0.64578  0.85517  0.38237  Biso   1.000  O
  O368     1.0000 0.62981  0.84679  0.36442  Biso   1.000  O
  O369     1.0000 0.05094  0.81075  0.92289  Biso   1.000  O
  O370     1.0000 0.09740  0.86021  0.87674  Biso   1.000  O
  O371     1.0000 0.55985  0.77128  0.45137  Biso   1.000  O
  O372     1.0000 0.56224  0.78595  0.43093  Biso   1.000  O
  O373     1.0000 0.63357  0.74169  0.42571  Biso   1.000  O
  O374     1.0000 0.63003  0.75865  0.40699  Biso   1.000  O
  O375     1.0000 0.39815  0.33885  0.93659  Biso   1.000  O
  O376     1.0000 0.93157  0.94974  0.72765  Biso   1.000  O
  O377     1.0000 0.90896  0.92413  0.80072  Biso   1.000  O
  O378     1.0000 0.03488  0.97671  0.81393  Biso   1.000  O
  O379     1.0000 0.03169  0.97576  0.78861  Biso   1.000  O
  O380     1.0000 0.17134  0.32785  0.47854  Biso   1.000  O
  O381     1.0000 0.16695  0.31203  0.49784  Biso   1.000  O
  O382     1.0000 0.16743  0.27545  0.39336  Biso   1.000  O
  O383     1.0000 0.14249  0.27029  0.39447  Biso   1.000  O
  O384     1.0000 0.14785  0.35404  0.37236  Biso   1.000  O
  O385     1.0000 0.12379  0.34585  0.37250  Biso   1.000  O
  O386     1.0000 0.55001  0.31140  0.92222  Biso   1.000  O
  O387     1.0000 0.59896  0.35962  0.87607  Biso   1.000  O
  O388     1.0000 0.06055  0.27150  0.45014  Biso   1.000  O
  O389     1.0000 0.06297  0.28650  0.42988  Biso   1.000  O
  O390     1.0000 0.13814  0.25072  0.42959  Biso   1.000  O
  O391     1.0000 0.12849  0.24718  0.40638  Biso   1.000  O
  O392     1.0000 0.39893  0.84032  0.43809  Biso   1.000  O
  O393     1.0000 0.93129  0.45219  0.22731  Biso   1.000  O
  O394     1.0000 0.91452  0.43475  0.30313  Biso   1.000  O
  O395     1.0000 0.03664  0.47620  0.31312  Biso   1.000  O
  O396     1.0000 0.03247  0.47444  0.28806  Biso   1.000  O
  O397     1.0000 0.17230  0.82749  0.97703  Biso   1.000  O
  O398     1.0000 0.16803  0.81201  0.99679  Biso   1.000  O
  O399     1.0000 0.16466  0.77913  0.90424  Biso   1.000  O
  O400     1.0000 0.14848  0.77060  0.88670  Biso   1.000  O
  O401     1.0000 0.14645  0.85375  0.87075  Biso   1.000  O
  O402     1.0000 0.12240  0.84545  0.87249  Biso   1.000  O
  O403     1.0000 0.55042  0.81136  0.42296  Biso   1.000  O
  O404     1.0000 0.60560  0.85295  0.38001  Biso   1.000  O
  O405     1.0000 0.05973  0.77000  0.95091  Biso   1.000  O
  O406     1.0000 0.06296  0.78544  0.93117  Biso   1.000  O
  O407     1.0000 0.13437  0.74206  0.92557  Biso   1.000  O
  O408     1.0000 0.13083  0.75944  0.90733  Biso   1.000  O
  O409     1.0000 0.39517  0.41215  0.81387  Biso   1.000  O
  O410     1.0000 0.93180  0.80019  0.02376  Biso   1.000  O
  O411     1.0000 0.91744  0.81790  0.94829  Biso   1.000  O
  O412     1.0000 0.03475  0.77276  0.93553  Biso   1.000  O
  O413     1.0000 0.03090  0.77374  0.96074  Biso   1.000  O
  O414     1.0000 0.17794  0.42619  0.26532  Biso   1.000  O
  O415     1.0000 0.15616  0.43607  0.25687  Biso   1.000  O
  O416     1.0000 0.16429  0.47099  0.34657  Biso   1.000  O
  O417     1.0000 0.14870  0.48015  0.36432  Biso   1.000  O
  O418     1.0000 0.14727  0.39659  0.38140  Biso   1.000  O
  O419     1.0000 0.12325  0.40430  0.37897  Biso   1.000  O
  O420     1.0000 0.54869  0.43671  0.82714  Biso   1.000  O
  O421     1.0000 0.59768  0.38910  0.87474  Biso   1.000  O
  O422     1.0000 0.06197  0.47632  0.29708  Biso   1.000  O
  O423     1.0000 0.06373  0.46235  0.31822  Biso   1.000  O
  O424     1.0000 0.13406  0.50810  0.32543  Biso   1.000  O
  O425     1.0000 0.13064  0.49127  0.34420  Biso   1.000  O
  O426     1.0000 0.39376  0.91372  0.32310  Biso   1.000  O
  O427     1.0000 0.93419  0.29861  0.52247  Biso   1.000  O
  O428     1.0000 0.91679  0.31703  0.44756  Biso   1.000  O
  O429     1.0000 0.03527  0.27303  0.43501  Biso   1.000  O
  O430     1.0000 0.03170  0.27433  0.46022  Biso   1.000  O
  O431     1.0000 0.17192  0.92003  0.77294  Biso   1.000  O
  O432     1.0000 0.16684  0.93619  0.75396  Biso   1.000  O
  O433     1.0000 0.16528  0.97533  0.85678  Biso   1.000  O
  O434     1.0000 0.14047  0.97929  0.85312  Biso   1.000  O
  O435     1.0000 0.14659  0.89661  0.87806  Biso   1.000  O
  O436     1.0000 0.12246  0.90420  0.87686  Biso   1.000  O
  O437     1.0000 0.54931  0.93725  0.32642  Biso   1.000  O
  O438     1.0000 0.60589  0.89721  0.37030  Biso   1.000  O
  O439     1.0000 0.06014  0.97760  0.79935  Biso   1.000  O
  O440     1.0000 0.06225  0.96254  0.81955  Biso   1.000  O
  O441     1.0000 0.13911  0.99782  0.81677  Biso   1.000  O
  O442     1.0000 0.12679  0.00117  0.83879  Biso   1.000  O
  O443     1.0000 0.89804  0.41113  0.31267  Biso   1.000  O
  O444     1.0000 0.42915  0.81102  0.52861  Biso   1.000  O
  O445     1.0000 0.41790  0.81816  0.44831  Biso   1.000  O
  O446     1.0000 0.53397  0.77359  0.43632  Biso   1.000  O
  O447     1.0000 0.53117  0.77486  0.46166  Biso   1.000  O
  O448     1.0000 0.67794  0.42626  0.76440  Biso   1.000  O
  O449     1.0000 0.65627  0.43646  0.75603  Biso   1.000  O
  O450     1.0000 0.66350  0.47136  0.84631  Biso   1.000  O
  O451     1.0000 0.64803  0.48067  0.86398  Biso   1.000  O
  O452     1.0000 0.64683  0.39715  0.88058  Biso   1.000  O
  O453     1.0000 0.62272  0.40444  0.87842  Biso   1.000  O
  O454     1.0000 0.05047  0.43785  0.32703  Biso   1.000  O
  O455     1.0000 0.09806  0.38945  0.37475  Biso   1.000  O
  O456     1.0000 0.56062  0.47561  0.79818  Biso   1.000  O
  O457     1.0000 0.56172  0.46163  0.81938  Biso   1.000  O
  O458     1.0000 0.63293  0.50713  0.82422  Biso   1.000  O
  O459     1.0000 0.63012  0.49014  0.84294  Biso   1.000  O
  O460     1.0000 0.89341  0.91398  0.82499  Biso   1.000  O
  O461     1.0000 0.43239  0.29827  0.02199  Biso   1.000  O
  O462     1.0000 0.41651  0.31613  0.94596  Biso   1.000  O
  O463     1.0000 0.53507  0.27302  0.93541  Biso   1.000  O
  O464     1.0000 0.53126  0.27443  0.96056  Biso   1.000  O
  O465     1.0000 0.67862  0.92482  0.26597  Biso   1.000  O
  O466     1.0000 0.65690  0.93513  0.25765  Biso   1.000  O
  O467     1.0000 0.66458  0.97135  0.34658  Biso   1.000  O
  O468     1.0000 0.64806  0.98067  0.36340  Biso   1.000  O
  O469     1.0000 0.64537  0.89531  0.36881  Biso   1.000  O
  O470     1.0000 0.62977  0.90339  0.38690  Biso   1.000  O
  O471     1.0000 0.04851  0.93776  0.82688  Biso   1.000  O
  O472     1.0000 0.09712  0.88934  0.87430  Biso   1.000  O
  O473     1.0000 0.56156  0.97635  0.29785  Biso   1.000  O
  O474     1.0000 0.56341  0.96163  0.31844  Biso   1.000  O
  O475     1.0000 0.63422  0.00703  0.32331  Biso   1.000  O
  O476     1.0000 0.63034  0.99055  0.34232  Biso   1.000  O
  O477     1.0000 0.35442  0.83998  0.31357  Biso   1.000  O
  O478     1.0000 0.81850  0.45121  0.52184  Biso   1.000  O
  O479     1.0000 0.84052  0.42100  0.44921  Biso   1.000  O
  O480     1.0000 0.71322  0.47670  0.43666  Biso   1.000  O
  O481     1.0000 0.71760  0.47573  0.46167  Biso   1.000  O
  O482     1.0000 0.58118  0.82927  0.77312  Biso   1.000  O
  O483     1.0000 0.58538  0.81312  0.75417  Biso   1.000  O
  O484     1.0000 0.58534  0.77541  0.85771  Biso   1.000  O
  O485     1.0000 0.61025  0.77053  0.85514  Biso   1.000  O
  O486     1.0000 0.60654  0.85396  0.86877  Biso   1.000  O
  O487     1.0000 0.62287  0.84618  0.88675  Biso   1.000  O
  O488     1.0000 0.20194  0.81057  0.32697  Biso   1.000  O
  O489     1.0000 0.14661  0.85240  0.37064  Biso   1.000  O
  O490     1.0000 0.69033  0.77184  0.79558  Biso   1.000  O
  O491     1.0000 0.68760  0.78546  0.81690  Biso   1.000  O
  O492     1.0000 0.61300  0.75114  0.82027  Biso   1.000  O
  O493     1.0000 0.62389  0.74721  0.84284  Biso   1.000  O
  O494     1.0000 0.35488  0.33798  0.82489  Biso   1.000  O
  O495     1.0000 0.81930  0.95034  0.02250  Biso   1.000  O
  O496     1.0000 0.84084  0.92255  0.94931  Biso   1.000  O
  O497     1.0000 0.71483  0.97615  0.93683  Biso   1.000  O
  O498     1.0000 0.71810  0.97526  0.96205  Biso   1.000  O
  O499     1.0000 0.57840  0.32671  0.27299  Biso   1.000  O
  O500     1.0000 0.58272  0.31090  0.25350  Biso   1.000  O
  O501     1.0000 0.58633  0.27893  0.34726  Biso   1.000  O
  O502     1.0000 0.60202  0.27047  0.36523  Biso   1.000  O
  O503     1.0000 0.60487  0.35563  0.36771  Biso   1.000  O
  O504     1.0000 0.62013  0.34764  0.38634  Biso   1.000  O
  O505     1.0000 0.19945  0.31245  0.82656  Biso   1.000  O
  O506     1.0000 0.15255  0.36135  0.87319  Biso   1.000  O
  O507     1.0000 0.69060  0.27205  0.29996  Biso   1.000  O
  O508     1.0000 0.68859  0.28701  0.32037  Biso   1.000  O
  O509     1.0000 0.61704  0.24260  0.32643  Biso   1.000  O
  O510     1.0000 0.62017  0.25977  0.34498  Biso   1.000  O
  O511     1.0000 0.85318  0.84077  0.81425  Biso   1.000  O
  O512     1.0000 0.31877  0.45011  0.02302  Biso   1.000  O
  O513     1.0000 0.33422  0.43190  0.94901  Biso   1.000  O
  O514     1.0000 0.21466  0.47715  0.93709  Biso   1.000  O
  O515     1.0000 0.21955  0.47425  0.96177  Biso   1.000  O
  O516     1.0000 0.08085  0.83046  0.27249  Biso   1.000  O
  O517     1.0000 0.08392  0.81389  0.25360  Biso   1.000  O
  O518     1.0000 0.08410  0.77584  0.35717  Biso   1.000  O
  O519     1.0000 0.10902  0.77084  0.35477  Biso   1.000  O
  O520     1.0000 0.10651  0.85441  0.36773  Biso   1.000  O
  O521     1.0000 0.12235  0.84635  0.38603  Biso   1.000  O
  O522     1.0000 0.70072  0.81017  0.82632  Biso   1.000  O
  O523     1.0000 0.64665  0.85232  0.87080  Biso   1.000  O
  O524     1.0000 0.19070  0.77094  0.29829  Biso   1.000  O
  O525     1.0000 0.18866  0.78540  0.31908  Biso   1.000  O
  O526     1.0000 0.11218  0.75198  0.31991  Biso   1.000  O
  O527     1.0000 0.12259  0.74751  0.34257  Biso   1.000  O
  O528     1.0000 0.85467  0.33852  0.31393  Biso   1.000  O
  O529     1.0000 0.31910  0.94956  0.52226  Biso   1.000  O
  O530     1.0000 0.34084  0.92201  0.44900  Biso   1.000  O
  O531     1.0000 0.21555  0.97506  0.43729  Biso   1.000  O
  O532     1.0000 0.21870  0.97433  0.46254  Biso   1.000  O
  O533     1.0000 0.07912  0.32702  0.77291  Biso   1.000  O
  O534     1.0000 0.08279  0.31148  0.75312  Biso   1.000  O
  O535     1.0000 0.08593  0.27976  0.84659  Biso   1.000  O
  O536     1.0000 0.10165  0.27120  0.86452  Biso   1.000  O
  O537     1.0000 0.10318  0.35550  0.87817  Biso   1.000  O
  O538     1.0000 0.12720  0.34692  0.87689  Biso   1.000  O
  O539     1.0000 0.70131  0.31264  0.32722  Biso   1.000  O
  O540     1.0000 0.64464  0.35300  0.37097  Biso   1.000  O
  O541     1.0000 0.18951  0.27129  0.79948  Biso   1.000  O
  O542     1.0000 0.18659  0.28744  0.81865  Biso   1.000  O
  O543     1.0000 0.11629  0.24222  0.82621  Biso   1.000  O
  O544     1.0000 0.11965  0.25964  0.84449  Biso   1.000  O
  O545     1.0000 0.93800  0.85360  0.91112  Biso   1.000  O
  O546     1.0000 0.72229  0.32336  0.30842  Biso   1.000  O
  O547     1.0000 0.80391  0.33600  0.31430  Biso   1.000  O
  O548     1.0000 0.81362  0.22283  0.28282  Biso   1.000  O
  O549     1.0000 0.79548  0.21005  0.27069  Biso   1.000  O
  O550     1.0000 0.47718  0.07677  0.92187  Biso   1.000  O
  O551     1.0000 0.49636  0.08245  0.93767  Biso   1.000  O
  O552     1.0000 0.40311  0.08534  0.97200  Biso   1.000  O
  O553     1.0000 0.38557  0.10106  0.98117  Biso   1.000  O
  O554     1.0000 0.38131  0.10393  0.89530  Biso   1.000  O
  O555     1.0000 0.36303  0.11950  0.90354  Biso   1.000  O
  O556     1.0000 0.92490  0.69245  0.94353  Biso   1.000  O
  O557     1.0000 0.87946  0.64379  0.89738  Biso   1.000  O
  O558     1.0000 0.45378  0.18316  0.96932  Biso   1.000  O
  O559     1.0000 0.43136  0.19497  0.97116  Biso   1.000  O
  O560     1.0000 0.42549  0.11743  0.00658  Biso   1.000  O
  O561     1.0000 0.40603  0.12004  0.99033  Biso   1.000  O
  O562     1.0000 0.93715  0.35403  0.41054  Biso   1.000  O
  O563     1.0000 0.72291  0.82131  0.80966  Biso   1.000  O
  O564     1.0000 0.80298  0.83426  0.81643  Biso   1.000  O
  O565     1.0000 0.81391  0.71448  0.77362  Biso   1.000  O
  O566     1.0000 0.78869  0.71770  0.77499  Biso   1.000  O
  O567     1.0000 0.48491  0.57331  0.42632  Biso   1.000  O
  O568     1.0000 0.49370  0.59482  0.43666  Biso   1.000  O
  O569     1.0000 0.40347  0.58592  0.47152  Biso   1.000  O
  O570     1.0000 0.38563  0.60137  0.48072  Biso   1.000  O
  O571     1.0000 0.38128  0.60427  0.39512  Biso   1.000  O
  O572     1.0000 0.36327  0.62018  0.40294  Biso   1.000  O
  O573     1.0000 0.92530  0.19284  0.44368  Biso   1.000  O
  O574     1.0000 0.87999  0.14319  0.39872  Biso   1.000  O
  O575     1.0000 0.45360  0.68311  0.47150  Biso   1.000  O
  O576     1.0000 0.43169  0.69560  0.47410  Biso   1.000  O
  O577     1.0000 0.42434  0.61730  0.50806  Biso   1.000  O
  O578     1.0000 0.40520  0.62018  0.49151  Biso   1.000  O
  O579     1.0000 0.43800  0.85337  0.40980  Biso   1.000  O
  O580     1.0000 0.22126  0.32266  0.80771  Biso   1.000  O
  O581     1.0000 0.29927  0.34147  0.82549  Biso   1.000  O
  O582     1.0000 0.31148  0.22367  0.78267  Biso   1.000  O
  O583     1.0000 0.29365  0.21024  0.77072  Biso   1.000  O
  O584     1.0000 0.98500  0.07135  0.42608  Biso   1.000  O
  O585     1.0000 0.99311  0.09326  0.43579  Biso   1.000  O
  O586     1.0000 0.90386  0.08570  0.47182  Biso   1.000  O
  O587     1.0000 0.88596  0.10120  0.48074  Biso   1.000  O
  O588     1.0000 0.88137  0.10349  0.39540  Biso   1.000  O
  O589     1.0000 0.86355  0.11941  0.40388  Biso   1.000  O
  O590     1.0000 0.42515  0.69317  0.44517  Biso   1.000  O
  O591     1.0000 0.38012  0.64399  0.39848  Biso   1.000  O
  O592     1.0000 0.95432  0.18298  0.46953  Biso   1.000  O
  O593     1.0000 0.93225  0.19517  0.47232  Biso   1.000  O
  O594     1.0000 0.92520  0.11753  0.50728  Biso   1.000  O
  O595     1.0000 0.90620  0.12014  0.49046  Biso   1.000  O
  O596     1.0000 0.43767  0.35374  0.91020  Biso   1.000  O
  O597     1.0000 0.22327  0.82124  0.30867  Biso   1.000  O
  O598     1.0000 0.30402  0.83464  0.31532  Biso   1.000  O
  O599     1.0000 0.31541  0.71518  0.27335  Biso   1.000  O
  O600     1.0000 0.29023  0.71849  0.27495  Biso   1.000  O
  O601     1.0000 0.98458  0.57236  0.92658  Biso   1.000  O
  O602     1.0000 0.99247  0.59421  0.93700  Biso   1.000  O
  O603     1.0000 0.90190  0.58540  0.97208  Biso   1.000  O
  O604     1.0000 0.88494  0.60183  0.98130  Biso   1.000  O
  O605     1.0000 0.88115  0.60431  0.89602  Biso   1.000  O
  O606     1.0000 0.86285  0.62014  0.90327  Biso   1.000  O
  O607     1.0000 0.42513  0.19242  0.94238  Biso   1.000  O
  O608     1.0000 0.37909  0.14349  0.89791  Biso   1.000  O
  O609     1.0000 0.95376  0.68292  0.96931  Biso   1.000  O
  O610     1.0000 0.93137  0.69442  0.97250  Biso   1.000  O
  O611     1.0000 0.92480  0.61670  0.00756  Biso   1.000  O
  O612     1.0000 0.90540  0.62019  0.99137  Biso   1.000  O
  O613     1.0000 0.42573  0.89433  0.33682  Biso   1.000  O
  O614     1.0000 0.22263  0.42785  0.94011  Biso   1.000  O
  O615     1.0000 0.30256  0.41265  0.93504  Biso   1.000  O
  O616     1.0000 0.31311  0.52660  0.96890  Biso   1.000  O
  O617     1.0000 0.29562  0.54014  0.98119  Biso   1.000  O
  O618     1.0000 0.98470  0.67767  0.32502  Biso   1.000  O
  O619     1.0000 0.99219  0.65598  0.31414  Biso   1.000  O
  O620     1.0000 0.89353  0.66526  0.27651  Biso   1.000  O
  O621     1.0000 0.89622  0.64025  0.27172  Biso   1.000  O
  O622     1.0000 0.88253  0.64477  0.35533  Biso   1.000  O
  O623     1.0000 0.86418  0.62927  0.34714  Biso   1.000  O
  O624     1.0000 0.42652  0.05892  0.30716  Biso   1.000  O
  O625     1.0000 0.37622  0.09685  0.36050  Biso   1.000  O
  O626     1.0000 0.95721  0.56763  0.28243  Biso   1.000  O
  O627     1.0000 0.93402  0.55789  0.27856  Biso   1.000  O
  O628     1.0000 0.93079  0.63824  0.25185  Biso   1.000  O
  O629     1.0000 0.90848  0.62665  0.24856  Biso   1.000  O
  O630     1.0000 0.43613  0.39861  0.83867  Biso   1.000  O
  O631     1.0000 0.22324  0.92606  0.44259  Biso   1.000  O
  O632     1.0000 0.30093  0.90862  0.42297  Biso   1.000  O
  O633     1.0000 0.31294  0.02620  0.46896  Biso   1.000  O
  O634     1.0000 0.29507  0.03930  0.48112  Biso   1.000  O
  O635     1.0000 0.98433  0.17870  0.82375  Biso   1.000  O
  O636     1.0000 0.99295  0.15781  0.81234  Biso   1.000  O
  O637     1.0000 0.89226  0.16786  0.77623  Biso   1.000  O
  O638     1.0000 0.89524  0.14311  0.77176  Biso   1.000  O
  O639     1.0000 0.86904  0.14585  0.85352  Biso   1.000  O
  O640     1.0000 0.87024  0.12179  0.84533  Biso   1.000  O
  O641     1.0000 0.42620  0.55871  0.80528  Biso   1.000  O
  O642     1.0000 0.37646  0.59637  0.85996  Biso   1.000  O
  O643     1.0000 0.95654  0.06866  0.78042  Biso   1.000  O
  O644     1.0000 0.93333  0.05856  0.77708  Biso   1.000  O
  O645     1.0000 0.92937  0.13963  0.75174  Biso   1.000  O
  O646     1.0000 0.90674  0.12858  0.74890  Biso   1.000  O
  O647     1.0000 0.92520  0.89475  0.83829  Biso   1.000  O
  O648     1.0000 0.72204  0.42780  0.44245  Biso   1.000  O
  O649     1.0000 0.79944  0.40932  0.42400  Biso   1.000  O
  O650     1.0000 0.81242  0.52637  0.46809  Biso   1.000  O
  O651     1.0000 0.79395  0.53953  0.47951  Biso   1.000  O
  O652     1.0000 0.48491  0.67859  0.82474  Biso   1.000  O
  O653     1.0000 0.49227  0.65699  0.81375  Biso   1.000  O
  O654     1.0000 0.39294  0.66746  0.77625  Biso   1.000  O
  O655     1.0000 0.39589  0.64267  0.77174  Biso   1.000  O
  O656     1.0000 0.37114  0.64588  0.85432  Biso   1.000  O
  O657     1.0000 0.37273  0.62190  0.84611  Biso   1.000  O
  O658     1.0000 0.92571  0.05945  0.80568  Biso   1.000  O
  O659     1.0000 0.87501  0.09673  0.85963  Biso   1.000  O
  O660     1.0000 0.45738  0.56866  0.78085  Biso   1.000  O
  O661     1.0000 0.43433  0.55848  0.77674  Biso   1.000  O
  O662     1.0000 0.43025  0.63946  0.75147  Biso   1.000  O
  O663     1.0000 0.40756  0.62859  0.74853  Biso   1.000  O
  O664     1.0000 0.93817  0.39870  0.33892  Biso   1.000  O
  O665     1.0000 0.72340  0.92725  0.94166  Biso   1.000  O
  O666     1.0000 0.80105  0.90976  0.92273  Biso   1.000  O
  O667     1.0000 0.81303  0.02674  0.96981  Biso   1.000  O
  O668     1.0000 0.79488  0.03974  0.98169  Biso   1.000  O
  O669     1.0000 0.48434  0.17767  0.32366  Biso   1.000  O
  O670     1.0000 0.49308  0.15652  0.31265  Biso   1.000  O
  O671     1.0000 0.39264  0.16703  0.27620  Biso   1.000  O
  O672     1.0000 0.39513  0.14218  0.27188  Biso   1.000  O
  O673     1.0000 0.36990  0.14592  0.35405  Biso   1.000  O
  O674     1.0000 0.37129  0.12180  0.34601  Biso   1.000  O
  O675     1.0000 0.92711  0.55911  0.30734  Biso   1.000  O
  O676     1.0000 0.88006  0.60506  0.35327  Biso   1.000  O
  O677     1.0000 0.45614  0.06728  0.28064  Biso   1.000  O
  O678     1.0000 0.43287  0.05713  0.27822  Biso   1.000  O
  O679     1.0000 0.42908  0.13800  0.25163  Biso   1.000  O
  O680     1.0000 0.40626  0.12729  0.24902  Biso   1.000  O
  O681     1.0000 0.82284  0.39391  0.41122  Biso   1.000  O
  O682     1.0000 0.02731  0.92769  0.80850  Biso   1.000  O
  O683     1.0000 0.94911  0.90932  0.82578  Biso   1.000  O
  O684     1.0000 0.93734  0.02784  0.78023  Biso   1.000  O
  O685     1.0000 0.95549  0.04060  0.76818  Biso   1.000  O
  O686     1.0000 0.26500  0.17689  0.42549  Biso   1.000  O
  O687     1.0000 0.25697  0.15518  0.43585  Biso   1.000  O
  O688     1.0000 0.34586  0.16356  0.47110  Biso   1.000  O
  O689     1.0000 0.36247  0.14670  0.48040  Biso   1.000  O
  O690     1.0000 0.37969  0.14621  0.39639  Biso   1.000  O
  O691     1.0000 0.37783  0.12221  0.40428  Biso   1.000  O
  O692     1.0000 0.82373  0.55795  0.44232  Biso   1.000  O
  O693     1.0000 0.87051  0.60490  0.39756  Biso   1.000  O
  O694     1.0000 0.29436  0.06743  0.46920  Biso   1.000  O
  O695     1.0000 0.31743  0.05687  0.47209  Biso   1.000  O
  O696     1.0000 0.32381  0.13341  0.50923  Biso   1.000  O
  O697     1.0000 0.34260  0.12873  0.49251  Biso   1.000  O
  O698     1.0000 0.82553  0.89491  0.91076  Biso   1.000  O
  O699     1.0000 0.02817  0.42720  0.31026  Biso   1.000  O
  O700     1.0000 0.94784  0.41742  0.31704  Biso   1.000  O
  O701     1.0000 0.93696  0.52711  0.28127  Biso   1.000  O
  O702     1.0000 0.95557  0.53969  0.26962  Biso   1.000  O
  O703     1.0000 0.26547  0.67636  0.92606  Biso   1.000  O
  O704     1.0000 0.25690  0.65444  0.93551  Biso   1.000  O
  O705     1.0000 0.34659  0.66290  0.97089  Biso   1.000  O
  O706     1.0000 0.36430  0.64767  0.98052  Biso   1.000  O
  O707     1.0000 0.38104  0.64544  0.89664  Biso   1.000  O
  O708     1.0000 0.38022  0.62135  0.90479  Biso   1.000  O
  O709     1.0000 0.82467  0.05822  0.94393  Biso   1.000  O
  O710     1.0000 0.87443  0.09656  0.88943  Biso   1.000  O
  O711     1.0000 0.29534  0.56827  0.96892  Biso   1.000  O
  O712     1.0000 0.31798  0.55711  0.97218  Biso   1.000  O
  O713     1.0000 0.32577  0.63351  0.00908  Biso   1.000  O
  O714     1.0000 0.34469  0.62923  0.99242  Biso   1.000  O
  O715     1.0000 0.31341  0.39596  0.91184  Biso   1.000  O
  O716     1.0000 0.52739  0.92727  0.30862  Biso   1.000  O
  O717     1.0000 0.44950  0.91027  0.32588  Biso   1.000  O
  O718     1.0000 0.43654  0.02646  0.28203  Biso   1.000  O
  O719     1.0000 0.45458  0.03872  0.26924  Biso   1.000  O
  O720     1.0000 0.76420  0.17683  0.92577  Biso   1.000  O
  O721     1.0000 0.75634  0.15514  0.93606  Biso   1.000  O
  O722     1.0000 0.84638  0.16310  0.96999  Biso   1.000  O
  O723     1.0000 0.86261  0.14591  0.97935  Biso   1.000  O
  O724     1.0000 0.87989  0.14591  0.89548  Biso   1.000  O
  O725     1.0000 0.87792  0.12192  0.90340  Biso   1.000  O
  O726     1.0000 0.32458  0.55834  0.94342  Biso   1.000  O
  O727     1.0000 0.37528  0.59643  0.89016  Biso   1.000  O
  O728     1.0000 0.79430  0.06787  0.96978  Biso   1.000  O
  O729     1.0000 0.81742  0.05742  0.97272  Biso   1.000  O
  O730     1.0000 0.82472  0.13413  0.00963  Biso   1.000  O
  O731     1.0000 0.84286  0.12887  0.99259  Biso   1.000  O
  O732     1.0000 0.32534  0.89434  0.41041  Biso   1.000  O
  O733     1.0000 0.52766  0.42596  0.80957  Biso   1.000  O
  O734     1.0000 0.44575  0.41689  0.81614  Biso   1.000  O
  O735     1.0000 0.43823  0.52767  0.77905  Biso   1.000  O
  O736     1.0000 0.45647  0.54097  0.76769  Biso   1.000  O
  O737     1.0000 0.76598  0.67893  0.42596  Biso   1.000  O
  O738     1.0000 0.75767  0.65687  0.43546  Biso   1.000  O
  O739     1.0000 0.84505  0.66371  0.47196  Biso   1.000  O
  O740     1.0000 0.86242  0.64770  0.48071  Biso   1.000  O
  O741     1.0000 0.86916  0.64508  0.39547  Biso   1.000  O
  O742     1.0000 0.88657  0.62876  0.40416  Biso   1.000  O
  O743     1.0000 0.32455  0.05780  0.44335  Biso   1.000  O
  O744     1.0000 0.37497  0.09674  0.39025  Biso   1.000  O
  O745     1.0000 0.79406  0.56763  0.46726  Biso   1.000  O
  O746     1.0000 0.81683  0.55684  0.47099  Biso   1.000  O
  O747     1.0000 0.82326  0.63352  0.50834  Biso   1.000  O
  O748     1.0000 0.84190  0.62949  0.49144  Biso   1.000  O
  O749     1.0000 0.32319  0.35662  0.83743  Biso   1.000  O
  O750     1.0000 0.52893  0.82291  0.44074  Biso   1.000  O
  O751     1.0000 0.44903  0.83605  0.43252  Biso   1.000  O
  O752     1.0000 0.43756  0.72550  0.46967  Biso   1.000  O
  O753     1.0000 0.45449  0.71186  0.48287  Biso   1.000  O
  O754     1.0000 0.76543  0.57185  0.82466  Biso   1.000  O
  O755     1.0000 0.75807  0.59396  0.81475  Biso   1.000  O
  O756     1.0000 0.84668  0.58520  0.77913  Biso   1.000  O
  O757     1.0000 0.86461  0.60074  0.77039  Biso   1.000  O
  O758     1.0000 0.86878  0.60354  0.85565  Biso   1.000  O
  O759     1.0000 0.88674  0.61931  0.84715  Biso   1.000  O
  O760     1.0000 0.32287  0.19199  0.80838  Biso   1.000  O
  O761     1.0000 0.36980  0.14408  0.85329  Biso   1.000  O
  O762     1.0000 0.79900  0.68892  0.77325  Biso   1.000  O
  O763     1.0000 0.81950  0.68740  0.78799  Biso   1.000  O
  O764     1.0000 0.82550  0.61662  0.74315  Biso   1.000  O
  O765     1.0000 0.84426  0.61953  0.76024  Biso   1.000  O
  O766     1.0000 0.31289  0.85289  0.33814  Biso   1.000  O
  O767     1.0000 0.52878  0.32229  0.93999  Biso   1.000  O
  O768     1.0000 0.44872  0.33490  0.93158  Biso   1.000  O
  O769     1.0000 0.43676  0.22513  0.96688  Biso   1.000  O
  O770     1.0000 0.45391  0.21167  0.97969  Biso   1.000  O
  O771     1.0000 0.76578  0.07299  0.32451  Biso   1.000  O
  O772     1.0000 0.75717  0.09461  0.31411  Biso   1.000  O
  O773     1.0000 0.84706  0.08635  0.27917  Biso   1.000  O
  O774     1.0000 0.86470  0.10216  0.27004  Biso   1.000  O
  O775     1.0000 0.86895  0.10487  0.35507  Biso   1.000  O
  O776     1.0000 0.88736  0.12062  0.34782  Biso   1.000  O
  O777     1.0000 0.32933  0.70132  0.31194  Biso   1.000  O
  O778     1.0000 0.37210  0.64584  0.35392  Biso   1.000  O
  O779     1.0000 0.79370  0.18204  0.28308  Biso   1.000  O
  O780     1.0000 0.81682  0.19220  0.28012  Biso   1.000  O
  O781     1.0000 0.82584  0.11704  0.24260  Biso   1.000  O
  O782     1.0000 0.84502  0.12082  0.25908  Biso   1.000  O
  O783     1.0000 0.81308  0.35370  0.33741  Biso   1.000  O
  O784     1.0000 0.02911  0.82170  0.94070  Biso   1.000  O
  O785     1.0000 0.94885  0.83587  0.93369  Biso   1.000  O
  O786     1.0000 0.93596  0.72470  0.96888  Biso   1.000  O
  O787     1.0000 0.95367  0.71132  0.98116  Biso   1.000  O
  O788     1.0000 0.26576  0.57242  0.32535  Biso   1.000  O
  O789     1.0000 0.25831  0.59391  0.31420  Biso   1.000  O
  O790     1.0000 0.35840  0.58299  0.27582  Biso   1.000  O
  O791     1.0000 0.35669  0.60792  0.27105  Biso   1.000  O
  O792     1.0000 0.36914  0.60545  0.35450  Biso   1.000  O
  O793     1.0000 0.38723  0.62161  0.34696  Biso   1.000  O
  O794     1.0000 0.82338  0.19086  0.30878  Biso   1.000  O
  O795     1.0000 0.87129  0.14450  0.35407  Biso   1.000  O
  O796     1.0000 0.30028  0.68961  0.27288  Biso   1.000  O
  O797     1.0000 0.32115  0.68781  0.28719  Biso   1.000  O
  O798     1.0000 0.32195  0.61276  0.25208  Biso   1.000  O
  O799     1.0000 0.34502  0.62255  0.24826  Biso   1.000  O
  O800     1.0000 0.81168  0.85224  0.83944  Biso   1.000  O
  O801     1.0000 0.02879  0.32226  0.44008  Biso   1.000  O
  O802     1.0000 0.94892  0.33581  0.43201  Biso   1.000  O
  O803     1.0000 0.93780  0.22519  0.46814  Biso   1.000  O
  O804     1.0000 0.95522  0.21149  0.48041  Biso   1.000  O
  O805     1.0000 0.26514  0.07189  0.82473  Biso   1.000  O
  O806     1.0000 0.25785  0.09449  0.81577  Biso   1.000  O
  O807     1.0000 0.34635  0.08536  0.77890  Biso   1.000  O
  O808     1.0000 0.36350  0.10153  0.76969  Biso   1.000  O
  O809     1.0000 0.36891  0.10417  0.85486  Biso   1.000  O
  O810     1.0000 0.38655  0.12060  0.84722  Biso   1.000  O
  O811     1.0000 0.82816  0.70131  0.81216  Biso   1.000  O
  O812     1.0000 0.87046  0.64317  0.85289  Biso   1.000  O
  O813     1.0000 0.29313  0.18218  0.78280  Biso   1.000  O
  O814     1.0000 0.31604  0.19315  0.77985  Biso   1.000  O
  O815     1.0000 0.32373  0.11702  0.74348  Biso   1.000  O
  O816     1.0000 0.34289  0.11988  0.76011  Biso   1.000  O
  O817     1.0000 0.91314  0.92750  0.85655  Biso   1.000  O
  O818     1.0000 0.31155  0.72298  0.32241  Biso   1.000  O
  O819     1.0000 0.31907  0.80193  0.33534  Biso   1.000  O
  O820     1.0000 0.27553  0.81494  0.21580  Biso   1.000  O
  O821     1.0000 0.27524  0.78970  0.21831  Biso   1.000  O
  O822     1.0000 0.92200  0.47657  0.07811  Biso   1.000  O
  O823     1.0000 0.93763  0.49593  0.08257  Biso   1.000  O
  O824     1.0000 0.97129  0.40269  0.08705  Biso   1.000  O
  O825     1.0000 0.97997  0.38596  0.10401  Biso   1.000  O
  O826     1.0000 0.89453  0.38167  0.10567  Biso   1.000  O
  O827     1.0000 0.90273  0.36322  0.12105  Biso   1.000  O
  O828     1.0000 0.94381  0.92705  0.69061  Biso   1.000  O
  O829     1.0000 0.89855  0.87924  0.64381  Biso   1.000  O
  O830     1.0000 0.97095  0.45616  0.18400  Biso   1.000  O
  O831     1.0000 0.97204  0.43296  0.19467  Biso   1.000  O
  O832     1.0000 0.00821  0.42479  0.11773  Biso   1.000  O
  O833     1.0000 0.99144  0.40608  0.12161  Biso   1.000  O
  O834     1.0000 0.90986  0.43687  0.35378  Biso   1.000  O
  O835     1.0000 0.29766  0.22799  0.81920  Biso   1.000  O
  O836     1.0000 0.32395  0.30087  0.83987  Biso   1.000  O
  O837     1.0000 0.28057  0.31006  0.72403  Biso   1.000  O
  O838     1.0000 0.26836  0.29223  0.71082  Biso   1.000  O
  O839     1.0000 0.92101  0.97776  0.57822  Biso   1.000  O
  O840     1.0000 0.93662  0.99715  0.58268  Biso   1.000  O
  O841     1.0000 0.97436  0.89448  0.58431  Biso   1.000  O
  O842     1.0000 0.97946  0.89729  0.60929  Biso   1.000  O
  O843     1.0000 0.89616  0.88084  0.60465  Biso   1.000  O
  O844     1.0000 0.90442  0.86264  0.62020  Biso   1.000  O
  O845     1.0000 0.94335  0.42636  0.19216  Biso   1.000  O
  O846     1.0000 0.89681  0.37909  0.14510  Biso   1.000  O
  O847     1.0000 0.96829  0.95796  0.68262  Biso   1.000  O
  O848     1.0000 0.97224  0.93466  0.69180  Biso   1.000  O
  O849     1.0000 0.99930  0.93214  0.61084  Biso   1.000  O
  O850     1.0000 0.00321  0.90980  0.62220  Biso   1.000  O
  O851     1.0000 0.41201  0.92607  0.35613  Biso   1.000  O
  O852     1.0000 0.81022  0.72325  0.82243  Biso   1.000  O
  O853     1.0000 0.81893  0.80159  0.83583  Biso   1.000  O
  O854     1.0000 0.78294  0.81513  0.72372  Biso   1.000  O
  O855     1.0000 0.77094  0.79637  0.71154  Biso   1.000  O
  O856     1.0000 0.42150  0.47703  0.57857  Biso   1.000  O
  O857     1.0000 0.43734  0.49617  0.58300  Biso   1.000  O
  O858     1.0000 0.47018  0.40182  0.58785  Biso   1.000  O
  O859     1.0000 0.47941  0.38521  0.60468  Biso   1.000  O
  O860     1.0000 0.39415  0.38191  0.60687  Biso   1.000  O
  O861     1.0000 0.40164  0.36301  0.62191  Biso   1.000  O
  O862     1.0000 0.43990  0.92341  0.19878  Biso   1.000  O
  O863     1.0000 0.39837  0.87875  0.14356  Biso   1.000  O
  O864     1.0000 0.47043  0.45415  0.68313  Biso   1.000  O
  O865     1.0000 0.47219  0.43184  0.69504  Biso   1.000  O
  O866     1.0000 0.50819  0.42418  0.61714  Biso   1.000  O
  O867     1.0000 0.49141  0.40559  0.62182  Biso   1.000  O
  O868     1.0000 0.40995  0.43799  0.85394  Biso   1.000  O
  O869     1.0000 0.79950  0.22719  0.32046  Biso   1.000  O
  O870     1.0000 0.81661  0.30251  0.33500  Biso   1.000  O
  O871     1.0000 0.78169  0.31071  0.22471  Biso   1.000  O
  O872     1.0000 0.76964  0.29248  0.21210  Biso   1.000  O
  O873     1.0000 0.42108  0.97734  0.07853  Biso   1.000  O
  O874     1.0000 0.43663  0.99640  0.08438  Biso   1.000  O
  O875     1.0000 0.47474  0.89367  0.08425  Biso   1.000  O
  O876     1.0000 0.48015  0.89599  0.10926  Biso   1.000  O
  O877     1.0000 0.39651  0.88086  0.10425  Biso   1.000  O
  O878     1.0000 0.40429  0.86237  0.11969  Biso   1.000  O
  O879     1.0000 0.44299  0.42641  0.69207  Biso   1.000  O
  O880     1.0000 0.39578  0.37928  0.64576  Biso   1.000  O
  O881     1.0000 0.47792  0.95427  0.18872  Biso   1.000  O
  O882     1.0000 0.46480  0.93256  0.18611  Biso   1.000  O
  O883     1.0000 0.49982  0.93105  0.11115  Biso   1.000  O
  O884     1.0000 0.50394  0.90850  0.12202  Biso   1.000  O
  O885     1.0000 0.33861  0.43690  0.89903  Biso   1.000  O
  O886     1.0000 0.95165  0.22759  0.43190  Biso   1.000  O
  O887     1.0000 0.93364  0.30352  0.41361  Biso   1.000  O
  O888     1.0000 0.97024  0.31294  0.52536  Biso   1.000  O
  O889     1.0000 0.98312  0.29531  0.53822  Biso   1.000  O
  O890     1.0000 0.32317  0.98457  0.67839  Biso   1.000  O
  O891     1.0000 0.31332  0.99238  0.65625  Biso   1.000  O
  O892     1.0000 0.27592  0.89170  0.66741  Biso   1.000  O
  O893     1.0000 0.27185  0.89432  0.64253  Biso   1.000  O
  O894     1.0000 0.35379  0.86886  0.64698  Biso   1.000  O
  O895     1.0000 0.34607  0.87148  0.62294  Biso   1.000  O
  O896     1.0000 0.30662  0.42725  0.05996  Biso   1.000  O
  O897     1.0000 0.35305  0.37856  0.10474  Biso   1.000  O
  O898     1.0000 0.28199  0.95597  0.56759  Biso   1.000  O
  O899     1.0000 0.27915  0.93279  0.55723  Biso   1.000  O
  O900     1.0000 0.25184  0.92849  0.63772  Biso   1.000  O
  O901     1.0000 0.24951  0.90555  0.62718  Biso   1.000  O
  O902     1.0000 0.33826  0.92691  0.39364  Biso   1.000  O
  O903     1.0000 0.95047  0.72767  0.93187  Biso   1.000  O
  O904     1.0000 0.93374  0.80340  0.91599  Biso   1.000  O
  O905     1.0000 0.96933  0.81343  0.02616  Biso   1.000  O
  O906     1.0000 0.98145  0.79455  0.03804  Biso   1.000  O
  O907     1.0000 0.32806  0.47744  0.17239  Biso   1.000  O
  O908     1.0000 0.31250  0.49667  0.16700  Biso   1.000  O
  O909     1.0000 0.27646  0.39260  0.16570  Biso   1.000  O
  O910     1.0000 0.27151  0.39470  0.14065  Biso   1.000  O
  O911     1.0000 0.35430  0.38021  0.14403  Biso   1.000  O
  O912     1.0000 0.34753  0.36167  0.12831  Biso   1.000  O
  O913     1.0000 0.30757  0.92518  0.55850  Biso   1.000  O
  O914     1.0000 0.36095  0.87602  0.59784  Biso   1.000  O
  O915     1.0000 0.28082  0.45681  0.06729  Biso   1.000  O
  O916     1.0000 0.27786  0.43348  0.05764  Biso   1.000  O
  O917     1.0000 0.25165  0.42994  0.13829  Biso   1.000  O
  O918     1.0000 0.24829  0.40737  0.12715  Biso   1.000  O
  O919     1.0000 0.83691  0.42581  0.39440  Biso   1.000  O
  O920     1.0000 0.45164  0.22690  0.93053  Biso   1.000  O
  O921     1.0000 0.43396  0.30307  0.91239  Biso   1.000  O
  O922     1.0000 0.46869  0.31246  0.02458  Biso   1.000  O
  O923     1.0000 0.48149  0.29473  0.03734  Biso   1.000  O
  O924     1.0000 0.82443  0.98427  0.17928  Biso   1.000  O
  O925     1.0000 0.81354  0.99190  0.15762  Biso   1.000  O
  O926     1.0000 0.77916  0.90117  0.16432  Biso   1.000  O
  O927     1.0000 0.76918  0.88428  0.14826  Biso   1.000  O
  O928     1.0000 0.85398  0.87890  0.14543  Biso   1.000  O
  O929     1.0000 0.84732  0.86088  0.12907  Biso   1.000  O
  O930     1.0000 0.80748  0.42754  0.55863  Biso   1.000  O
  O931     1.0000 0.85331  0.37898  0.60324  Biso   1.000  O
  O932     1.0000 0.78146  0.95517  0.06739  Biso   1.000  O
  O933     1.0000 0.77846  0.93247  0.05639  Biso   1.000  O
  O934     1.0000 0.74370  0.92484  0.13363  Biso   1.000  O
  O935     1.0000 0.75931  0.90493  0.12987  Biso   1.000  O
  O936     1.0000 0.83954  0.92685  0.89412  Biso   1.000  O
  O937     1.0000 0.45199  0.72739  0.43288  Biso   1.000  O
  O938     1.0000 0.43437  0.80332  0.41510  Biso   1.000  O
  O939     1.0000 0.47810  0.81591  0.53542  Biso   1.000  O
  O940     1.0000 0.47703  0.79076  0.53155  Biso   1.000  O
  O941     1.0000 0.82809  0.47727  0.67075  Biso   1.000  O
  O942     1.0000 0.81189  0.49618  0.66582  Biso   1.000  O
  O943     1.0000 0.77582  0.39186  0.66452  Biso   1.000  O
  O944     1.0000 0.77078  0.39414  0.63956  Biso   1.000  O
  O945     1.0000 0.85354  0.38067  0.64248  Biso   1.000  O
  O946     1.0000 0.84722  0.36204  0.62668  Biso   1.000  O
  O947     1.0000 0.80714  0.92658  0.05885  Biso   1.000  O
  O948     1.0000 0.85331  0.87873  0.10603  Biso   1.000  O
  O949     1.0000 0.78204  0.45668  0.56748  Biso   1.000  O
  O950     1.0000 0.77869  0.43365  0.55723  Biso   1.000  O
  O951     1.0000 0.75130  0.42936  0.63742  Biso   1.000  O
  O952     1.0000 0.74759  0.40692  0.62621  Biso   1.000  O
  O953     1.0000 0.41088  0.81320  0.39823  Biso   1.000  O
  O954     1.0000 0.79944  0.02214  0.93383  Biso   1.000  O
  O955     1.0000 0.82676  0.95021  0.91046  Biso   1.000  O
  O956     1.0000 0.78216  0.93617  0.02621  Biso   1.000  O
  O957     1.0000 0.77018  0.95485  0.03865  Biso   1.000  O
  O958     1.0000 0.42130  0.27154  0.17001  Biso   1.000  O
  O959     1.0000 0.43708  0.25237  0.16459  Biso   1.000  O
  O960     1.0000 0.47102  0.34574  0.16289  Biso   1.000  O
  O961     1.0000 0.48019  0.36274  0.14636  Biso   1.000  O
  O962     1.0000 0.39522  0.36896  0.14497  Biso   1.000  O
  O963     1.0000 0.40290  0.38688  0.12890  Biso   1.000  O
  O964     1.0000 0.43967  0.82891  0.55009  Biso   1.000  O
  O965     1.0000 0.39111  0.87484  0.59890  Biso   1.000  O
  O966     1.0000 0.47104  0.29475  0.06607  Biso   1.000  O
  O967     1.0000 0.47312  0.31757  0.05489  Biso   1.000  O
  O968     1.0000 0.50872  0.32420  0.13246  Biso   1.000  O
  O969     1.0000 0.49222  0.34313  0.12804  Biso   1.000  O
  O970     1.0000 0.41099  0.31409  0.89541  Biso   1.000  O
  O971     1.0000 0.79924  0.52122  0.43210  Biso   1.000  O
  O972     1.0000 0.82576  0.44929  0.41140  Biso   1.000  O
  O973     1.0000 0.78149  0.43679  0.52664  Biso   1.000  O
  O974     1.0000 0.76954  0.45528  0.53923  Biso   1.000  O
  O975     1.0000 0.42509  0.76529  0.67664  Biso   1.000  O
  O976     1.0000 0.43638  0.75660  0.65550  Biso   1.000  O
  O977     1.0000 0.47363  0.85696  0.66930  Biso   1.000  O
  O978     1.0000 0.47847  0.85646  0.64428  Biso   1.000  O
  O979     1.0000 0.39579  0.87971  0.64848  Biso   1.000  O
  O980     1.0000 0.40430  0.87849  0.62467  Biso   1.000  O
  O981     1.0000 0.44437  0.32417  0.05720  Biso   1.000  O
  O982     1.0000 0.39762  0.37020  0.10516  Biso   1.000  O
  O983     1.0000 0.47968  0.80043  0.56064  Biso   1.000  O
  O984     1.0000 0.46472  0.82073  0.56317  Biso   1.000  O
  O985     1.0000 0.49835  0.82169  0.63845  Biso   1.000  O
  O986     1.0000 0.50135  0.84520  0.62928  Biso   1.000  O
  O987     1.0000 0.91077  0.81389  0.89847  Biso   1.000  O
  O988     1.0000 0.29924  0.02179  0.43315  Biso   1.000  O
  O989     1.0000 0.32572  0.94971  0.41061  Biso   1.000  O
  O990     1.0000 0.28237  0.93660  0.52662  Biso   1.000  O
  O991     1.0000 0.27034  0.95500  0.53916  Biso   1.000  O
  O992     1.0000 0.92024  0.27251  0.66988  Biso   1.000  O
  O993     1.0000 0.93634  0.25343  0.66508  Biso   1.000  O
  O994     1.0000 0.96977  0.34727  0.66436  Biso   1.000  O
  O995     1.0000 0.97912  0.36430  0.64798  Biso   1.000  O
  O996     1.0000 0.89444  0.36976  0.64451  Biso   1.000  O
  O997     1.0000 0.90236  0.38771  0.62858  Biso   1.000  O
  O998     1.0000 0.94534  0.82428  0.05966  Biso   1.000  O
  O999     1.0000 0.89800  0.87155  0.10668  Biso   1.000  O
  O1000    1.0000 0.97237  0.29537  0.56693  Biso   1.000  O
  O1001    1.0000 0.97450  0.31810  0.55563  Biso   1.000  O
  O1002    1.0000 0.00756  0.32580  0.63389  Biso   1.000  O
  O1003    1.0000 0.99112  0.34480  0.62950  Biso   1.000  O
  O1004    1.0000 0.91018  0.31421  0.39745  Biso   1.000  O
  O1005    1.0000 0.29958  0.52206  0.93364  Biso   1.000  O
  O1006    1.0000 0.31608  0.44674  0.91700  Biso   1.000  O
  O1007    1.0000 0.28147  0.43591  0.02707  Biso   1.000  O
  O1008    1.0000 0.26914  0.45490  0.03857  Biso   1.000  O
  O1009    1.0000 0.92189  0.77153  0.17047  Biso   1.000  O
  O1010    1.0000 0.93768  0.75236  0.16497  Biso   1.000  O
  O1011    1.0000 0.97121  0.84549  0.16354  Biso   1.000  O
  O1012    1.0000 0.97997  0.86252  0.14688  Biso   1.000  O
  O1013    1.0000 0.89488  0.86827  0.14651  Biso   1.000  O
  O1014    1.0000 0.90242  0.88703  0.13135  Biso   1.000  O
  O1015    1.0000 0.94570  0.32452  0.55787  Biso   1.000  O
  O1016    1.0000 0.89789  0.37082  0.60476  Biso   1.000  O
  O1017    1.0000 0.97145  0.79448  0.06707  Biso   1.000  O
  O1018    1.0000 0.97402  0.81735  0.05628  Biso   1.000  O
  O1019    1.0000 0.00929  0.82424  0.13353  Biso   1.000  O
  O1020    1.0000 0.99238  0.84277  0.12889  Biso   1.000  O
  O1021    1.0000 0.83800  0.31389  0.35369  Biso   1.000  O
  O1022    1.0000 0.45056  0.52250  0.81580  Biso   1.000  O
  O1023    1.0000 0.43155  0.44870  0.83481  Biso   1.000  O
  O1024    1.0000 0.46738  0.43748  0.72503  Biso   1.000  O
  O1025    1.0000 0.48098  0.45430  0.71190  Biso   1.000  O
  O1026    1.0000 0.82778  0.77284  0.58006  Biso   1.000  O
  O1027    1.0000 0.81180  0.75374  0.58546  Biso   1.000  O
  O1028    1.0000 0.77885  0.84671  0.58743  Biso   1.000  O
  O1029    1.0000 0.77037  0.86373  0.60423  Biso   1.000  O
  O1030    1.0000 0.85584  0.86798  0.60462  Biso   1.000  O
  O1031    1.0000 0.84798  0.88608  0.62054  Biso   1.000  O
  O1032    1.0000 0.80657  0.32252  0.19236  Biso   1.000  O
  O1033    1.0000 0.85233  0.37005  0.14520  Biso   1.000  O
  O1034    1.0000 0.78284  0.79506  0.68298  Biso   1.000  O
  O1035    1.0000 0.77970  0.81806  0.69330  Biso   1.000  O
  O1036    1.0000 0.74092  0.82578  0.61774  Biso   1.000  O
  O1037    1.0000 0.75800  0.84408  0.62207  Biso   1.000  O
  O1038    1.0000 0.83986  0.81417  0.85420  Biso   1.000  O
  O1039    1.0000 0.45114  0.02286  0.31849  Biso   1.000  O
  O1040    1.0000 0.42384  0.94993  0.34117  Biso   1.000  O
  O1041    1.0000 0.47772  0.93747  0.21349  Biso   1.000  O
  O1042    1.0000 0.47537  0.96221  0.21874  Biso   1.000  O
  O1043    1.0000 0.82401  0.26582  0.07149  Biso   1.000  O
  O1044    1.0000 0.81282  0.25636  0.09240  Biso   1.000  O
  O1045    1.0000 0.77813  0.34615  0.08703  Biso   1.000  O
  O1046    1.0000 0.76923  0.36225  0.10448  Biso   1.000  O
  O1047    1.0000 0.85423  0.36866  0.10566  Biso   1.000  O
  O1048    1.0000 0.84660  0.38689  0.12137  Biso   1.000  O
  O1049    1.0000 0.80853  0.82400  0.69120  Biso   1.000  O
  O1050    1.0000 0.85412  0.87001  0.64452  Biso   1.000  O
  O1051    1.0000 0.78112  0.29174  0.18358  Biso   1.000  O
  O1052    1.0000 0.77798  0.31474  0.19409  Biso   1.000  O
  O1053    1.0000 0.74158  0.32243  0.11695  Biso   1.000  O
  O1054    1.0000 0.75895  0.34050  0.12144  Biso   1.000  O
  O1055    1.0000 0.33639  0.32422  0.85608  Biso   1.000  O
  O1056    1.0000 0.95000  0.52182  0.31843  Biso   1.000  O
  O1057    1.0000 0.93133  0.44938  0.33631  Biso   1.000  O
  O1058    1.0000 0.96768  0.43743  0.22492  Biso   1.000  O
  O1059    1.0000 0.98054  0.45576  0.21302  Biso   1.000  O
  O1060    1.0000 0.32368  0.76484  0.07299  Biso   1.000  O
  O1061    1.0000 0.31359  0.75553  0.09444  Biso   1.000  O
  O1062    1.0000 0.28010  0.84668  0.08590  Biso   1.000  O
  O1063    1.0000 0.27131  0.86435  0.10195  Biso   1.000  O
  O1064    1.0000 0.35580  0.86918  0.10324  Biso   1.000  O
  O1065    1.0000 0.34809  0.88681  0.11982  Biso   1.000  O
  O1066    1.0000 0.30550  0.32161  0.69170  Biso   1.000  O
  O1067    1.0000 0.35106  0.37145  0.64595  Biso   1.000  O
  O1068    1.0000 0.27350  0.79989  0.18927  Biso   1.000  O
  O1069    1.0000 0.28803  0.82075  0.18828  Biso   1.000  O
  O1070    1.0000 0.24179  0.82742  0.11766  Biso   1.000  O
  O1071    1.0000 0.25901  0.84581  0.12085  Biso   1.000  O
  O1072    1.0000 0.33997  0.81444  0.35395  Biso   1.000  O
  O1073    1.0000 0.95054  0.02374  0.81746  Biso   1.000  O
  O1074    1.0000 0.92485  0.95040  0.84004  Biso   1.000  O
  O1075    1.0000 0.96962  0.93697  0.72255  Biso   1.000  O
  O1076    1.0000 0.98042  0.95686  0.71100  Biso   1.000  O
  O1077    1.0000 0.32376  0.26676  0.57209  Biso   1.000  O
  O1078    1.0000 0.31322  0.25739  0.59331  Biso   1.000  O
  O1079    1.0000 0.27851  0.34788  0.58700  Biso   1.000  O
  O1080    1.0000 0.26959  0.36396  0.60462  Biso   1.000  O
  O1081    1.0000 0.35350  0.37061  0.60533  Biso   1.000  O
  O1082    1.0000 0.34585  0.38815  0.62221  Biso   1.000  O
  O1083    1.0000 0.31412  0.82622  0.20044  Biso   1.000  O
  O1084    1.0000 0.35389  0.86983  0.14310  Biso   1.000  O
  O1085    1.0000 0.28043  0.29223  0.68224  Biso   1.000  O
  O1086    1.0000 0.27693  0.31460  0.69381  Biso   1.000  O
  O1087    1.0000 0.24066  0.32567  0.61787  Biso   1.000  O
  O1088    1.0000 0.25790  0.34375  0.62225  Biso   1.000  O
  O1089    1.0000 0.66226  0.10544  0.57491  Biso   1.000  O
  O1090    1.0000 0.05881  0.57229  0.77710  Biso   1.000  O
  O1091    1.0000 0.06774  0.58378  0.69708  Biso   1.000  O
  O1092    1.0000 0.03046  0.47289  0.68927  Biso   1.000  O
  O1093    1.0000 0.01890  0.46010  0.70801  Biso   1.000  O
  O1094    1.0000 0.67569  0.32216  0.01525  Biso   1.000  O
  O1095    1.0000 0.68569  0.34390  0.00690  Biso   1.000  O
  O1096    1.0000 0.72060  0.33510  0.09759  Biso   1.000  O
  O1097    1.0000 0.73003  0.34924  0.11634  Biso   1.000  O
  O1098    1.0000 0.64652  0.35320  0.13199  Biso   1.000  O
  O1099    1.0000 0.65484  0.37707  0.13009  Biso   1.000  O
  O1100    1.0000 0.68872  0.95066  0.57614  Biso   1.000  O
  O1101    1.0000 0.64705  0.89551  0.62001  Biso   1.000  O
  O1102    1.0000 0.71926  0.43173  0.04500  Biso   1.000  O
  O1103    1.0000 0.72231  0.44278  0.06779  Biso   1.000  O
  O1104    1.0000 0.75673  0.36650  0.07787  Biso   1.000  O
  O1105    1.0000 0.74007  0.36881  0.09692  Biso   1.000  O
  O1106    1.0000 0.66381  0.60543  0.07553  Biso   1.000  O
  O1107    1.0000 0.04817  0.06761  0.27338  Biso   1.000  O
  O1108    1.0000 0.06623  0.08727  0.19842  Biso   1.000  O
  O1109    1.0000 0.02279  0.96484  0.18505  Biso   1.000  O
  O1110    1.0000 0.02491  0.96863  0.21001  Biso   1.000  O
  O1111    1.0000 0.67597  0.82313  0.51620  Biso   1.000  O
  O1112    1.0000 0.68562  0.84482  0.50755  Biso   1.000  O
  O1113    1.0000 0.72067  0.83714  0.59765  Biso   1.000  O
  O1114    1.0000 0.72967  0.85395  0.61446  Biso   1.000  O
  O1115    1.0000 0.64408  0.85624  0.61870  Biso   1.000  O
  O1116    1.0000 0.65243  0.87187  0.63678  Biso   1.000  O
  O1117    1.0000 0.69388  0.44147  0.07540  Biso   1.000  O
  O1118    1.0000 0.64082  0.40239  0.12582  Biso   1.000  O
  O1119    1.0000 0.72835  0.93960  0.54770  Biso   1.000  O
  O1120    1.0000 0.71421  0.93803  0.56884  Biso   1.000  O
  O1121    1.0000 0.75891  0.86717  0.57614  Biso   1.000  O
  O1122    1.0000 0.74217  0.87186  0.59481  Biso   1.000  O
  O1123    1.0000 0.16158  0.10438  0.07585  Biso   1.000  O
  O1124    1.0000 0.55942  0.57249  0.27900  Biso   1.000  O
  O1125    1.0000 0.56680  0.58488  0.19858  Biso   1.000  O
  O1126    1.0000 0.53058  0.47233  0.18813  Biso   1.000  O
  O1127    1.0000 0.51859  0.45893  0.20607  Biso   1.000  O
  O1128    1.0000 0.17141  0.32836  0.52383  Biso   1.000  O
  O1129    1.0000 0.18741  0.33302  0.50466  Biso   1.000  O
  O1130    1.0000 0.22057  0.33677  0.59764  Biso   1.000  O
  O1131    1.0000 0.22937  0.35316  0.61495  Biso   1.000  O
  O1132    1.0000 0.14437  0.35557  0.61904  Biso   1.000  O
  O1133    1.0000 0.15238  0.37175  0.63692  Biso   1.000  O
  O1134    1.0000 0.19524  0.94059  0.07309  Biso   1.000  O
  O1135    1.0000 0.14808  0.89453  0.12074  Biso   1.000  O
  O1136    1.0000 0.22718  0.44043  0.55016  Biso   1.000  O
  O1137    1.0000 0.21253  0.43865  0.57092  Biso   1.000  O
  O1138    1.0000 0.25761  0.36762  0.57642  Biso   1.000  O
  O1139    1.0000 0.24125  0.37162  0.59557  Biso   1.000  O
  O1140    1.0000 0.16331  0.60781  0.57408  Biso   1.000  O
  O1141    1.0000 0.55893  0.07170  0.77841  Biso   1.000  O
  O1142    1.0000 0.56643  0.08593  0.69896  Biso   1.000  O
  O1143    1.0000 0.52228  0.96536  0.68548  Biso   1.000  O
  O1144    1.0000 0.52355  0.96881  0.71068  Biso   1.000  O
  O1145    1.0000 0.17230  0.82930  0.02233  Biso   1.000  O
  O1146    1.0000 0.18824  0.83327  0.00316  Biso   1.000  O
  O1147    1.0000 0.22174  0.83761  0.09680  Biso   1.000  O
  O1148    1.0000 0.23077  0.85521  0.11274  Biso   1.000  O
  O1149    1.0000 0.14562  0.85501  0.11770  Biso   1.000  O
  O1150    1.0000 0.15325  0.87033  0.13645  Biso   1.000  O
  O1151    1.0000 0.18670  0.45127  0.57720  Biso   1.000  O
  O1152    1.0000 0.14600  0.39542  0.62048  Biso   1.000  O
  O1153    1.0000 0.21963  0.93210  0.04229  Biso   1.000  O
  O1154    1.0000 0.22379  0.94261  0.06509  Biso   1.000  O
  O1155    1.0000 0.25979  0.86602  0.07338  Biso   1.000  O
  O1156    1.0000 0.24324  0.87191  0.09196  Biso   1.000  O
  O1157    1.0000 0.08843  0.14504  0.06190  Biso   1.000  O
  O1158    1.0000 0.69936  0.68227  0.27270  Biso   1.000  O
  O1159    1.0000 0.67439  0.65891  0.20026  Biso   1.000  O
  O1160    1.0000 0.72641  0.78269  0.18532  Biso   1.000  O
  O1161    1.0000 0.72598  0.77974  0.21067  Biso   1.000  O
  O1162    1.0000 0.07462  0.92661  0.51417  Biso   1.000  O
  O1163    1.0000 0.06313  0.90559  0.50552  Biso   1.000  O
  O1164    1.0000 0.02650  0.91796  0.60561  Biso   1.000  O
  O1165    1.0000 0.02136  0.89304  0.60437  Biso   1.000  O
  O1166    1.0000 0.10560  0.89595  0.61771  Biso   1.000  O
  O1167    1.0000 0.09669  0.88162  0.63648  Biso   1.000  O
  O1168    1.0000 0.05579  0.30691  0.07481  Biso   1.000  O
  O1169    1.0000 0.10288  0.35487  0.12033  Biso   1.000  O
  O1170    1.0000 0.02034  0.81107  0.54931  Biso   1.000  O
  O1171    1.0000 0.03419  0.81227  0.57069  Biso   1.000  O
  O1172    1.0000 0.00228  0.88900  0.57090  Biso   1.000  O
  O1173    1.0000 0.08992  0.64888  0.56413  Biso   1.000  O
  O1174    1.0000 0.70111  0.18040  0.77291  Biso   1.000  O
  O1175    1.0000 0.68354  0.16621  0.69607  Biso   1.000  O
  O1176    1.0000 0.72608  0.28433  0.68619  Biso   1.000  O
  O1177    1.0000 0.72540  0.28091  0.71145  Biso   1.000  O
  O1178    1.0000 0.07475  0.42656  0.01581  Biso   1.000  O
  O1179    1.0000 0.06446  0.40467  0.00834  Biso   1.000  O
  O1180    1.0000 0.02920  0.41350  0.09803  Biso   1.000  O
  O1181    1.0000 0.02018  0.39692  0.11508  Biso   1.000  O
  O1182    1.0000 0.10569  0.39444  0.11915  Biso   1.000  O
  O1183    1.0000 0.09801  0.37858  0.13725  Biso   1.000  O
  O1184    1.0000 0.05949  0.79974  0.57772  Biso   1.000  O
  O1185    1.0000 0.10083  0.85745  0.62029  Biso   1.000  O
  O1186    1.0000 0.03087  0.31681  0.04546  Biso   1.000  O
  O1187    1.0000 0.02716  0.30566  0.06806  Biso   1.000  O
  O1188    1.0000 0.99199  0.38263  0.07628  Biso   1.000  O
  O1189    1.0000 0.00854  0.37842  0.09530  Biso   1.000  O
  O1190    1.0000 0.58869  0.14575  0.56379  Biso   1.000  O
  O1191    1.0000 0.20173  0.68126  0.77365  Biso   1.000  O
  O1192    1.0000 0.17490  0.65728  0.70044  Biso   1.000  O
  O1193    1.0000 0.22483  0.78438  0.68296  Biso   1.000  O
  O1194    1.0000 0.22488  0.77987  0.70807  Biso   1.000  O
  O1195    1.0000 0.57508  0.92677  0.01433  Biso   1.000  O
  O1196    1.0000 0.56365  0.90567  0.00601  Biso   1.000  O
  O1197    1.0000 0.52695  0.91712  0.10586  Biso   1.000  O
  O1198    1.0000 0.52204  0.89229  0.10341  Biso   1.000  O
  O1199    1.0000 0.60356  0.89564  0.13179  Biso   1.000  O
  O1200    1.0000 0.59575  0.87188  0.12870  Biso   1.000  O
  O1201    1.0000 0.56128  0.29801  0.57673  Biso   1.000  O
  O1202    1.0000 0.60146  0.35456  0.62076  Biso   1.000  O
  O1203    1.0000 0.52249  0.81029  0.05085  Biso   1.000  O
  O1204    1.0000 0.53739  0.81173  0.07138  Biso   1.000  O
  O1205    1.0000 0.50257  0.88827  0.07036  Biso   1.000  O
  O1206    1.0000 0.49817  0.87815  0.09303  Biso   1.000  O
  O1207    1.0000 0.59052  0.64621  0.06375  Biso   1.000  O
  O1208    1.0000 0.19891  0.18147  0.27232  Biso   1.000  O
  O1209    1.0000 0.17366  0.16054  0.19941  Biso   1.000  O
  O1210    1.0000 0.22687  0.28457  0.18681  Biso   1.000  O
  O1211    1.0000 0.22617  0.28108  0.21204  Biso   1.000  O
  O1212    1.0000 0.57273  0.42611  0.51581  Biso   1.000  O
  O1213    1.0000 0.56284  0.40437  0.50749  Biso   1.000  O
  O1214    1.0000 0.52833  0.41221  0.59671  Biso   1.000  O
  O1215    1.0000 0.51978  0.39652  0.61470  Biso   1.000  O
  O1216    1.0000 0.60530  0.39455  0.61822  Biso   1.000  O
  O1217    1.0000 0.59714  0.37895  0.63652  Biso   1.000  O
  O1218    1.0000 0.56252  0.79823  0.07819  Biso   1.000  O
  O1219    1.0000 0.61014  0.84680  0.12449  Biso   1.000  O
  O1220    1.0000 0.52213  0.31025  0.54834  Biso   1.000  O
  O1221    1.0000 0.53573  0.31078  0.56991  Biso   1.000  O
  O1222    1.0000 0.49051  0.38161  0.57671  Biso   1.000  O
  O1223    1.0000 0.50774  0.37784  0.59517  Biso   1.000  O
  O1224    1.0000 0.16380  0.64226  0.67605  Biso   1.000  O
  O1225    1.0000 0.54857  0.17994  0.47724  Biso   1.000  O
  O1226    1.0000 0.56589  0.16283  0.55287  Biso   1.000  O
  O1227    1.0000 0.52276  0.28367  0.56388  Biso   1.000  O
  O1228    1.0000 0.52307  0.28109  0.53848  Biso   1.000  O
  O1229    1.0000 0.17607  0.42710  0.23469  Biso   1.000  O
  O1230    1.0000 0.18735  0.40611  0.24378  Biso   1.000  O
  O1231    1.0000 0.22455  0.41579  0.14275  Biso   1.000  O
  O1232    1.0000 0.22950  0.39098  0.14496  Biso   1.000  O
  O1233    1.0000 0.14631  0.39361  0.13124  Biso   1.000  O
  O1234    1.0000 0.15389  0.37748  0.11313  Biso   1.000  O
  O1235    1.0000 0.18588  0.79874  0.67212  Biso   1.000  O
  O1236    1.0000 0.14489  0.85394  0.63003  Biso   1.000  O
  O1237    1.0000 0.22839  0.31015  0.20204  Biso   1.000  O
  O1238    1.0000 0.21362  0.31215  0.18148  Biso   1.000  O
  O1239    1.0000 0.24904  0.38699  0.17932  Biso   1.000  O
  O1240    1.0000 0.25282  0.37687  0.15639  Biso   1.000  O
  O1241    1.0000 0.16216  0.14443  0.17584  Biso   1.000  O
  O1242    1.0000 0.55109  0.68197  0.97796  Biso   1.000  O
  O1243    1.0000 0.56798  0.66365  0.05286  Biso   1.000  O
  O1244    1.0000 0.52320  0.78473  0.06662  Biso   1.000  O
  O1245    1.0000 0.52318  0.78107  0.04138  Biso   1.000  O
  O1246    1.0000 0.17149  0.91979  0.72783  Biso   1.000  O
  O1247    1.0000 0.18782  0.91525  0.74670  Biso   1.000  O
  O1248    1.0000 0.22450  0.91463  0.64240  Biso   1.000  O
  O1249    1.0000 0.22973  0.88962  0.64376  Biso   1.000  O
  O1250    1.0000 0.14619  0.89371  0.63018  Biso   1.000  O
  O1251    1.0000 0.15283  0.87663  0.61271  Biso   1.000  O
  O1252    1.0000 0.18852  0.29918  0.17385  Biso   1.000  O
  O1253    1.0000 0.14728  0.35345  0.12889  Biso   1.000  O
  O1254    1.0000 0.22686  0.80916  0.69856  Biso   1.000  O
  O1255    1.0000 0.21110  0.81197  0.67888  Biso   1.000  O
  O1256    1.0000 0.24861  0.88760  0.68085  Biso   1.000  O
  O1257    1.0000 0.25203  0.87631  0.65818  Biso   1.000  O
  O1258    1.0000 0.66261  0.64337  0.17604  Biso   1.000  O
  O1259    1.0000 0.05871  0.17623  0.97102  Biso   1.000  O
  O1260    1.0000 0.06623  0.16307  0.05088  Biso   1.000  O
  O1261    1.0000 0.03002  0.27523  0.06363  Biso   1.000  O
  O1262    1.0000 0.01815  0.28867  0.04563  Biso   1.000  O
  O1263    1.0000 0.67588  0.42726  0.73366  Biso   1.000  O
  O1264    1.0000 0.68699  0.40615  0.74278  Biso   1.000  O
  O1265    1.0000 0.72395  0.41536  0.64182  Biso   1.000  O
  O1266    1.0000 0.72883  0.39052  0.64399  Biso   1.000  O
  O1267    1.0000 0.64575  0.39297  0.63037  Biso   1.000  O
  O1268    1.0000 0.65313  0.37653  0.61250  Biso   1.000  O
  O1269    1.0000 0.68820  0.79793  0.17259  Biso   1.000  O
  O1270    1.0000 0.64067  0.84751  0.12595  Biso   1.000  O
  O1271    1.0000 0.72766  0.30991  0.70148  Biso   1.000  O
  O1272    1.0000 0.71289  0.31195  0.68093  Biso   1.000  O
  O1273    1.0000 0.74860  0.38650  0.67841  Biso   1.000  O
  O1274    1.0000 0.75203  0.37634  0.65539  Biso   1.000  O
  O1275    1.0000 0.66110  0.14729  0.68666  Biso   1.000  O
  O1276    1.0000 0.05137  0.68231  0.47795  Biso   1.000  O
  O1277    1.0000 0.06733  0.66673  0.55379  Biso   1.000  O
  O1278    1.0000 0.02095  0.78521  0.56519  Biso   1.000  O
  O1279    1.0000 0.02168  0.78170  0.53999  Biso   1.000  O
  O1280    1.0000 0.67654  0.92651  0.23545  Biso   1.000  O
  O1281    1.0000 0.68777  0.90529  0.24367  Biso   1.000  O
  O1282    1.0000 0.72148  0.91460  0.15288  Biso   1.000  O
  O1283    1.0000 0.73028  0.89781  0.13613  Biso   1.000  O
  O1284    1.0000 0.64557  0.89679  0.12084  Biso   1.000  O
  O1285    1.0000 0.65426  0.87309  0.12196  Biso   1.000  O
  O1286    1.0000 0.68774  0.29909  0.67323  Biso   1.000  O
  O1287    1.0000 0.64600  0.35304  0.62874  Biso   1.000  O
  O1288    1.0000 0.72820  0.80882  0.20053  Biso   1.000  O
  O1289    1.0000 0.71397  0.81009  0.17944  Biso   1.000  O
  O1290    1.0000 0.75731  0.88239  0.17547  Biso   1.000  O
  O1291    1.0000 0.74000  0.87974  0.15701  Biso   1.000  O
  O1292    1.0000 0.58921  0.60280  0.18740  Biso   1.000  O
  O1293    1.0000 0.19767  0.06852  0.97805  Biso   1.000  O
  O1294    1.0000 0.17255  0.08861  0.05207  Biso   1.000  O
  O1295    1.0000 0.22021  0.97289  0.06171  Biso   1.000  O
  O1296    1.0000 0.23117  0.96076  0.04224  Biso   1.000  O
  O1297    1.0000 0.57980  0.82878  0.72808  Biso   1.000  O
  O1298    1.0000 0.56376  0.83349  0.74731  Biso   1.000  O
  O1299    1.0000 0.52548  0.83524  0.64430  Biso   1.000  O
  O1300    1.0000 0.52059  0.86003  0.64764  Biso   1.000  O
  O1301    1.0000 0.60373  0.85708  0.63186  Biso   1.000  O
  O1302    1.0000 0.59598  0.87303  0.61371  Biso   1.000  O
  O1303    1.0000 0.55664  0.44093  0.17653  Biso   1.000  O
  O1304    1.0000 0.61039  0.40225  0.12658  Biso   1.000  O
  O1305    1.0000 0.52097  0.94024  0.69974  Biso   1.000  O
  O1306    1.0000 0.53624  0.93795  0.67967  Biso   1.000  O
  O1307    1.0000 0.50105  0.86074  0.68330  Biso   1.000  O
  O1308    1.0000 0.49767  0.87296  0.66129  Biso   1.000  O
  O1309    1.0000 0.58841  0.10388  0.68732  Biso   1.000  O
  O1310    1.0000 0.19018  0.57307  0.47112  Biso   1.000  O
  O1311    1.0000 0.17382  0.59198  0.54987  Biso   1.000  O
  O1312    1.0000 0.22534  0.46590  0.56479  Biso   1.000  O
  O1313    1.0000 0.22411  0.46942  0.53973  Biso   1.000  O
  O1314    1.0000 0.57734  0.32724  0.22779  Biso   1.000  O
  O1315    1.0000 0.56191  0.33231  0.24720  Biso   1.000  O
  O1316    1.0000 0.52911  0.33546  0.15301  Biso   1.000  O
  O1317    1.0000 0.52046  0.35195  0.13585  Biso   1.000  O
  O1318    1.0000 0.60465  0.35311  0.12103  Biso   1.000  O
  O1319    1.0000 0.59632  0.37707  0.12216  Biso   1.000  O
  O1320    1.0000 0.56119  0.95182  0.67269  Biso   1.000  O
  O1321    1.0000 0.60278  0.89704  0.62943  Biso   1.000  O
  O1322    1.0000 0.53098  0.43078  0.20598  Biso   1.000  O
  O1323    1.0000 0.52786  0.44185  0.18326  Biso   1.000  O
  O1324    1.0000 0.49144  0.36554  0.17431  Biso   1.000  O
  O1325    1.0000 0.50870  0.36969  0.15608  Biso   1.000  O
  O1326    1.0000 0.09010  0.60164  0.68544  Biso   1.000  O
  O1327    1.0000 0.69883  0.06892  0.47759  Biso   1.000  O
  O1328    1.0000 0.67277  0.08944  0.55111  Biso   1.000  O
  O1329    1.0000 0.72695  0.96532  0.56301  Biso   1.000  O
  O1330    1.0000 0.72609  0.96883  0.53788  Biso   1.000  O
  O1331    1.0000 0.07912  0.82979  0.22723  Biso   1.000  O
  O1332    1.0000 0.06402  0.83571  0.24673  Biso   1.000  O
  O1333    1.0000 0.02952  0.83592  0.15353  Biso   1.000  O
  O1334    1.0000 0.02044  0.85245  0.13650  Biso   1.000  O
  O1335    1.0000 0.10540  0.85513  0.13047  Biso   1.000  O
  O1336    1.0000 0.09754  0.87084  0.11231  Biso   1.000  O
  O1337    1.0000 0.05582  0.44078  0.67825  Biso   1.000  O
  O1338    1.0000 0.10170  0.39459  0.62995  Biso   1.000  O
  O1339    1.0000 0.02248  0.93913  0.20095  Biso   1.000  O
  O1340    1.0000 0.03551  0.93770  0.17894  Biso   1.000  O
  O1341    1.0000 0.99130  0.86599  0.17488  Biso   1.000  O
  O1342    1.0000 0.00824  0.87030  0.15639  Biso   1.000  O
  O1343    1.0000 0.08905  0.10428  0.18746  Biso   1.000  O
  O1344    1.0000 0.69904  0.56798  0.97794  Biso   1.000  O
  O1345    1.0000 0.67419  0.58910  0.05156  Biso   1.000  O
  O1346    1.0000 0.71919  0.47329  0.06330  Biso   1.000  O
  O1347    1.0000 0.73103  0.46004  0.04519  Biso   1.000  O
  O1348    1.0000 0.07702  0.32796  0.72744  Biso   1.000  O
  O1349    1.0000 0.06185  0.33178  0.74740  Biso   1.000  O
  O1350    1.0000 0.02789  0.33653  0.65436  Biso   1.000  O
  O1351    1.0000 0.01929  0.35359  0.63760  Biso   1.000  O
  O1352    1.0000 0.10425  0.35560  0.63231  Biso   1.000  O
  O1353    1.0000 0.09623  0.37053  0.61363  Biso   1.000  O
  O1354    1.0000 0.06101  0.95046  0.17113  Biso   1.000  O
  O1355    1.0000 0.10349  0.89454  0.12879  Biso   1.000  O
  O1356    1.0000 0.03091  0.43164  0.70781  Biso   1.000  O
  O1357    1.0000 0.02716  0.44270  0.68523  Biso   1.000  O
  O1358    1.0000 0.99027  0.36673  0.67618  Biso   1.000  O
  O1359    1.0000 0.00744  0.37117  0.65791  Biso   1.000  O
  O1360    1.0000 0.60105  0.18654  0.58955  Biso   1.000  O
  O1361    1.0000 0.07187  0.97211  0.18801  Biso   1.000  O
  O1362    1.0000 0.08460  0.05366  0.18691  Biso   1.000  O
  O1363    1.0000 0.97371  0.06441  0.21882  Biso   1.000  O
  O1364    1.0000 0.96097  0.04578  0.23034  Biso   1.000  O
  O1365    1.0000 0.82749  0.72770  0.57863  Biso   1.000  O
  O1366    1.0000 0.83168  0.74731  0.56325  Biso   1.000  O
  O1367    1.0000 0.83455  0.65274  0.52966  Biso   1.000  O
  O1368    1.0000 0.85065  0.63556  0.52032  Biso   1.000  O
  O1369    1.0000 0.85545  0.63118  0.60571  Biso   1.000  O
  O1370    1.0000 0.87081  0.61291  0.59699  Biso   1.000  O
  O1371    1.0000 0.44927  0.17272  0.56139  Biso   1.000  O
  O1372    1.0000 0.40179  0.12697  0.61059  Biso   1.000  O
  O1373    1.0000 0.93993  0.69969  0.52040  Biso   1.000  O
  O1374    1.0000 0.93867  0.67886  0.53496  Biso   1.000  O
  O1375    1.0000 0.86555  0.67453  0.49265  Biso   1.000  O
  O1376    1.0000 0.86870  0.65597  0.50970  Biso   1.000  O
  O1377    1.0000 0.60242  0.68641  0.09079  Biso   1.000  O
  O1378    1.0000 0.06782  0.47687  0.70285  Biso   1.000  O
  O1379    1.0000 0.08484  0.55148  0.68297  Biso   1.000  O
  O1380    1.0000 0.96537  0.56312  0.72678  Biso   1.000  O
  O1381    1.0000 0.96845  0.53787  0.72611  Biso   1.000  O
  O1382    1.0000 0.82247  0.23462  0.07257  Biso   1.000  O
  O1383    1.0000 0.84392  0.24384  0.06250  Biso   1.000  O
  O1384    1.0000 0.83631  0.15497  0.02889  Biso   1.000  O
  O1385    1.0000 0.85306  0.13765  0.02056  Biso   1.000  O
  O1386    1.0000 0.85314  0.13089  0.10463  Biso   1.000  O
  O1387    1.0000 0.86887  0.11264  0.09653  Biso   1.000  O
  O1388    1.0000 0.45156  0.67272  0.06119  Biso   1.000  O
  O1389    1.0000 0.39514  0.62848  0.10190  Biso   1.000  O
  O1390    1.0000 0.93220  0.20476  0.02998  Biso   1.000  O
  O1391    1.0000 0.94334  0.18218  0.02671  Biso   1.000  O
  O1392    1.0000 0.86655  0.17472  0.99000  Biso   1.000  O
  O1393    1.0000 0.10140  0.18528  0.08886  Biso   1.000  O
  O1394    1.0000 0.57122  0.97273  0.69140  Biso   1.000  O
  O1395    1.0000 0.58475  0.05346  0.68578  Biso   1.000  O
  O1396    1.0000 0.47342  0.06428  0.71944  Biso   1.000  O
  O1397    1.0000 0.46099  0.04578  0.73153  Biso   1.000  O
  O1398    1.0000 0.32228  0.73435  0.07372  Biso   1.000  O
  O1399    1.0000 0.34390  0.74277  0.06375  Biso   1.000  O
  O1400    1.0000 0.33644  0.65409  0.02949  Biso   1.000  O
  O1401    1.0000 0.35337  0.63729  0.02088  Biso   1.000  O
  O1402    1.0000 0.35439  0.62932  0.10492  Biso   1.000  O
  O1403    1.0000 0.37135  0.61221  0.09658  Biso   1.000  O
  O1404    1.0000 0.94086  0.17499  0.05544  Biso   1.000  O
  O1405    1.0000 0.89305  0.12821  0.10195  Biso   1.000  O
  O1406    1.0000 0.44082  0.70089  0.02122  Biso   1.000  O
  O1407    1.0000 0.43924  0.67996  0.03555  Biso   1.000  O
  O1408    1.0000 0.36675  0.67535  0.99121  Biso   1.000  O
  O1409    1.0000 0.37023  0.65762  0.00891  Biso   1.000  O
  O1410    1.0000 0.10179  0.68850  0.59221  Biso   1.000  O
  O1411    1.0000 0.56728  0.47679  0.20209  Biso   1.000  O
  O1412    1.0000 0.58379  0.55227  0.18404  Biso   1.000  O
  O1413    1.0000 0.47386  0.56372  0.21905  Biso   1.000  O
  O1414    1.0000 0.46179  0.54523  0.23152  Biso   1.000  O
  O1415    1.0000 0.32198  0.23595  0.57286  Biso   1.000  O
  O1416    1.0000 0.34343  0.24460  0.56248  Biso   1.000  O
  O1417    1.0000 0.33527  0.15323  0.52991  Biso   1.000  O
  O1418    1.0000 0.35186  0.13634  0.52075  Biso   1.000  O
  O1419    1.0000 0.35291  0.11898  0.60504  Biso   1.000  O
  O1420    1.0000 0.37659  0.12151  0.59648  Biso   1.000  O
  O1421    1.0000 0.95142  0.67210  0.56051  Biso   1.000  O
  O1422    1.0000 0.89528  0.62867  0.60214  Biso   1.000  O
  O1423    1.0000 0.43932  0.20052  0.52092  Biso   1.000  O
  O1424    1.0000 0.43671  0.18051  0.53618  Biso   1.000  O
  O1425    1.0000 0.36593  0.17455  0.49177  Biso   1.000  O
  O1426    1.0000 0.36958  0.15608  0.50887  Biso   1.000  O
  O1427    1.0000 0.64371  0.67393  0.16329  Biso   1.000  O
  O1428    1.0000 0.17588  0.47252  0.55846  Biso   1.000  O
  O1429    1.0000 0.15765  0.55202  0.57568  Biso   1.000  O
  O1430    1.0000 0.27607  0.56400  0.53138  Biso   1.000  O
  O1431    1.0000 0.28778  0.54530  0.51888  Biso   1.000  O
  O1432    1.0000 0.42086  0.22658  0.17081  Biso   1.000  O
  O1433    1.0000 0.41655  0.24594  0.18669  Biso   1.000  O
  O1434    1.0000 0.41490  0.14260  0.22444  Biso   1.000  O
  O1435    1.0000 0.39006  0.14474  0.22979  Biso   1.000  O
  O1436    1.0000 0.39515  0.11889  0.14705  Biso   1.000  O
  O1437    1.0000 0.37100  0.12141  0.15410  Biso   1.000  O
  O1438    1.0000 0.79983  0.67140  0.18814  Biso   1.000  O
  O1439    1.0000 0.84775  0.62478  0.14000  Biso   1.000  O
  O1440    1.0000 0.30933  0.19879  0.22725  Biso   1.000  O
  O1441    1.0000 0.31178  0.17881  0.21208  Biso   1.000  O
  O1442    1.0000 0.38779  0.18050  0.24875  Biso   1.000  O
  O1443    1.0000 0.37685  0.15791  0.25279  Biso   1.000  O
  O1444    1.0000 0.64543  0.18709  0.66140  Biso   1.000  O
  O1445    1.0000 0.18253  0.97706  0.04956  Biso   1.000  O
  O1446    1.0000 0.15856  0.04868  0.07829  Biso   1.000  O
  O1447    1.0000 0.28451  0.06485  0.02252  Biso   1.000  O
  O1448    1.0000 0.28140  0.03956  0.02276  Biso   1.000  O
  O1449    1.0000 0.42723  0.73468  0.67533  Biso   1.000  O
  O1450    1.0000 0.40545  0.74298  0.68551  Biso   1.000  O
  O1451    1.0000 0.41593  0.64405  0.72440  Biso   1.000  O
  O1452    1.0000 0.39110  0.64601  0.72968  Biso   1.000  O
  O1453    1.0000 0.39605  0.61869  0.64738  Biso   1.000  O
  O1454    1.0000 0.37193  0.62095  0.65473  Biso   1.000  O
  O1455    1.0000 0.79882  0.17267  0.68649  Biso   1.000  O
  O1456    1.0000 0.84714  0.12588  0.63930  Biso   1.000  O
  O1457    1.0000 0.31052  0.70364  0.72696  Biso   1.000  O
  O1458    1.0000 0.31354  0.68245  0.71329  Biso   1.000  O
  O1459    1.0000 0.38806  0.68092  0.74869  Biso   1.000  O
  O1460    1.0000 0.37748  0.65831  0.75297  Biso   1.000  O
  O1461    1.0000 0.14397  0.67395  0.66408  Biso   1.000  O
  O1462    1.0000 0.68203  0.47720  0.05060  Biso   1.000  O
  O1463    1.0000 0.65826  0.55014  0.07821  Biso   1.000  O
  O1464    1.0000 0.77474  0.56345  0.03280  Biso   1.000  O
  O1465    1.0000 0.78642  0.54526  0.01928  Biso   1.000  O
  O1466    1.0000 0.92023  0.22758  0.67115  Biso   1.000  O
  O1467    1.0000 0.91556  0.24707  0.68675  Biso   1.000  O
  O1468    1.0000 0.91528  0.14410  0.72451  Biso   1.000  O
  O1469    1.0000 0.89038  0.14588  0.72972  Biso   1.000  O
  O1470    1.0000 0.89589  0.11948  0.64723  Biso   1.000  O
  O1471    1.0000 0.87176  0.12176  0.65443  Biso   1.000  O
  O1472    1.0000 0.30095  0.67321  0.68842  Biso   1.000  O
  O1473    1.0000 0.34727  0.62572  0.63955  Biso   1.000  O
  O1474    1.0000 0.80918  0.19936  0.72715  Biso   1.000  O
  O1475    1.0000 0.81153  0.17920  0.71214  Biso   1.000  O
  O1476    1.0000 0.88743  0.18146  0.74888  Biso   1.000  O
  O1477    1.0000 0.87682  0.15868  0.75265  Biso   1.000  O
  O1478    1.0000 0.14279  0.17599  0.16236  Biso   1.000  O
  O1479    1.0000 0.67777  0.97228  0.55803  Biso   1.000  O
  O1480    1.0000 0.65777  0.04963  0.57709  Biso   1.000  O
  O1481    1.0000 0.78497  0.06547  0.52305  Biso   1.000  O
  O1482    1.0000 0.78142  0.04032  0.52352  Biso   1.000  O
  O1483    1.0000 0.92158  0.72657  0.17167  Biso   1.000  O
  O1484    1.0000 0.91699  0.74609  0.18730  Biso   1.000  O
  O1485    1.0000 0.91669  0.64267  0.22459  Biso   1.000  O
  O1486    1.0000 0.89176  0.64396  0.22981  Biso   1.000  O
  O1487    1.0000 0.89666  0.61842  0.14724  Biso   1.000  O
  O1488    1.0000 0.87260  0.62051  0.15484  Biso   1.000  O
  O1489    1.0000 0.29918  0.17244  0.18635  Biso   1.000  O
  O1490    1.0000 0.34652  0.12557  0.13868  Biso   1.000  O
  O1491    1.0000 0.80949  0.69968  0.22832  Biso   1.000  O
  O1492    1.0000 0.81207  0.67914  0.21378  Biso   1.000  O
  O1493    1.0000 0.88728  0.67843  0.24894  Biso   1.000  O
  O1494    1.0000 0.87766  0.65544  0.25316  Biso   1.000  O
  O1495    1.0000 0.14309  0.07226  0.08981  Biso   1.000  O
  O1496    1.0000 0.67711  0.27820  0.69105  Biso   1.000  O
  O1497    1.0000 0.66434  0.19756  0.68311  Biso   1.000  O
  O1498    1.0000 0.78390  0.18447  0.72535  Biso   1.000  O
  O1499    1.0000 0.78029  0.20971  0.72452  Biso   1.000  O
  O1500    1.0000 0.92164  0.52184  0.07826  Biso   1.000  O
  O1501    1.0000 0.91669  0.50284  0.06201  Biso   1.000  O
  O1502    1.0000 0.91472  0.59722  0.02930  Biso   1.000  O
  O1503    1.0000 0.89792  0.61404  0.02043  Biso   1.000  O
  O1504    1.0000 0.89750  0.62851  0.10491  Biso   1.000  O
  O1505    1.0000 0.87378  0.62546  0.09677  Biso   1.000  O
  O1506    1.0000 0.29797  0.07682  0.06173  Biso   1.000  O
  O1507    1.0000 0.34751  0.12358  0.10898  Biso   1.000  O
  O1508    1.0000 0.81573  0.54546  0.02849  Biso   1.000  O
  O1509    1.0000 0.80460  0.56839  0.02810  Biso   1.000  O
  O1510    1.0000 0.88257  0.57468  0.99378  Biso   1.000  O
  O1511    1.0000 0.87967  0.59360  0.01056  Biso   1.000  O
  O1512    1.0000 0.14386  0.57675  0.58809  Biso   1.000  O
  O1513    1.0000 0.67716  0.77718  0.19041  Biso   1.000  O
  O1514    1.0000 0.65872  0.69837  0.17418  Biso   1.000  O
  O1515    1.0000 0.78413  0.68483  0.22598  Biso   1.000  O
  O1516    1.0000 0.78080  0.71007  0.22463  Biso   1.000  O
  O1517    1.0000 0.92015  0.02296  0.57916  Biso   1.000  O
  O1518    1.0000 0.91530  0.00410  0.56274  Biso   1.000  O
  O1519    1.0000 0.91502  0.09800  0.52914  Biso   1.000  O
  O1520    1.0000 0.89844  0.11473  0.51975  Biso   1.000  O
  O1521    1.0000 0.89738  0.12908  0.60477  Biso   1.000  O
  O1522    1.0000 0.87366  0.12704  0.59594  Biso   1.000  O
  O1523    1.0000 0.30899  0.57433  0.55589  Biso   1.000  O
  O1524    1.0000 0.34816  0.62418  0.60963  Biso   1.000  O
  O1525    1.0000 0.81046  0.05046  0.52182  Biso   1.000  O
  O1526    1.0000 0.81202  0.07077  0.53697  Biso   1.000  O
  O1527    1.0000 0.88451  0.07446  0.49354  Biso   1.000  O
  O1528    1.0000 0.88070  0.09374  0.50980  Biso   1.000  O
  O1529    1.0000 0.64278  0.07366  0.58861  Biso   1.000  O
  O1530    1.0000 0.17774  0.27810  0.19160  Biso   1.000  O
  O1531    1.0000 0.15816  0.20018  0.17321  Biso   1.000  O
  O1532    1.0000 0.28403  0.18404  0.22513  Biso   1.000  O
  O1533    1.0000 0.28046  0.20929  0.22446  Biso   1.000  O
  O1534    1.0000 0.42178  0.52221  0.57780  Biso   1.000  O
  O1535    1.0000 0.41675  0.50302  0.56178  Biso   1.000  O
  O1536    1.0000 0.41453  0.59702  0.52930  Biso   1.000  O
  O1537    1.0000 0.39737  0.61344  0.52044  Biso   1.000  O
  O1538    1.0000 0.39781  0.62876  0.60517  Biso   1.000  O
  O1539    1.0000 0.37414  0.62729  0.59620  Biso   1.000  O
  O1540    1.0000 0.79868  0.07761  0.56204  Biso   1.000  O
  O1541    1.0000 0.84790  0.12403  0.60972  Biso   1.000  O
  O1542    1.0000 0.31659  0.54466  0.52872  Biso   1.000  O
  O1543    1.0000 0.30622  0.56792  0.52713  Biso   1.000  O
  O1544    1.0000 0.38397  0.57414  0.49238  Biso   1.000  O
  O1545    1.0000 0.38009  0.59234  0.50972  Biso   1.000  O
  O1546    1.0000 0.64438  0.57527  0.08957  Biso   1.000  O
  O1547    1.0000 0.17597  0.77732  0.69008  Biso   1.000  O
  O1548    1.0000 0.15917  0.69781  0.67571  Biso   1.000  O
  O1549    1.0000 0.28598  0.68693  0.72640  Biso   1.000  O
  O1550    1.0000 0.28081  0.71170  0.72421  Biso   1.000  O
  O1551    1.0000 0.42078  0.02238  0.07953  Biso   1.000  O
  O1552    1.0000 0.41626  0.00375  0.06276  Biso   1.000  O
  O1553    1.0000 0.41567  0.09839  0.02898  Biso   1.000  O
  O1554    1.0000 0.39892  0.11492  0.01970  Biso   1.000  O
  O1555    1.0000 0.39711  0.12874  0.10466  Biso   1.000  O
  O1556    1.0000 0.37354  0.12637  0.09568  Biso   1.000  O
  O1557    1.0000 0.80794  0.57340  0.05704  Biso   1.000  O
  O1558    1.0000 0.84804  0.62277  0.11019  Biso   1.000  O
  O1559    1.0000 0.31038  0.05008  0.02149  Biso   1.000  O
  O1560    1.0000 0.31135  0.07043  0.03664  Biso   1.000  O
  O1561    1.0000 0.38408  0.07467  0.99411  Biso   1.000  O
  O1562    1.0000 0.38088  0.09384  0.01052  Biso   1.000  O
  O1563    1.0000 0.10260  0.56087  0.65992  Biso   1.000  O
  O1564    1.0000 0.57223  0.77699  0.06030  Biso   1.000  O
  O1565    1.0000 0.58496  0.69680  0.06776  Biso   1.000  O
  O1566    1.0000 0.46661  0.68641  0.02317  Biso   1.000  O
  O1567    1.0000 0.46966  0.71163  0.02474  Biso   1.000  O
  O1568    1.0000 0.32077  0.01509  0.67601  Biso   1.000  O
  O1569    1.0000 0.34215  0.00741  0.68739  Biso   1.000  O
  O1570    1.0000 0.33431  0.09803  0.72120  Biso   1.000  O
  O1571    1.0000 0.35069  0.11478  0.73085  Biso   1.000  O
  O1572    1.0000 0.35277  0.13054  0.64678  Biso   1.000  O
  O1573    1.0000 0.37677  0.13018  0.65506  Biso   1.000  O
  O1574    1.0000 0.95139  0.57557  0.68793  Biso   1.000  O
  O1575    1.0000 0.89643  0.61953  0.64662  Biso   1.000  O
  O1576    1.0000 0.43239  0.04528  0.72067  Biso   1.000  O
  O1577    1.0000 0.44307  0.06841  0.72301  Biso   1.000  O
  O1578    1.0000 0.36548  0.07461  0.75683  Biso   1.000  O
  O1579    1.0000 0.36874  0.09392  0.74041  Biso   1.000  O
  O1580    1.0000 0.10254  0.06207  0.16381  Biso   1.000  O
  O1581    1.0000 0.57198  0.27713  0.55917  Biso   1.000  O
  O1582    1.0000 0.58316  0.19646  0.56675  Biso   1.000  O
  O1583    1.0000 0.46448  0.18520  0.52307  Biso   1.000  O
  O1584    1.0000 0.46811  0.21042  0.52381  Biso   1.000  O
  O1585    1.0000 0.32898  0.52227  0.17165  Biso   1.000  O
  O1586    1.0000 0.33388  0.50350  0.18811  Biso   1.000  O
  O1587    1.0000 0.33504  0.60723  0.22440  Biso   1.000  O
  O1588    1.0000 0.36008  0.60485  0.22895  Biso   1.000  O
  O1589    1.0000 0.35632  0.61828  0.14582  Biso   1.000  O
  O1590    1.0000 0.37183  0.63692  0.15252  Biso   1.000  O
  O1591    1.0000 0.94132  0.07475  0.19318  Biso   1.000  O
  O1592    1.0000 0.89372  0.12025  0.14664  Biso   1.000  O
  O1593    1.0000 0.43335  0.54369  0.22043  Biso   1.000  O
  O1594    1.0000 0.44323  0.56710  0.22245  Biso   1.000  O
  O1595    1.0000 0.36206  0.56905  0.24839  Biso   1.000  O
  O1596    1.0000 0.37377  0.59140  0.25153  Biso   1.000  O
  O1597    1.0000 0.60218  0.56234  0.16156  Biso   1.000  O
  O1598    1.0000 0.07020  0.77813  0.56044  Biso   1.000  O
  O1599    1.0000 0.08422  0.69913  0.56956  Biso   1.000  O
  O1600    1.0000 0.96576  0.68568  0.52215  Biso   1.000  O
  O1601    1.0000 0.96876  0.71087  0.52375  Biso   1.000  O
  O1602    1.0000 0.82180  0.01507  0.17681  Biso   1.000  O
  O1603    1.0000 0.84363  0.00707  0.18727  Biso   1.000  O
  O1604    1.0000 0.83656  0.09707  0.22150  Biso   1.000  O
  O1605    1.0000 0.85312  0.11407  0.23036  Biso   1.000  O
  O1606    1.0000 0.85373  0.11956  0.14529  Biso   1.000  O
  O1607    1.0000 0.87038  0.13718  0.15247  Biso   1.000  O
  O1608    1.0000 0.44125  0.57308  0.19366  Biso   1.000  O
  O1609    1.0000 0.39524  0.62003  0.14659  Biso   1.000  O
  O1610    1.0000 0.93277  0.04498  0.21853  Biso   1.000  O
  O1611    1.0000 0.94321  0.06796  0.22190  Biso   1.000  O
  O1612    1.0000 0.86671  0.07502  0.25844  Biso   1.000  O
  O1613    1.0000 0.87071  0.09320  0.24113  Biso   1.000  O
  O1614    1.0000 0.60190  0.06232  0.66240  Biso   1.000  O
  O1615    1.0000 0.06752  0.27103  0.04988  Biso   1.000  O
  O1616    1.0000 0.08424  0.19573  0.06612  Biso   1.000  O
  O1617    1.0000 0.97357  0.18656  0.03120  Biso   1.000  O
  O1618    1.0000 0.96110  0.20492  0.01893  Biso   1.000  O
  O1619    1.0000 0.82777  0.52231  0.67201  Biso   1.000  O
  O1620    1.0000 0.83241  0.50273  0.68739  Biso   1.000  O
  O1621    1.0000 0.83637  0.59733  0.72154  Biso   1.000  O
  O1622    1.0000 0.85273  0.61413  0.73123  Biso   1.000  O
  O1623    1.0000 0.85706  0.61857  0.64601  Biso   1.000  O
  O1624    1.0000 0.87308  0.63651  0.65355  Biso   1.000  O
  O1625    1.0000 0.44104  0.07555  0.69439  Biso   1.000  O
  O1626    1.0000 0.40203  0.12666  0.64074  Biso   1.000  O
  O1627    1.0000 0.93956  0.54850  0.72812  Biso   1.000  O
  O1628    1.0000 0.93830  0.56900  0.71316  Biso   1.000  O
  O1629    1.0000 0.86639  0.57393  0.75763  Biso   1.000  O
  O1630    1.0000 0.87039  0.59327  0.74148  Biso   1.000  O
  O1631    1.0000 0.68514  0.16159  0.64535  Biso   1.000  O
  O1632    1.0000 0.47760  0.54890  0.18264  Biso   1.000  O
  O1633    1.0000 0.55208  0.56659  0.16559  Biso   1.000  O
  O1634    1.0000 0.56404  0.52299  0.28530  Biso   1.000  O
  O1635    1.0000 0.53902  0.52488  0.28164  Biso   1.000  O
  O1636    1.0000 0.23487  0.17519  0.42738  Biso   1.000  O
  O1637    1.0000 0.24288  0.18584  0.40568  Biso   1.000  O
  O1638    1.0000 0.14391  0.22344  0.41597  Biso   1.000  O
  O1639    1.0000 0.14681  0.22823  0.39118  Biso   1.000  O
  O1640    1.0000 0.11942  0.14669  0.39518  Biso   1.000  O
  O1641    1.0000 0.12104  0.15409  0.37096  Biso   1.000  O
  O1642    1.0000 0.67579  0.19344  0.80781  Biso   1.000  O
  O1643    1.0000 0.62867  0.14797  0.85541  Biso   1.000  O
  O1644    1.0000 0.20738  0.21796  0.31748  Biso   1.000  O
  O1645    1.0000 0.18444  0.22283  0.30772  Biso   1.000  O
  O1646    1.0000 0.18154  0.24825  0.38887  Biso   1.000  O
  O1647    1.0000 0.15916  0.25128  0.37731  Biso   1.000  O
  O1648    1.0000 0.67584  0.66037  0.14467  Biso   1.000  O
  O1649    1.0000 0.47617  0.05024  0.68145  Biso   1.000  O
  O1650    1.0000 0.55151  0.06684  0.66577  Biso   1.000  O
  O1651    1.0000 0.56371  0.02246  0.78468  Biso   1.000  O
  O1652    1.0000 0.53850  0.02372  0.78139  Biso   1.000  O
  O1653    1.0000 0.23523  0.67515  0.92667  Biso   1.000  O
  O1654    1.0000 0.24430  0.68580  0.90542  Biso   1.000  O
  O1655    1.0000 0.15402  0.72120  0.91332  Biso   1.000  O
  O1656    1.0000 0.13644  0.73083  0.89787  Biso   1.000  O
  O1657    1.0000 0.11994  0.64689  0.89755  Biso   1.000  O
  O1658    1.0000 0.12130  0.65494  0.87357  Biso   1.000  O
  O1659    1.0000 0.67673  0.69388  0.31014  Biso   1.000  O
  O1660    1.0000 0.62693  0.63944  0.34811  Biso   1.000  O
  O1661    1.0000 0.20578  0.72133  0.81680  Biso   1.000  O
  O1662    1.0000 0.18251  0.72257  0.80631  Biso   1.000  O
  O1663    1.0000 0.17548  0.75866  0.88340  Biso   1.000  O
  O1664    1.0000 0.15653  0.74203  0.87925  Biso   1.000  O
  O1665    1.0000 0.17534  0.16201  0.14348  Biso   1.000  O
  O1666    1.0000 0.97301  0.55701  0.67787  Biso   1.000  O
  O1667    1.0000 0.05248  0.56507  0.66449  Biso   1.000  O
  O1668    1.0000 0.06562  0.52354  0.78672  Biso   1.000  O
  O1669    1.0000 0.04063  0.52451  0.78266  Biso   1.000  O
  O1670    1.0000 0.73408  0.17519  0.92720  Biso   1.000  O
  O1671    1.0000 0.74252  0.18535  0.90541  Biso   1.000  O
  O1672    1.0000 0.65321  0.22093  0.91279  Biso   1.000  O
  O1673    1.0000 0.63577  0.23040  0.89709  Biso   1.000  O
  O1674    1.0000 0.62910  0.14577  0.89541  Biso   1.000  O
  O1675    1.0000 0.61170  0.15359  0.87867  Biso   1.000  O
  O1676    1.0000 0.17679  0.19427  0.30979  Biso   1.000  O
  O1677    1.0000 0.12562  0.13916  0.34637  Biso   1.000  O
  O1678    1.0000 0.70547  0.21890  0.81715  Biso   1.000  O
  O1679    1.0000 0.68272  0.22197  0.80610  Biso   1.000  O
  O1680    1.0000 0.67520  0.25800  0.88331  Biso   1.000  O
  O1681    1.0000 0.65609  0.24158  0.87887  Biso   1.000  O
  O1682    1.0000 0.17669  0.66065  0.64488  Biso   1.000  O
  O1683    1.0000 0.97773  0.05082  0.18111  Biso   1.000  O
  O1684    1.0000 0.05196  0.06758  0.16581  Biso   1.000  O
  O1685    1.0000 0.06332  0.03137  0.27502  Biso   1.000  O
  O1686    1.0000 0.04567  0.01795  0.28721  Biso   1.000  O
  O1687    1.0000 0.73511  0.67650  0.42727  Biso   1.000  O
  O1688    1.0000 0.74412  0.68828  0.40653  Biso   1.000  O
  O1689    1.0000 0.65433  0.72127  0.41430  Biso   1.000  O
  O1690    1.0000 0.63688  0.73010  0.39830  Biso   1.000  O
  O1691    1.0000 0.62160  0.64594  0.39734  Biso   1.000  O
  O1692    1.0000 0.62303  0.65402  0.37322  Biso   1.000  O
  O1693    1.0000 0.17644  0.69369  0.80887  Biso   1.000  O
  O1694    1.0000 0.12509  0.64061  0.84812  Biso   1.000  O
  O1695    1.0000 0.70635  0.71986  0.31761  Biso   1.000  O
  O1696    1.0000 0.68306  0.72266  0.30769  Biso   1.000  O
  O1697    1.0000 0.67565  0.75867  0.38463  Biso   1.000  O
  O1698    1.0000 0.65738  0.74145  0.38038  Biso   1.000  O
  O1699    1.0000 0.17731  0.58771  0.60614  Biso   1.000  O
  O1700    1.0000 0.97663  0.19965  0.06736  Biso   1.000  O
  O1701    1.0000 0.05138  0.18139  0.08417  Biso   1.000  O
  O1702    1.0000 0.06250  0.22577  0.96422  Biso   1.000  O
  O1703    1.0000 0.03771  0.22367  0.96865  Biso   1.000  O
  O1704    1.0000 0.73521  0.57435  0.82229  Biso   1.000  O
  O1705    1.0000 0.74280  0.56320  0.84375  Biso   1.000  O
  O1706    1.0000 0.65249  0.52868  0.83475  Biso   1.000  O
  O1707    1.0000 0.63519  0.51957  0.85095  Biso   1.000  O
  O1708    1.0000 0.63148  0.60526  0.85387  Biso   1.000  O
  O1709    1.0000 0.61276  0.59708  0.86876  Biso   1.000  O
  O1710    1.0000 0.17330  0.56135  0.44929  Biso   1.000  O
  O1711    1.0000 0.12987  0.60300  0.39338  Biso   1.000  O
  O1712    1.0000 0.70557  0.53034  0.93288  Biso   1.000  O
  O1713    1.0000 0.68261  0.52690  0.94351  Biso   1.000  O
  O1714    1.0000 0.67478  0.49300  0.86610  Biso   1.000  O
  O1715    1.0000 0.65571  0.50968  0.86948  Biso   1.000  O
  O1716    1.0000 0.17575  0.08655  0.10813  Biso   1.000  O
  O1717    1.0000 0.97182  0.69105  0.57152  Biso   1.000  O
  O1718    1.0000 0.05132  0.68333  0.58696  Biso   1.000  O
  O1719    1.0000 0.06514  0.71946  0.47426  Biso   1.000  O
  O1720    1.0000 0.04659  0.73115  0.46156  Biso   1.000  O
  O1721    1.0000 0.73525  0.07469  0.32237  Biso   1.000  O
  O1722    1.0000 0.74317  0.06400  0.34386  Biso   1.000  O
  O1723    1.0000 0.65342  0.02867  0.33433  Biso   1.000  O
  O1724    1.0000 0.63575  0.01975  0.35016  Biso   1.000  O
  O1725    1.0000 0.63210  0.10563  0.35319  Biso   1.000  O
  O1726    1.0000 0.61321  0.09713  0.36773  Biso   1.000  O
  O1727    1.0000 0.17349  0.05620  0.94192  Biso   1.000  O
  O1728    1.0000 0.12405  0.10869  0.90073  Biso   1.000  O
  O1729    1.0000 0.70531  0.03108  0.43259  Biso   1.000  O
  O1730    1.0000 0.68246  0.02758  0.44343  Biso   1.000  O
  O1731    1.0000 0.67490  0.99303  0.36629  Biso   1.000  O
  O1732    1.0000 0.65590  0.00982  0.36909  Biso   1.000  O
  O1733    1.0000 0.67748  0.58731  0.10730  Biso   1.000  O
  O1734    1.0000 0.47070  0.19033  0.57195  Biso   1.000  O
  O1735    1.0000 0.55085  0.18185  0.58496  Biso   1.000  O
  O1736    1.0000 0.56332  0.21661  0.47431  Biso   1.000  O
  O1737    1.0000 0.54561  0.22920  0.46131  Biso   1.000  O
  O1738    1.0000 0.23564  0.57451  0.32278  Biso   1.000  O
  O1739    1.0000 0.24325  0.56422  0.34467  Biso   1.000  O
  O1740    1.0000 0.15403  0.52897  0.33610  Biso   1.000  O
  O1741    1.0000 0.13723  0.52002  0.35300  Biso   1.000  O
  O1742    1.0000 0.13151  0.60548  0.35380  Biso   1.000  O
  O1743    1.0000 0.11339  0.59738  0.36953  Biso   1.000  O
  O1744    1.0000 0.67484  0.55528  0.94185  Biso   1.000  O
  O1745    1.0000 0.62862  0.60192  0.89313  Biso   1.000  O
  O1746    1.0000 0.20235  0.52156  0.44059  Biso   1.000  O
  O1747    1.0000 0.18134  0.53558  0.43767  Biso   1.000  O
  O1748    1.0000 0.17616  0.49175  0.36664  Biso   1.000  O
  O1749    1.0000 0.15742  0.50860  0.37096  Biso   1.000  O
  O1750    1.0000 0.67583  0.08717  0.60699  Biso   1.000  O
  O1751    1.0000 0.47217  0.69123  0.07254  Biso   1.000  O
  O1752    1.0000 0.55260  0.68181  0.08482  Biso   1.000  O
  O1753    1.0000 0.56543  0.71884  0.97429  Biso   1.000  O
  O1754    1.0000 0.54698  0.73080  0.96163  Biso   1.000  O
  O1755    1.0000 0.23528  0.07473  0.82286  Biso   1.000  O
  O1756    1.0000 0.24254  0.06291  0.84399  Biso   1.000  O
  O1757    1.0000 0.14204  0.02570  0.83001  Biso   1.000  O
  O1758    1.0000 0.14267  0.02148  0.85515  Biso   1.000  O
  O1759    1.0000 0.12008  0.10476  0.85090  Biso   1.000  O
  O1760    1.0000 0.12117  0.09572  0.87458  Biso   1.000  O
  O1761    1.0000 0.67472  0.05593  0.44147  Biso   1.000  O
  O1762    1.0000 0.62835  0.10197  0.39257  Biso   1.000  O
  O1763    1.0000 0.20440  0.03154  0.93246  Biso   1.000  O
  O1764    1.0000 0.18137  0.02786  0.94277  Biso   1.000  O
  O1765    1.0000 0.17800  0.00315  0.86127  Biso   1.000  O
  O1766    1.0000 0.56249  0.65942  0.10279  Biso   1.000  O
  O1767    1.0000 0.77736  0.05932  0.57199  Biso   1.000  O
  O1768    1.0000 0.69886  0.07437  0.59091  Biso   1.000  O
  O1769    1.0000 0.68649  0.03125  0.47392  Biso   1.000  O
  O1770    1.0000 0.70485  0.01945  0.46103  Biso   1.000  O
  O1771    1.0000 0.01428  0.67590  0.32227  Biso   1.000  O
  O1772    1.0000 0.00748  0.68622  0.34435  Biso   1.000  O
  O1773    1.0000 0.10670  0.72430  0.33314  Biso   1.000  O
  O1774    1.0000 0.10475  0.72873  0.35827  Biso   1.000  O
  O1775    1.0000 0.11987  0.64608  0.35342  Biso   1.000  O
  O1776    1.0000 0.13771  0.65357  0.36996  Biso   1.000  O
  O1777    1.0000 0.57636  0.69332  0.94235  Biso   1.000  O
  O1778    1.0000 0.62141  0.64666  0.89443  Biso   1.000  O
  O1779    1.0000 0.04630  0.71982  0.43317  Biso   1.000  O
  O1780    1.0000 0.06933  0.72271  0.44383  Biso   1.000  O
  O1781    1.0000 0.07020  0.74858  0.36239  Biso   1.000  O
  O1782    1.0000 0.09318  0.75192  0.37259  Biso   1.000  O
  O1783    1.0000 0.56135  0.15990  0.60317  Biso   1.000  O
  O1784    1.0000 0.77326  0.54677  0.06914  Biso   1.000  O
  O1785    1.0000 0.70000  0.57361  0.09111  Biso   1.000  O
  O1786    1.0000 0.68640  0.53002  0.97392  Biso   1.000  O
  O1787    1.0000 0.70528  0.51864  0.96134  Biso   1.000  O
  O1788    1.0000 0.01479  0.17743  0.82229  Biso   1.000  O
  O1789    1.0000 0.00597  0.18673  0.84433  Biso   1.000  O
  O1790    1.0000 0.09618  0.22159  0.83823  Biso   1.000  O
  O1791    1.0000 0.11354  0.23109  0.85395  Biso   1.000  O
  O1792    1.0000 0.13054  0.14694  0.85330  Biso   1.000  O
  O1793    1.0000 0.12858  0.15416  0.87757  Biso   1.000  O
  O1794    1.0000 0.57414  0.19150  0.44197  Biso   1.000  O
  O1795    1.0000 0.62030  0.14662  0.39390  Biso   1.000  O
  O1796    1.0000 0.04691  0.22681  0.93917  Biso   1.000  O
  O1797    1.0000 0.06808  0.21290  0.93693  Biso   1.000  O
  O1798    1.0000 0.07444  0.25959  0.86734  Biso   1.000  O
  O1799    1.0000 0.09303  0.24266  0.87179  Biso   1.000  O
  O1800    1.0000 0.06249  0.66059  0.60408  Biso   1.000  O
  O1801    1.0000 0.27694  0.05842  0.07152  Biso   1.000  O
  O1802    1.0000 0.19907  0.07435  0.09194  Biso   1.000  O
  O1803    1.0000 0.18506  0.03030  0.97332  Biso   1.000  O
  O1804    1.0000 0.20392  0.01911  0.96053  Biso   1.000  O
  O1805    1.0000 0.51451  0.67675  0.82178  Biso   1.000  O
  O1806    1.0000 0.50771  0.68703  0.84394  Biso   1.000  O
  O1807    1.0000 0.60775  0.72372  0.83383  Biso   1.000  O
  O1808    1.0000 0.60615  0.72844  0.85891  Biso   1.000  O
  O1809    1.0000 0.62043  0.64593  0.85401  Biso   1.000  O
  O1810    1.0000 0.63802  0.65268  0.87115  Biso   1.000  O
  O1811    1.0000 0.07647  0.69403  0.44230  Biso   1.000  O
  O1812    1.0000 0.12168  0.64769  0.39377  Biso   1.000  O
  O1813    1.0000 0.54670  0.71951  0.93316  Biso   1.000  O
  O1814    1.0000 0.56969  0.72209  0.94396  Biso   1.000  O
  O1815    1.0000 0.57147  0.74829  0.86290  Biso   1.000  O
  O1816    1.0000 0.59450  0.75154  0.87311  Biso   1.000  O
  O1817    1.0000 0.06148  0.15876  0.10151  Biso   1.000  O
  O1818    1.0000 0.27276  0.54995  0.56806  Biso   1.000  O
  O1819    1.0000 0.19948  0.57539  0.58918  Biso   1.000  O
  O1820    1.0000 0.18642  0.52366  0.46569  Biso   1.000  O
  O1821    1.0000 0.21148  0.52521  0.46990  Biso   1.000  O
  O1822    1.0000 0.51488  0.17661  0.32210  Biso   1.000  O
  O1823    1.0000 0.50616  0.18629  0.34397  Biso   1.000  O
  O1824    1.0000 0.59745  0.22137  0.33832  Biso   1.000  O
  O1825    1.0000 0.61485  0.23095  0.35398  Biso   1.000  O
  O1826    1.0000 0.62044  0.14622  0.35392  Biso   1.000  O
  O1827    1.0000 0.63764  0.15316  0.37126  Biso   1.000  O
  O1828    1.0000 0.07610  0.18740  0.94966  Biso   1.000  O
  O1829    1.0000 0.12310  0.13881  0.90180  Biso   1.000  O
  O1830    1.0000 0.54480  0.21780  0.43284  Biso   1.000  O
  O1831    1.0000 0.56772  0.22023  0.44383  Biso   1.000  O
  O1832    1.0000 0.57520  0.25824  0.36780  Biso   1.000  O
  O1833    1.0000 0.59419  0.24167  0.37210  Biso   1.000  O
  O1834    1.0000 0.06387  0.08862  0.14754  Biso   1.000  O
  O1835    1.0000 0.27819  0.68977  0.67725  Biso   1.000  O
  O1836    1.0000 0.20004  0.67388  0.66083  Biso   1.000  O
  O1837    1.0000 0.18685  0.71819  0.77572  Biso   1.000  O
  O1838    1.0000 0.20424  0.73163  0.78816  Biso   1.000  O
  O1839    1.0000 0.52228  0.07709  0.92151  Biso   1.000  O
  O1840    1.0000 0.50326  0.06093  0.91643  Biso   1.000  O
  O1841    1.0000 0.59652  0.02850  0.91315  Biso   1.000  O
  O1842    1.0000 0.61367  0.01967  0.89661  Biso   1.000  O
  O1843    1.0000 0.61767  0.10509  0.89458  Biso   1.000  O
  O1844    1.0000 0.63598  0.09729  0.87897  Biso   1.000  O
  O1845    1.0000 0.07375  0.05516  0.30857  Biso   1.000  O
  O1846    1.0000 0.12428  0.10888  0.34708  Biso   1.000  O
  O1847    1.0000 0.54840  0.02091  0.81033  Biso   1.000  O
  O1848    1.0000 0.56967  0.03476  0.81220  Biso   1.000  O
  O1849    1.0000 0.57496  0.99064  0.88329  Biso   1.000  O
  O1850    1.0000 0.59327  0.00787  0.87875  Biso   1.000  O
  O1851    1.0000 0.06295  0.58721  0.64616  Biso   1.000  O
  O1852    1.0000 0.27744  0.19121  0.17611  Biso   1.000  O
  O1853    1.0000 0.19879  0.17527  0.15893  Biso   1.000  O
  O1854    1.0000 0.18685  0.21949  0.27708  Biso   1.000  O
  O1855    1.0000 0.20604  0.23078  0.28929  Biso   1.000  O
  O1856    1.0000 0.51571  0.57481  0.42792  Biso   1.000  O
  O1857    1.0000 0.50682  0.56411  0.40656  Biso   1.000  O
  O1858    1.0000 0.60629  0.52575  0.41792  Biso   1.000  O
  O1859    1.0000 0.60479  0.52085  0.39293  Biso   1.000  O
  O1860    1.0000 0.63059  0.60343  0.39763  Biso   1.000  O
  O1861    1.0000 0.62875  0.59545  0.37365  Biso   1.000  O
  O1862    1.0000 0.07740  0.56329  0.79883  Biso   1.000  O
  O1863    1.0000 0.12348  0.61050  0.84821  Biso   1.000  O
  O1864    1.0000 0.54894  0.52175  0.31083  Biso   1.000  O
  O1865    1.0000 0.56995  0.53578  0.31275  Biso   1.000  O
  O1866    1.0000 0.57091  0.50042  0.38808  Biso   1.000  O
  O1867    1.0000 0.59413  0.49728  0.37855  Biso   1.000  O
  O1868    1.0000 0.56254  0.08859  0.64782  Biso   1.000  O
  O1869    1.0000 0.77833  0.68996  0.17683  Biso   1.000  O
  O1870    1.0000 0.69948  0.67382  0.16002  Biso   1.000  O
  O1871    1.0000 0.68590  0.71885  0.27694  Biso   1.000  O
  O1872    1.0000 0.70402  0.73153  0.28921  Biso   1.000  O
  O1873    1.0000 0.01546  0.07323  0.42741  Biso   1.000  O
  O1874    1.0000 0.00674  0.06190  0.40633  Biso   1.000  O
  O1875    1.0000 0.09775  0.02920  0.41365  Biso   1.000  O
  O1876    1.0000 0.11463  0.02006  0.39699  Biso   1.000  O
  O1877    1.0000 0.13021  0.10475  0.39676  Biso   1.000  O
  O1878    1.0000 0.12807  0.09568  0.37315  Biso   1.000  O
  O1879    1.0000 0.57704  0.06053  0.80003  Biso   1.000  O
  O1880    1.0000 0.62013  0.10336  0.85496  Biso   1.000  O
  O1881    1.0000 0.04488  0.02772  0.31617  Biso   1.000  O
  O1882    1.0000 0.06789  0.02635  0.30528  Biso   1.000  O
  O1883    1.0000 0.07577  0.99183  0.38296  Biso   1.000  O
  O1884    1.0000 0.09441  0.00873  0.37845  Biso   1.000  O
  O1885    1.0000 0.56267  0.58884  0.14787  Biso   1.000  O
  O1886    1.0000 0.77717  0.19128  0.67630  Biso   1.000  O
  O1887    1.0000 0.69608  0.18421  0.66353  Biso   1.000  O
  O1888    1.0000 0.68718  0.21845  0.77565  Biso   1.000  O
  O1889    1.0000 0.70494  0.23088  0.78880  Biso   1.000  O
  O1890    1.0000 0.01536  0.57494  0.92917  Biso   1.000  O
  O1891    1.0000 0.00741  0.56371  0.90773  Biso   1.000  O
  O1892    1.0000 0.10722  0.52695  0.91869  Biso   1.000  O
  O1893    1.0000 0.10648  0.52205  0.89355  Biso   1.000  O
  O1894    1.0000 0.13025  0.60483  0.89752  Biso   1.000  O
  O1895    1.0000 0.12746  0.59641  0.87371  Biso   1.000  O
  O1896    1.0000 0.57723  0.56132  0.30043  Biso   1.000  O
  O1897    1.0000 0.62510  0.60964  0.34821  Biso   1.000  O
  O1898    1.0000 0.05052  0.52351  0.81209  Biso   1.000  O
  O1899    1.0000 0.07104  0.53848  0.81329  Biso   1.000  O
  O1900    1.0000 0.07106  0.50387  0.88988  Biso   1.000  O
  O1901    1.0000 0.09372  0.49940  0.87923  Biso   1.000  O
  O1902    1.0000 0.14609  0.08734  0.06500  Biso   1.000  O
  O1903    1.0000 0.67660  0.69100  0.27940  Biso   1.000  O
  O1904    1.0000 0.66514  0.68258  0.19812  Biso   1.000  O
  O1905    1.0000 0.77704  0.71770  0.18597  Biso   1.000  O
  O1906    1.0000 0.78969  0.72945  0.20450  Biso   1.000  O
  O1907    1.0000 0.92880  0.07543  0.51582  Biso   1.000  O
  O1908    1.0000 0.90768  0.06386  0.50789  Biso   1.000  O
  O1909    1.0000 0.91586  0.02502  0.60824  Biso   1.000  O
  O1910    1.0000 0.89094  0.02062  0.60604  Biso   1.000  O
  O1911    1.0000 0.89546  0.10394  0.61998  Biso   1.000  O
  O1912    1.0000 0.87868  0.09648  0.63761  Biso   1.000  O
  O1913    1.0000 0.30763  0.05623  0.07319  Biso   1.000  O
  O1914    1.0000 0.35497  0.10207  0.12006  Biso   1.000  O
  O1915    1.0000 0.81734  0.03201  0.54368  Biso   1.000  O
  O1916    1.0000 0.80648  0.02839  0.56644  Biso   1.000  O
  O1917    1.0000 0.88715  0.00171  0.57061  Biso   1.000  O
  O1918    1.0000 0.87631  0.99806  0.59332  Biso   1.000  O
  O1919    1.0000 0.14695  0.59167  0.56320  Biso   1.000  O
  O1920    1.0000 0.67813  0.19064  0.77703  Biso   1.000  O
  O1921    1.0000 0.65951  0.17367  0.69952  Biso   1.000  O
  O1922    1.0000 0.77576  0.21862  0.68653  Biso   1.000  O
  O1923    1.0000 0.78874  0.22999  0.70508  Biso   1.000  O
  O1924    1.0000 0.92769  0.57444  0.01509  Biso   1.000  O
  O1925    1.0000 0.90583  0.56354  0.00824  Biso   1.000  O
  O1926    1.0000 0.91693  0.52481  0.10706  Biso   1.000  O
  O1927    1.0000 0.89194  0.52041  0.10480  Biso   1.000  O
  O1928    1.0000 0.89591  0.60320  0.11991  Biso   1.000  O
  O1929    1.0000 0.87949  0.59548  0.13776  Biso   1.000  O
  O1930    1.0000 0.29998  0.56212  0.57641  Biso   1.000  O
  O1931    1.0000 0.35528  0.60245  0.62065  Biso   1.000  O
  O1932    1.0000 0.81131  0.52235  0.04594  Biso   1.000  O
  O1933    1.0000 0.81359  0.53556  0.06765  Biso   1.000  O
  O1934    1.0000 0.88842  0.50091  0.06982  Biso   1.000  O
  O1935    1.0000 0.87771  0.49745  0.09262  Biso   1.000  O
  O1936    1.0000 0.64636  0.08881  0.56397  Biso   1.000  O
  O1937    1.0000 0.17842  0.69020  0.77845  Biso   1.000  O
  O1938    1.0000 0.16623  0.68115  0.69891  Biso   1.000  O
  O1939    1.0000 0.27527  0.71775  0.68558  Biso   1.000  O
  O1940    1.0000 0.28767  0.73114  0.70317  Biso   1.000  O
  O1941    1.0000 0.42885  0.07534  0.01573  Biso   1.000  O
  O1942    1.0000 0.40727  0.06404  0.00861  Biso   1.000  O
  O1943    1.0000 0.41430  0.02467  0.10811  Biso   1.000  O
  O1944    1.0000 0.38945  0.02055  0.10435  Biso   1.000  O
  O1945    1.0000 0.39483  0.10349  0.11975  Biso   1.000  O
  O1946    1.0000 0.37793  0.09612  0.13730  Biso   1.000  O
  O1947    1.0000 0.80810  0.05699  0.57359  Biso   1.000  O
  O1948    1.0000 0.85558  0.10247  0.62052  Biso   1.000  O
  O1949    1.0000 0.31724  0.03179  0.04319  Biso   1.000  O
  O1950    1.0000 0.30624  0.02765  0.06574  Biso   1.000  O
  O1951    1.0000 0.38762  0.00151  0.06922  Biso   1.000  O
  O1952    1.0000 0.37588  0.99732  0.09132  Biso   1.000  O
  O1953    1.0000 0.64784  0.58926  0.06426  Biso   1.000  O
  O1954    1.0000 0.17668  0.19199  0.27872  Biso   1.000  O
  O1955    1.0000 0.16459  0.18424  0.19715  Biso   1.000  O
  O1956    1.0000 0.27618  0.21853  0.18662  Biso   1.000  O
  O1957    1.0000 0.28921  0.22967  0.20527  Biso   1.000  O
  O1958    1.0000 0.42858  0.57502  0.51506  Biso   1.000  O
  O1959    1.0000 0.40730  0.56360  0.50749  Biso   1.000  O
  O1960    1.0000 0.41570  0.52543  0.60640  Biso   1.000  O
  O1961    1.0000 0.39067  0.52083  0.60395  Biso   1.000  O
  O1962    1.0000 0.39533  0.60353  0.61998  Biso   1.000  O
  O1963    1.0000 0.37843  0.59600  0.63748  Biso   1.000  O
  O1964    1.0000 0.80023  0.55988  0.07718  Biso   1.000  O
  O1965    1.0000 0.85633  0.60140  0.12087  Biso   1.000  O
  O1966    1.0000 0.31068  0.52297  0.54749  Biso   1.000  O
  O1967    1.0000 0.31260  0.53676  0.56891  Biso   1.000  O
  O1968    1.0000 0.38824  0.50144  0.56890  Biso   1.000  O
  O1969    1.0000 0.37703  0.49749  0.59138  Biso   1.000  O
  O1970    1.0000 0.10598  0.66408  0.57665  Biso   1.000  O
  O1971    1.0000 0.56818  0.04870  0.77285  Biso   1.000  O
  O1972    1.0000 0.59058  0.07820  0.70043  Biso   1.000  O
  O1973    1.0000 0.46335  0.02427  0.68638  Biso   1.000  O
  O1974    1.0000 0.46851  0.02602  0.71122  Biso   1.000  O
  O1975    1.0000 0.32258  0.67590  0.01514  Biso   1.000  O
  O1976    1.0000 0.34363  0.68680  0.00594  Biso   1.000  O
  O1977    1.0000 0.33705  0.72030  0.09530  Biso   1.000  O
  O1978    1.0000 0.35288  0.72898  0.11292  Biso   1.000  O
  O1979    1.0000 0.35422  0.64518  0.12945  Biso   1.000  O
  O1980    1.0000 0.37821  0.65367  0.12755  Biso   1.000  O
  O1981    1.0000 0.94076  0.69211  0.57201  Biso   1.000  O
  O1982    1.0000 0.90424  0.63908  0.62363  Biso   1.000  O
  O1983    1.0000 0.43232  0.71830  0.04331  Biso   1.000  O
  O1984    1.0000 0.44238  0.72156  0.06650  Biso   1.000  O
  O1985    1.0000 0.36620  0.75822  0.07451  Biso   1.000  O
  O1986    1.0000 0.37063  0.74094  0.09270  Biso   1.000  O
  O1987    1.0000 0.10451  0.15995  0.07451  Biso   1.000  O
  O1988    1.0000 0.56812  0.54936  0.27307  Biso   1.000  O
  O1989    1.0000 0.59044  0.57566  0.20037  Biso   1.000  O
  O1990    1.0000 0.46548  0.52261  0.18719  Biso   1.000  O
  O1991    1.0000 0.46985  0.52455  0.21213  Biso   1.000  O
  O1992    1.0000 0.32190  0.17595  0.51590  Biso   1.000  O
  O1993    1.0000 0.34363  0.18582  0.50716  Biso   1.000  O
  O1994    1.0000 0.33607  0.22180  0.59462  Biso   1.000  O
  O1995    1.0000 0.35197  0.23009  0.61237  Biso   1.000  O
  O1996    1.0000 0.35329  0.14481  0.61889  Biso   1.000  O
  O1997    1.0000 0.36886  0.15394  0.63675  Biso   1.000  O
  O1998    1.0000 0.94958  0.18695  0.07614  Biso   1.000  O
  O1999    1.0000 0.90215  0.13869  0.12320  Biso   1.000  O
  O2000    1.0000 0.43160  0.21811  0.54320  Biso   1.000  O
  O2001    1.0000 0.44243  0.22190  0.56592  Biso   1.000  O
  O2002    1.0000 0.36612  0.25905  0.57397  Biso   1.000  O
  O2003    1.0000 0.37031  0.24186  0.59244  Biso   1.000  O
  O2004    1.0000 0.60659  0.66174  0.07581  Biso   1.000  O
  O2005    1.0000 0.07174  0.05938  0.27809  Biso   1.000  O
  O2006    1.0000 0.09004  0.07854  0.20138  Biso   1.000  O
  O2007    1.0000 0.96545  0.02450  0.18546  Biso   1.000  O
  O2008    1.0000 0.96931  0.02592  0.21057  Biso   1.000  O
  O2009    1.0000 0.82141  0.67566  0.51643  Biso   1.000  O
  O2010    1.0000 0.84288  0.68633  0.50788  Biso   1.000  O
  O2011    1.0000 0.83373  0.72345  0.60738  Biso   1.000  O
  O2012    1.0000 0.85846  0.72792  0.60374  Biso   1.000  O
  O2013    1.0000 0.85550  0.64610  0.63088  Biso   1.000  O
  O2014    1.0000 0.87956  0.65399  0.62881  Biso   1.000  O
  O2015    1.0000 0.44126  0.69281  0.07291  Biso   1.000  O
  O2016    1.0000 0.40347  0.63927  0.12337  Biso   1.000  O
  O2017    1.0000 0.93142  0.71712  0.54225  Biso   1.000  O
  O2018    1.0000 0.94126  0.72093  0.56545  Biso   1.000  O
  O2019    1.0000 0.86063  0.74831  0.56942  Biso   1.000  O
  O2020    1.0000 0.87249  0.75092  0.59167  Biso   1.000  O
  O2021    1.0000 0.60494  0.16158  0.57512  Biso   1.000  O
  O2022    1.0000 0.06882  0.54927  0.77278  Biso   1.000  O
  O2023    1.0000 0.09155  0.57541  0.69852  Biso   1.000  O
  O2024    1.0000 0.97381  0.52964  0.68820  Biso   1.000  O
  O2025    1.0000 0.96026  0.51783  0.70604  Biso   1.000  O
  O2026    1.0000 0.82267  0.17679  0.01405  Biso   1.000  O
  O2027    1.0000 0.84449  0.18640  0.00535  Biso   1.000  O
  O2028    1.0000 0.83606  0.22092  0.09504  Biso   1.000  O
  O2029    1.0000 0.85120  0.23011  0.11307  Biso   1.000  O
  O2030    1.0000 0.85309  0.14641  0.12946  Biso   1.000  O
  O2031    1.0000 0.87722  0.15390  0.12716  Biso   1.000  O
  O2032    1.0000 0.44021  0.19337  0.57302  Biso   1.000  O
  O2033    1.0000 0.39272  0.14853  0.62052  Biso   1.000  O
  O2034    1.0000 0.93824  0.22662  0.04816  Biso   1.000  O
  O2035    1.0000 0.93686  0.21248  0.06936  Biso   1.000  O
  O2036    1.0000 0.86637  0.25837  0.07454  Biso   1.000  O
  O2037    1.0000 0.86994  0.24152  0.09350  Biso   1.000  O
  O2038    1.0000 0.60617  0.58688  0.17686  Biso   1.000  O
  O2039    1.0000 0.06719  0.19949  0.97665  Biso   1.000  O
  O2040    1.0000 0.09016  0.17171  0.04984  Biso   1.000  O
  O2041    1.0000 0.96394  0.22571  0.06429  Biso   1.000  O
  O2042    1.0000 0.96768  0.22542  0.03915  Biso   1.000  O
  O2043    1.0000 0.82247  0.57456  0.73426  Biso   1.000  O
  O2044    1.0000 0.84340  0.56303  0.74315  Biso   1.000  O
  O2045    1.0000 0.83369  0.52604  0.64336  Biso   1.000  O
  O2046    1.0000 0.85862  0.52112  0.64610  Biso   1.000  O
  O2047    1.0000 0.85441  0.60381  0.62095  Biso   1.000  O
  O2048    1.0000 0.87829  0.59546  0.62169  Biso   1.000  O
  O2049    1.0000 0.45038  0.56058  0.17346  Biso   1.000  O
  O2050    1.0000 0.40369  0.60973  0.12513  Biso   1.000  O
  O2051    1.0000 0.93227  0.53032  0.70620  Biso   1.000  O
  O2052    1.0000 0.94315  0.52660  0.68339  Biso   1.000  O
  O2053    1.0000 0.86119  0.50186  0.68023  Biso   1.000  O
  O2054    1.0000 0.87237  0.49748  0.65795  Biso   1.000  O
  O2055    1.0000 0.60497  0.08870  0.67549  Biso   1.000  O
  O2056    1.0000 0.07452  0.69161  0.47305  Biso   1.000  O
  O2057    1.0000 0.09089  0.67631  0.55254  Biso   1.000  O
  O2058    1.0000 0.97203  0.71885  0.56243  Biso   1.000  O
  O2059    1.0000 0.95933  0.73028  0.54369  Biso   1.000  O
  O2060    1.0000 0.82231  0.07479  0.23541  Biso   1.000  O
  O2061    1.0000 0.84395  0.06420  0.24302  Biso   1.000  O
  O2062    1.0000 0.83433  0.02858  0.15350  Biso   1.000  O
  O2063    1.0000 0.85021  0.01915  0.13604  Biso   1.000  O
  O2064    1.0000 0.85156  0.10404  0.12048  Biso   1.000  O
  O2065    1.0000 0.87528  0.09503  0.12118  Biso   1.000  O
  O2066    1.0000 0.44951  0.06321  0.67381  Biso   1.000  O
  O2067    1.0000 0.39469  0.10442  0.63075  Biso   1.000  O
  O2068    1.0000 0.94019  0.02287  0.20052  Biso   1.000  O
  O2069    1.0000 0.93808  0.03786  0.18023  Biso   1.000  O
  O2070    1.0000 0.86657  0.99294  0.17538  Biso   1.000  O
  O2071    1.0000 0.86927  0.00921  0.15581  Biso   1.000  O
  O2072    1.0000 0.10629  0.58596  0.67398  Biso   1.000  O
  O2073    1.0000 0.57203  0.18852  0.47250  Biso   1.000  O
  O2074    1.0000 0.58930  0.17269  0.55079  Biso   1.000  O
  O2075    1.0000 0.47283  0.21816  0.56231  Biso   1.000  O
  O2076    1.0000 0.45996  0.23013  0.54400  Biso   1.000  O
  O2077    1.0000 0.32888  0.57893  0.22790  Biso   1.000  O
  O2078    1.0000 0.33337  0.56266  0.24695  Biso   1.000  O
  O2079    1.0000 0.33426  0.52509  0.14290  Biso   1.000  O
  O2080    1.0000 0.35910  0.52002  0.14570  Biso   1.000  O
  O2081    1.0000 0.35435  0.60267  0.12095  Biso   1.000  O
  O2082    1.0000 0.37848  0.59504  0.12156  Biso   1.000  O
  O2083    1.0000 0.94257  0.55512  0.67538  Biso   1.000  O
  O2084    1.0000 0.90386  0.60930  0.62472  Biso   1.000  O
  O2085    1.0000 0.44035  0.52139  0.20292  Biso   1.000  O
  O2086    1.0000 0.43790  0.53519  0.18166  Biso   1.000  O
  O2087    1.0000 0.36224  0.50111  0.18048  Biso   1.000  O
  O2088    1.0000 0.37269  0.49660  0.15788  Biso   1.000  O
  O2089    1.0000 0.10547  0.08851  0.17639  Biso   1.000  O
  O2090    1.0000 0.57441  0.69086  0.97301  Biso   1.000  O
  O2091    1.0000 0.59150  0.67342  0.05144  Biso   1.000  O
  O2092    1.0000 0.47286  0.71943  0.06348  Biso   1.000  O
  O2093    1.0000 0.46030  0.73105  0.04476  Biso   1.000  O
  O2094    1.0000 0.32097  0.07501  0.73408  Biso   1.000  O
  O2095    1.0000 0.34206  0.06354  0.74279  Biso   1.000  O
  O2096    1.0000 0.33524  0.02857  0.65396  Biso   1.000  O
  O2097    1.0000 0.35251  0.01957  0.63767  Biso   1.000  O
  O2098    1.0000 0.35511  0.10486  0.63297  Biso   1.000  O
  O2099    1.0000 0.37079  0.09708  0.61473  Biso   1.000  O
  O2100    1.0000 0.95092  0.06310  0.17267  Biso   1.000  O
  O2101    1.0000 0.90098  0.10875  0.12512  Biso   1.000  O
  O2102    1.0000 0.43899  0.02338  0.70221  Biso   1.000  O
  O2103    1.0000 0.43595  0.03853  0.68212  Biso   1.000  O
  O2104    1.0000 0.36547  0.99268  0.67766  Biso   1.000  O
  O2105    1.0000 0.36965  0.00942  0.65899  Biso   1.000  O
  O2106    1.0000 0.64311  0.16205  0.67635  Biso   1.000  O
  O2107    1.0000 0.18148  0.55008  0.47706  Biso   1.000  O
  O2108    1.0000 0.16374  0.56870  0.55195  Biso   1.000  O
  O2109    1.0000 0.28532  0.52370  0.56378  Biso   1.000  O
  O2110    1.0000 0.28095  0.52521  0.53884  Biso   1.000  O
  O2111    1.0000 0.42073  0.17127  0.22714  Biso   1.000  O
  O2112    1.0000 0.41616  0.18760  0.24619  Biso   1.000  O
  O2113    1.0000 0.41457  0.22283  0.14235  Biso   1.000  O
  O2114    1.0000 0.38970  0.22791  0.14484  Biso   1.000  O
  O2115    1.0000 0.39452  0.14413  0.13193  Biso   1.000  O
  O2116    1.0000 0.38009  0.15180  0.11261  Biso   1.000  O
  O2117    1.0000 0.80768  0.19357  0.67508  Biso   1.000  O
  O2118    1.0000 0.85611  0.14711  0.62859  Biso   1.000  O
  O2119    1.0000 0.31732  0.21695  0.20588  Biso   1.000  O
  O2120    1.0000 0.30685  0.22172  0.18315  Biso   1.000  O
  O2121    1.0000 0.38794  0.24763  0.17974  Biso   1.000  O
  O2122    1.0000 0.37638  0.25106  0.15733  Biso   1.000  O
  O2123    1.0000 0.64762  0.65960  0.18836  Biso   1.000  O
  O2124    1.0000 0.17505  0.05783  0.97291  Biso   1.000  O
  O2125    1.0000 0.16456  0.06470  0.05444  Biso   1.000  O
  O2126    1.0000 0.27580  0.03099  0.06131  Biso   1.000  O
  O2127    1.0000 0.28899  0.01938  0.04299  Biso   1.000  O
  O2128    1.0000 0.42067  0.67292  0.72756  Biso   1.000  O
  O2129    1.0000 0.41629  0.68882  0.74695  Biso   1.000  O
  O2130    1.0000 0.41383  0.72074  0.65299  Biso   1.000  O
  O2131    1.0000 0.39834  0.72927  0.63482  Biso   1.000  O
  O2132    1.0000 0.39583  0.64404  0.63238  Biso   1.000  O
  O2133    1.0000 0.38080  0.65204  0.61364  Biso   1.000  O
  O2134    1.0000 0.80914  0.69195  0.17631  Biso   1.000  O
  O2135    1.0000 0.85642  0.64587  0.12897  Biso   1.000  O
  O2136    1.0000 0.31650  0.72118  0.70400  Biso   1.000  O
  O2137    1.0000 0.30545  0.72239  0.68099  Biso   1.000  O
  O2138    1.0000 0.38278  0.75735  0.67346  Biso   1.000  O
  O2139    1.0000 0.37982  0.74000  0.65503  Biso   1.000  O
  O2140    1.0000 0.14690  0.16132  0.18711  Biso   1.000  O
  O2141    1.0000 0.67633  0.55753  0.97289  Biso   1.000  O
  O2142    1.0000 0.66479  0.56558  0.05407  Biso   1.000  O
  O2143    1.0000 0.78662  0.52155  0.06309  Biso   1.000  O
  O2144    1.0000 0.78140  0.52351  0.03833  Biso   1.000  O
  O2145    1.0000 0.92055  0.17284  0.72743  Biso   1.000  O
  O2146    1.0000 0.91570  0.18900  0.74655  Biso   1.000  O
  O2147    1.0000 0.91454  0.22354  0.64261  Biso   1.000  O
  O2148    1.0000 0.88958  0.22847  0.64449  Biso   1.000  O
  O2149    1.0000 0.89504  0.14464  0.63204  Biso   1.000  O
  O2150    1.0000 0.88040  0.15227  0.61288  Biso   1.000  O
  O2151    1.0000 0.30799  0.19338  0.17498  Biso   1.000  O
  O2152    1.0000 0.35555  0.14674  0.12787  Biso   1.000  O
  O2153    1.0000 0.81695  0.21743  0.70563  Biso   1.000  O
  O2154    1.0000 0.80633  0.22198  0.68294  Biso   1.000  O
  O2155    1.0000 0.88709  0.24835  0.67932  Biso   1.000  O
  O2156    1.0000 0.87585  0.25150  0.65668  Biso   1.000  O
  O2157    1.0000 0.14834  0.65830  0.68823  Biso   1.000  O
  O2158    1.0000 0.67616  0.05854  0.47234  Biso   1.000  O
  O2159    1.0000 0.66439  0.06569  0.55348  Biso   1.000  O
  O2160    1.0000 0.77624  0.03166  0.56244  Biso   1.000  O
  O2161    1.0000 0.78891  0.02023  0.54357  Biso   1.000  O
  O2162    1.0000 0.92147  0.67145  0.22772  Biso   1.000  O
  O2163    1.0000 0.91511  0.68756  0.24644  Biso   1.000  O
  O2164    1.0000 0.91512  0.72230  0.14334  Biso   1.000  O
  O2165    1.0000 0.89023  0.72750  0.14560  Biso   1.000  O
  O2166    1.0000 0.89538  0.64373  0.13230  Biso   1.000  O
  O2167    1.0000 0.88057  0.65121  0.11324  Biso   1.000  O
  O2168    1.0000 0.30848  0.69356  0.67505  Biso   1.000  O
  O2169    1.0000 0.35633  0.64703  0.62899  Biso   1.000  O
  O2170    1.0000 0.81779  0.71682  0.20609  Biso   1.000  O
  O2171    1.0000 0.80774  0.72064  0.18300  Biso   1.000  O
  O2172    1.0000 0.88842  0.74767  0.18017  Biso   1.000  O
  O2173    1.0000 0.87698  0.75092  0.15769  Biso   1.000  O
  O2174    1.0000 0.07318  0.14197  0.08666  Biso   1.000  O
  O2175    1.0000 0.27371  0.68030  0.70051  Biso   1.000  O
  O2176    1.0000 0.19836  0.66411  0.68443  Biso   1.000  O
  O2177    1.0000 0.18640  0.77557  0.71758  Biso   1.000  O
  O2178    1.0000 0.20558  0.78752  0.72902  Biso   1.000  O
  O2179    1.0000 0.52303  0.92159  0.07696  Biso   1.000  O
  O2180    1.0000 0.50373  0.91623  0.06138  Biso   1.000  O
  O2181    1.0000 0.59670  0.91236  0.02834  Biso   1.000  O
  O2182    1.0000 0.61380  0.89569  0.01996  Biso   1.000  O
  O2183    1.0000 0.61798  0.89507  0.10617  Biso   1.000  O
  O2184    1.0000 0.63625  0.87986  0.09759  Biso   1.000  O
  O2185    1.0000 0.07606  0.29773  0.06258  Biso   1.000  O
  O2186    1.0000 0.12409  0.34633  0.10936  Biso   1.000  O
  O2187    1.0000 0.54415  0.81641  0.03256  Biso   1.000  O
  O2188    1.0000 0.56653  0.80526  0.02865  Biso   1.000  O
  O2189    1.0000 0.57447  0.88202  0.99203  Biso   1.000  O
  O2190    1.0000 0.59270  0.87802  0.00941  Biso   1.000  O
  O2191    1.0000 0.07419  0.64432  0.58847  Biso   1.000  O
  O2192    1.0000 0.27215  0.18005  0.19850  Biso   1.000  O
  O2193    1.0000 0.19718  0.16631  0.18286  Biso   1.000  O
  O2194    1.0000 0.18728  0.27660  0.21957  Biso   1.000  O
  O2195    1.0000 0.20574  0.28899  0.23173  Biso   1.000  O
  O2196    1.0000 0.51414  0.42560  0.57446  Biso   1.000  O
  O2197    1.0000 0.50544  0.40385  0.56457  Biso   1.000  O
  O2198    1.0000 0.59597  0.41257  0.52895  Biso   1.000  O
  O2199    1.0000 0.61374  0.39758  0.51899  Biso   1.000  O
  O2200    1.0000 0.63044  0.39481  0.60321  Biso   1.000  O
  O2201    1.0000 0.62831  0.37091  0.59478  Biso   1.000  O
  O2202    1.0000 0.07182  0.80851  0.55716  Biso   1.000  O
  O2203    1.0000 0.12169  0.84668  0.61093  Biso   1.000  O
  O2204    1.0000 0.54462  0.31663  0.53096  Biso   1.000  O
  O2205    1.0000 0.56652  0.30485  0.52713  Biso   1.000  O
  O2206    1.0000 0.57434  0.38230  0.49217  Biso   1.000  O
  O2207    1.0000 0.59401  0.37875  0.50813  Biso   1.000  O
  O2208    1.0000 0.57384  0.14312  0.58894  Biso   1.000  O
  O2209    1.0000 0.77268  0.67956  0.19953  Biso   1.000  O
  O2210    1.0000 0.69803  0.66443  0.18382  Biso   1.000  O
  O2211    1.0000 0.68689  0.77549  0.21834  Biso   1.000  O
  O2212    1.0000 0.70560  0.78766  0.23040  Biso   1.000  O
  O2213    1.0000 0.02273  0.92216  0.57689  Biso   1.000  O
  O2214    1.0000 0.00345  0.91671  0.56136  Biso   1.000  O
  O2215    1.0000 0.09678  0.91262  0.52822  Biso   1.000  O
  O2216    1.0000 0.11326  0.89558  0.51917  Biso   1.000  O
  O2217    1.0000 0.13092  0.89506  0.60295  Biso   1.000  O
  O2218    1.0000 0.12695  0.87112  0.59594  Biso   1.000  O
  O2219    1.0000 0.57253  0.30785  0.55621  Biso   1.000  O
  O2220    1.0000 0.62257  0.34608  0.60922  Biso   1.000  O
  O2221    1.0000 0.04242  0.81733  0.53155  Biso   1.000  O
  O2222    1.0000 0.06492  0.80605  0.52837  Biso   1.000  O
  O2223    1.0000 0.07383  0.88225  0.49132  Biso   1.000  O
  O2224    1.0000 0.09266  0.87766  0.50806  Biso   1.000  O
  O2225    1.0000 0.57511  0.64281  0.08847  Biso   1.000  O
  O2226    1.0000 0.77175  0.18048  0.69882  Biso   1.000  O
  O2227    1.0000 0.69897  0.16051  0.67176  Biso   1.000  O
  O2228    1.0000 0.68634  0.27646  0.71895  Biso   1.000  O
  O2229    1.0000 0.70491  0.28879  0.73110  Biso   1.000  O
  O2230    1.0000 0.01571  0.42668  0.07522  Biso   1.000  O
  O2231    1.0000 0.00720  0.40501  0.06486  Biso   1.000  O
  O2232    1.0000 0.09799  0.41306  0.02891  Biso   1.000  O
  O2233    1.0000 0.11513  0.39708  0.01939  Biso   1.000  O
  O2234    1.0000 0.13093  0.39570  0.10421  Biso   1.000  O
  O2235    1.0000 0.12890  0.37196  0.09546  Biso   1.000  O
  O2236    1.0000 0.57353  0.80775  0.05734  Biso   1.000  O
  O2237    1.0000 0.62102  0.85527  0.10313  Biso   1.000  O
  O2238    1.0000 0.04803  0.30949  0.02274  Biso   1.000  O
  O2239    1.0000 0.06811  0.31117  0.03796  Biso   1.000  O
  O2240    1.0000 0.07517  0.38198  0.99312  Biso   1.000  O
  O2241    1.0000 0.09457  0.37861  0.00933  Biso   1.000  O
  O2242    1.0000 0.57287  0.10624  0.66284  Biso   1.000  O
  O2243    1.0000 0.77757  0.57055  0.06125  Biso   1.000  O
  O2244    1.0000 0.69796  0.58273  0.06728  Biso   1.000  O
  O2245    1.0000 0.68606  0.46433  0.02431  Biso   1.000  O
  O2246    1.0000 0.71110  0.46808  0.02503  Biso   1.000  O
  O2247    1.0000 0.01374  0.32259  0.67636  Biso   1.000  O
  O2248    1.0000 0.00557  0.34417  0.68697  Biso   1.000  O
  O2249    1.0000 0.10587  0.33328  0.72385  Biso   1.000  O
  O2250    1.0000 0.10430  0.35814  0.72928  Biso   1.000  O
  O2251    1.0000 0.12974  0.35454  0.64680  Biso   1.000  O
  O2252    1.0000 0.12717  0.37851  0.65415  Biso   1.000  O
  O2253    1.0000 0.57309  0.94200  0.69294  Biso   1.000  O
  O2254    1.0000 0.62469  0.90492  0.63946  Biso   1.000  O
  O2255    1.0000 0.04909  0.43858  0.72968  Biso   1.000  O
  O2256    1.0000 0.06891  0.43653  0.71409  Biso   1.000  O
  O2257    1.0000 0.06856  0.36029  0.74940  Biso   1.000  O
  O2258    1.0000 0.09118  0.37168  0.75202  Biso   1.000  O
  O2259    1.0000 0.57356  0.60607  0.16296  Biso   1.000  O
  O2260    1.0000 0.77222  0.06933  0.54907  Biso   1.000  O
  O2261    1.0000 0.69625  0.08241  0.56698  Biso   1.000  O
  O2262    1.0000 0.68727  0.97371  0.53036  Biso   1.000  O
  O2263    1.0000 0.70566  0.96113  0.51831  Biso   1.000  O
  O2264    1.0000 0.01582  0.82223  0.17605  Biso   1.000  O
  O2265    1.0000 0.00717  0.84390  0.18615  Biso   1.000  O
  O2266    1.0000 0.10816  0.83363  0.22361  Biso   1.000  O
  O2267    1.0000 0.10764  0.85871  0.22823  Biso   1.000  O
  O2268    1.0000 0.13066  0.85337  0.14522  Biso   1.000  O
  O2269    1.0000 0.12748  0.87719  0.15300  Biso   1.000  O
  O2270    1.0000 0.57649  0.45075  0.18877  Biso   1.000  O
  O2271    1.0000 0.62128  0.39479  0.14845  Biso   1.000  O
  O2272    1.0000 0.04502  0.93288  0.21840  Biso   1.000  O
  O2273    1.0000 0.06792  0.94398  0.22019  Biso   1.000  O
  O2274    1.0000 0.07296  0.86401  0.24792  Biso   1.000  O
  O2275    1.0000 0.09604  0.87390  0.25114  Biso   1.000  O
  O2276    1.0000 0.07466  0.10633  0.16206  Biso   1.000  O
  O2277    1.0000 0.27863  0.57295  0.55934  Biso   1.000  O
  O2278    1.0000 0.19752  0.58497  0.56571  Biso   1.000  O
  O2279    1.0000 0.18646  0.47342  0.53110  Biso   1.000  O
  O2280    1.0000 0.20477  0.46038  0.51958  Biso   1.000  O
  O2281    1.0000 0.51521  0.32153  0.17512  Biso   1.000  O
  O2282    1.0000 0.50697  0.34326  0.18530  Biso   1.000  O
  O2283    1.0000 0.60596  0.33258  0.22428  Biso   1.000  O
  O2284    1.0000 0.60553  0.35741  0.23035  Biso   1.000  O
  O2285    1.0000 0.61898  0.35463  0.14658  Biso   1.000  O
  O2286    1.0000 0.63701  0.37057  0.15482  Biso   1.000  O
  O2287    1.0000 0.07408  0.94185  0.19135  Biso   1.000  O
  O2288    1.0000 0.12492  0.90288  0.13933  Biso   1.000  O
  O2289    1.0000 0.54843  0.43770  0.22831  Biso   1.000  O
  O2290    1.0000 0.56907  0.43658  0.21362  Biso   1.000  O
  O2291    1.0000 0.57005  0.36071  0.24917  Biso   1.000  O
  O2292    1.0000 0.59288  0.37079  0.25336  Biso   1.000  O
  O2293    1.0000 0.07411  0.60443  0.66105  Biso   1.000  O
  O2294    1.0000 0.27154  0.06815  0.04857  Biso   1.000  O
  O2295    1.0000 0.19615  0.08225  0.06800  Biso   1.000  O
  O2296    1.0000 0.18544  0.96407  0.02320  Biso   1.000  O
  O2297    1.0000 0.21036  0.96833  0.02296  Biso   1.000  O
  O2298    1.0000 0.52216  0.82855  0.67263  Biso   1.000  O
  O2299    1.0000 0.50305  0.83178  0.68886  Biso   1.000  O
  O2300    1.0000 0.60833  0.83492  0.72461  Biso   1.000  O
  O2301    1.0000 0.60520  0.85985  0.72893  Biso   1.000  O
  O2302    1.0000 0.62934  0.85558  0.64649  Biso   1.000  O
  O2303    1.0000 0.62754  0.87969  0.65393  Biso   1.000  O
  O2304    1.0000 0.07619  0.45067  0.68938  Biso   1.000  O
  O2305    1.0000 0.12312  0.40357  0.63997  Biso   1.000  O
  O2306    1.0000 0.54264  0.93207  0.71762  Biso   1.000  O
  O2307    1.0000 0.56558  0.94246  0.72158  Biso   1.000  O
  O2308    1.0000 0.57003  0.86220  0.74928  Biso   1.000  O
  O2309    1.0000 0.59248  0.87394  0.75156  Biso   1.000  O
  O2310    1.0000 0.18811  0.60301  0.58870  Biso   1.000  O
  O2311    1.0000 0.97224  0.07373  0.19097  Biso   1.000  O
  O2312    1.0000 0.05042  0.09174  0.17417  Biso   1.000  O
  O2313    1.0000 0.06286  0.97428  0.21581  Biso   1.000  O
  O2314    1.0000 0.04581  0.96152  0.22922  Biso   1.000  O
  O2315    1.0000 0.73436  0.82359  0.57522  Biso   1.000  O
  O2316    1.0000 0.74313  0.84507  0.56483  Biso   1.000  O
  O2317    1.0000 0.65364  0.83698  0.52997  Biso   1.000  O
  O2318    1.0000 0.63613  0.85272  0.52070  Biso   1.000  O
  O2319    1.0000 0.61864  0.85515  0.60437  Biso   1.000  O
  O2320    1.0000 0.62062  0.87895  0.59575  Biso   1.000  O
  O2321    1.0000 0.17464  0.44184  0.55675  Biso   1.000  O
  O2322    1.0000 0.12410  0.40329  0.61016  Biso   1.000  O
  O2323    1.0000 0.70619  0.93259  0.52993  Biso   1.000  O
  O2324    1.0000 0.68334  0.94340  0.52696  Biso   1.000  O
  O2325    1.0000 0.67436  0.86661  0.49169  Biso   1.000  O
  O2326    1.0000 0.65607  0.87082  0.50892  Biso   1.000  O
  O2327    1.0000 0.18674  0.10103  0.09035  Biso   1.000  O
  O2328    1.0000 0.97807  0.56666  0.70085  Biso   1.000  O
  O2329    1.0000 0.05096  0.58893  0.67358  Biso   1.000  O
  O2330    1.0000 0.06416  0.46364  0.72866  Biso   1.000  O
  O2331    1.0000 0.03901  0.46744  0.72814  Biso   1.000  O
  O2332    1.0000 0.73383  0.32224  0.07432  Biso   1.000  O
  O2333    1.0000 0.74143  0.34476  0.06593  Biso   1.000  O
  O2334    1.0000 0.65351  0.33557  0.02954  Biso   1.000  O
  O2335    1.0000 0.63629  0.35209  0.02091  Biso   1.000  O
  O2336    1.0000 0.63244  0.35447  0.10638  Biso   1.000  O
  O2337    1.0000 0.61438  0.37009  0.09790  Biso   1.000  O
  O2338    1.0000 0.17442  0.95061  0.06251  Biso   1.000  O
  O2339    1.0000 0.12682  0.90280  0.10936  Biso   1.000  O
  O2340    1.0000 0.70121  0.43879  0.02304  Biso   1.000  O
  O2341    1.0000 0.68028  0.43724  0.03747  Biso   1.000  O
  O2342    1.0000 0.67436  0.36629  0.99187  Biso   1.000  O
  O2343    1.0000 0.65557  0.37042  0.00863  Biso   1.000  O
  O2344    1.0000 0.68910  0.60135  0.08960  Biso   1.000  O
  O2345    1.0000 0.47174  0.07327  0.69164  Biso   1.000  O
  O2346    1.0000 0.54961  0.09056  0.67526  Biso   1.000  O
  O2347    1.0000 0.56140  0.97317  0.71908  Biso   1.000  O
  O2348    1.0000 0.54320  0.95986  0.73061  Biso   1.000  O
  O2349    1.0000 0.23533  0.82261  0.07532  Biso   1.000  O
  O2350    1.0000 0.24438  0.84313  0.06335  Biso   1.000  O
  O2351    1.0000 0.14298  0.83280  0.02490  Biso   1.000  O
  O2352    1.0000 0.14514  0.85752  0.02006  Biso   1.000  O
  O2353    1.0000 0.12040  0.85384  0.10284  Biso   1.000  O
  O2354    1.0000 0.12220  0.87788  0.09484  Biso   1.000  O
  O2355    1.0000 0.67343  0.45027  0.06302  Biso   1.000  O
  O2356    1.0000 0.63056  0.39399  0.10411  Biso   1.000  O
  O2357    1.0000 0.20051  0.93901  0.02137  Biso   1.000  O
  O2358    1.0000 0.18072  0.93710  0.03720  Biso   1.000  O
  O2359    1.0000 0.17967  0.86152  0.00108  Biso   1.000  O
  O2360    1.0000 0.15690  0.87174  0.99700  Biso   1.000  O
  O2361    1.0000 0.68737  0.10143  0.58939  Biso   1.000  O
  O2362    1.0000 0.47183  0.57223  0.19094  Biso   1.000  O
  O2363    1.0000 0.55012  0.59023  0.17502  Biso   1.000  O
  O2364    1.0000 0.56321  0.46341  0.22775  Biso   1.000  O
  O2365    1.0000 0.53807  0.46663  0.22658  Biso   1.000  O
  O2366    1.0000 0.23484  0.32316  0.57547  Biso   1.000  O
  O2367    1.0000 0.24216  0.34519  0.56536  Biso   1.000  O
  O2368    1.0000 0.14219  0.33258  0.52659  Biso   1.000  O
  O2369    1.0000 0.14503  0.35737  0.52242  Biso   1.000  O
  O2370    1.0000 0.11912  0.35393  0.60450  Biso   1.000  O
  O2371    1.0000 0.12043  0.37791  0.59606  Biso   1.000  O
  O2372    1.0000 0.67630  0.94170  0.55573  Biso   1.000  O
  O2373    1.0000 0.62560  0.90420  0.60948  Biso   1.000  O
  O2374    1.0000 0.20575  0.43244  0.53221  Biso   1.000  O
  O2375    1.0000 0.18266  0.44253  0.52820  Biso   1.000  O
  O2376    1.0000 0.17988  0.36131  0.50278  Biso   1.000  O
  O2377    1.0000 0.15712  0.37216  0.49996  Biso   1.000  O
  O2378    1.0000 0.68804  0.64628  0.16163  Biso   1.000  O
  O2379    1.0000 0.47648  0.18029  0.54937  Biso   1.000  O
  O2380    1.0000 0.54941  0.15784  0.57637  Biso   1.000  O
  O2381    1.0000 0.56236  0.27488  0.53146  Biso   1.000  O
  O2382    1.0000 0.54429  0.28772  0.51906  Biso   1.000  O
  O2383    1.0000 0.22782  0.41992  0.17171  Biso   1.000  O
  O2384    1.0000 0.24702  0.41527  0.18767  Biso   1.000  O
  O2385    1.0000 0.15367  0.41315  0.22113  Biso   1.000  O
  O2386    1.0000 0.13744  0.39596  0.23058  Biso   1.000  O
  O2387    1.0000 0.12119  0.39491  0.14643  Biso   1.000  O
  O2388    1.0000 0.12326  0.37079  0.15383  Biso   1.000  O
  O2389    1.0000 0.67690  0.80793  0.19309  Biso   1.000  O
  O2390    1.0000 0.62901  0.85432  0.14760  Biso   1.000  O
  O2391    1.0000 0.20632  0.31741  0.21958  Biso   1.000  O
  O2392    1.0000 0.18342  0.30695  0.22293  Biso   1.000  O
  O2393    1.0000 0.17637  0.38366  0.25939  Biso   1.000  O
  O2394    1.0000 0.15766  0.37844  0.24279  Biso   1.000  O
  O2395    1.0000 0.67548  0.14428  0.66119  Biso   1.000  O
  O2396    1.0000 0.47862  0.68213  0.04969  Biso   1.000  O
  O2397    1.0000 0.55092  0.65796  0.07589  Biso   1.000  O
  O2398    1.0000 0.56234  0.77512  0.03279  Biso   1.000  O
  O2399    1.0000 0.54364  0.78759  0.02098  Biso   1.000  O
  O2400    1.0000 0.22729  0.92066  0.67111  Biso   1.000  O
  O2401    1.0000 0.24636  0.91613  0.68740  Biso   1.000  O
  O2402    1.0000 0.14269  0.91574  0.72460  Biso   1.000  O
  O2403    1.0000 0.14494  0.89074  0.72858  Biso   1.000  O
  O2404    1.0000 0.12096  0.89727  0.64537  Biso   1.000  O
  O2405    1.0000 0.12053  0.87343  0.65409  Biso   1.000  O
  O2406    1.0000 0.67603  0.30886  0.69355  Biso   1.000  O
  O2407    1.0000 0.62430  0.34565  0.63941  Biso   1.000  O
  O2408    1.0000 0.20585  0.81616  0.71740  Biso   1.000  O
  O2409    1.0000 0.18290  0.80599  0.72151  Biso   1.000  O
  O2410    1.0000 0.18002  0.88680  0.74814  Biso   1.000  O
  O2411    1.0000 0.15729  0.87584  0.75110  Biso   1.000  O
  O2412    1.0000 0.18897  0.64623  0.66161  Biso   1.000  O
  O2413    1.0000 0.97131  0.17649  0.05874  Biso   1.000  O
  O2414    1.0000 0.04928  0.15781  0.07442  Biso   1.000  O
  O2415    1.0000 0.06270  0.28374  0.02391  Biso   1.000  O
  O2416    1.0000 0.03742  0.28077  0.02497  Biso   1.000  O
  O2417    1.0000 0.72732  0.41949  0.67079  Biso   1.000  O
  O2418    1.0000 0.74671  0.41484  0.68657  Biso   1.000  O
  O2419    1.0000 0.65312  0.41374  0.72020  Biso   1.000  O
  O2420    1.0000 0.63680  0.39670  0.72974  Biso   1.000  O
  O2421    1.0000 0.62062  0.39524  0.64542  Biso   1.000  O
  O2422    1.0000 0.62257  0.37131  0.65321  Biso   1.000  O
  O2423    1.0000 0.17489  0.80803  0.69307  Biso   1.000  O
  O2424    1.0000 0.12271  0.84749  0.64032  Biso   1.000  O
  O2425    1.0000 0.70559  0.31726  0.71897  Biso   1.000  O
  O2426    1.0000 0.68272  0.30684  0.72242  Biso   1.000  O
  O2427    1.0000 0.67574  0.38379  0.75828  Biso   1.000  O
  O2428    1.0000 0.65693  0.37883  0.74170  Biso   1.000  O
  O2429    1.0000 0.18713  0.14781  0.16082  Biso   1.000  O
  O2430    1.0000 0.97799  0.68207  0.54849  Biso   1.000  O
  O2431    1.0000 0.05049  0.65990  0.57672  Biso   1.000  O
  O2432    1.0000 0.06050  0.77585  0.53276  Biso   1.000  O
  O2433    1.0000 0.04250  0.78848  0.52016  Biso   1.000  O
  O2434    1.0000 0.73498  0.92732  0.17588  Biso   1.000  O
  O2435    1.0000 0.74364  0.90602  0.18688  Biso   1.000  O
  O2436    1.0000 0.65433  0.91215  0.22193  Biso   1.000  O
  O2437    1.0000 0.63689  0.89632  0.23132  Biso   1.000  O
  O2438    1.0000 0.63107  0.89443  0.14636  Biso   1.000  O
  O2439    1.0000 0.61314  0.87818  0.15401  Biso   1.000  O
  O2440    1.0000 0.17654  0.30880  0.19407  Biso   1.000  O
  O2441    1.0000 0.12559  0.34559  0.13924  Biso   1.000  O
  O2442    1.0000 0.70635  0.81623  0.21838  Biso   1.000  O
  O2443    1.0000 0.68347  0.80581  0.22182  Biso   1.000  O
  O2444    1.0000 0.67674  0.88243  0.25850  Biso   1.000  O
  O2445    1.0000 0.65751  0.87795  0.24215  Biso   1.000  O
  O2446    1.0000 0.08845  0.07360  0.14651  Biso   1.000  O
  O2447    1.0000 0.69992  0.27209  0.68182  Biso   1.000  O
  O2448    1.0000 0.67207  0.20003  0.65899  Biso   1.000  O
  O2449    1.0000 0.72668  0.18611  0.78547  Biso   1.000  O
  O2450    1.0000 0.72558  0.21116  0.78110  Biso   1.000  O
  O2451    1.0000 0.07848  0.52341  0.92343  Biso   1.000  O
  O2452    1.0000 0.06281  0.50412  0.91832  Biso   1.000  O
  O2453    1.0000 0.02896  0.59761  0.91582  Biso   1.000  O
  O2454    1.0000 0.02013  0.61361  0.89818  Biso   1.000  O
  O2455    1.0000 0.10478  0.61992  0.89695  Biso   1.000  O
  O2456    1.0000 0.09653  0.63750  0.88040  Biso   1.000  O
  O2457    1.0000 0.06067  0.07550  0.30059  Biso   1.000  O
  O2458    1.0000 0.10267  0.11982  0.35460  Biso   1.000  O
  O2459    1.0000 0.03130  0.54471  0.81809  Biso   1.000  O
  O2460    1.0000 0.02827  0.56744  0.80679  Biso   1.000  O
  O2461    1.0000 0.99251  0.57434  0.88422  Biso   1.000  O
  O2462    1.0000 0.00981  0.59253  0.88087  Biso   1.000  O
  O2463    1.0000 0.08778  0.57234  0.64307  Biso   1.000  O
  O2464    1.0000 0.70007  0.77086  0.18175  Biso   1.000  O
  O2465    1.0000 0.68199  0.69695  0.16375  Biso   1.000  O
  O2466    1.0000 0.72597  0.68692  0.28403  Biso   1.000  O
  O2467    1.0000 0.72408  0.71198  0.28004  Biso   1.000  O
  O2468    1.0000 0.07530  0.01540  0.42729  Biso   1.000  O
  O2469    1.0000 0.06468  0.00703  0.40567  Biso   1.000  O
  O2470    1.0000 0.02870  0.09520  0.41301  Biso   1.000  O
  O2471    1.0000 0.01992  0.11226  0.39664  Biso   1.000  O
  O2472    1.0000 0.10490  0.11913  0.39480  Biso   1.000  O
  O2473    1.0000 0.09643  0.13637  0.37813  Biso   1.000  O
  O2474    1.0000 0.05670  0.57506  0.80785  Biso   1.000  O
  O2475    1.0000 0.10210  0.62152  0.85639  Biso   1.000  O
  O2476    1.0000 0.02201  0.04522  0.31043  Biso   1.000  O
  O2477    1.0000 0.03572  0.06649  0.31333  Biso   1.000  O
  O2478    1.0000 0.99172  0.07282  0.38358  Biso   1.000  O
  O2479    1.0000 0.00870  0.09140  0.37905  Biso   1.000  O
  O2480    1.0000 0.58744  0.07411  0.64569  Biso   1.000  O
  O2481    1.0000 0.20073  0.27229  0.18262  Biso   1.000  O
  O2482    1.0000 0.18145  0.19848  0.16294  Biso   1.000  O
  O2483    1.0000 0.22548  0.18520  0.28397  Biso   1.000  O
  O2484    1.0000 0.22542  0.21041  0.28030  Biso   1.000  O
  O2485    1.0000 0.57733  0.52235  0.42214  Biso   1.000  O
  O2486    1.0000 0.56194  0.50294  0.41623  Biso   1.000  O
  O2487    1.0000 0.52943  0.59719  0.41416  Biso   1.000  O
  O2488    1.0000 0.52048  0.61399  0.39734  Biso   1.000  O
  O2489    1.0000 0.60556  0.61902  0.39614  Biso   1.000  O
  O2490    1.0000 0.59819  0.63709  0.38013  Biso   1.000  O
  O2491    1.0000 0.55672  0.07315  0.80891  Biso   1.000  O
  O2492    1.0000 0.60973  0.12492  0.84649  Biso   1.000  O
  O2493    1.0000 0.53133  0.54393  0.31836  Biso   1.000  O
  O2494    1.0000 0.52812  0.56676  0.30755  Biso   1.000  O
  O2495    1.0000 0.49182  0.57515  0.38394  Biso   1.000  O
  O2496    1.0000 0.50877  0.59372  0.37939  Biso   1.000  O
  O2497    1.0000 0.58752  0.57397  0.14447  Biso   1.000  O
  O2498    1.0000 0.19863  0.77198  0.67991  Biso   1.000  O
  O2499    1.0000 0.18232  0.69664  0.66515  Biso   1.000  O
  O2500    1.0000 0.22770  0.68749  0.78578  Biso   1.000  O
  O2501    1.0000 0.22490  0.71213  0.78034  Biso   1.000  O
  O2502    1.0000 0.57469  0.01441  0.92738  Biso   1.000  O
  O2503    1.0000 0.56388  0.00602  0.90590  Biso   1.000  O
  O2504    1.0000 0.52531  0.10575  0.91564  Biso   1.000  O
  O2505    1.0000 0.52015  0.10329  0.89070  Biso   1.000  O
  O2506    1.0000 0.60225  0.13015  0.89559  Biso   1.000  O
  O2507    1.0000 0.59487  0.12838  0.87143  Biso   1.000  O
  O2508    1.0000 0.55682  0.57373  0.30944  Biso   1.000  O
  O2509    1.0000 0.60372  0.62040  0.35637  Biso   1.000  O
  O2510    1.0000 0.53115  0.04303  0.81799  Biso   1.000  O
  O2511    1.0000 0.52812  0.06604  0.80751  Biso   1.000  O
  O2512    1.0000 0.50123  0.06865  0.88818  Biso   1.000  O
  O2513    1.0000 0.49664  0.09103  0.87724  Biso   1.000  O
  O2514    1.0000 0.66074  0.56334  0.10483  Biso   1.000  O
  O2515    1.0000 0.04697  0.77254  0.56882  Biso   1.000  O
  O2516    1.0000 0.07464  0.70010  0.59317  Biso   1.000  O
  O2517    1.0000 0.02554  0.68634  0.46517  Biso   1.000  O
  O2518    1.0000 0.02655  0.71132  0.46918  Biso   1.000  O
  O2519    1.0000 0.67650  0.01524  0.32159  Biso   1.000  O
  O2520    1.0000 0.68664  0.00718  0.34351  Biso   1.000  O
  O2521    1.0000 0.72129  0.09701  0.33644  Biso   1.000  O
  O2522    1.0000 0.73046  0.11401  0.35284  Biso   1.000  O
  O2523    1.0000 0.64717  0.13076  0.35347  Biso   1.000  O
  O2524    1.0000 0.65405  0.12726  0.37760  Biso   1.000  O
  O2525    1.0000 0.68603  0.57607  0.95128  Biso   1.000  O
  O2526    1.0000 0.63955  0.62285  0.90231  Biso   1.000  O
  O2527    1.0000 0.72681  0.04986  0.44005  Biso   1.000  O
  O2528    1.0000 0.71124  0.06968  0.43741  Biso   1.000  O
  O2529    1.0000 0.75774  0.07468  0.36685  Biso   1.000  O
  O2530    1.0000 0.74105  0.09350  0.37062  Biso   1.000  O
  O2531    1.0000 0.65974  0.06280  0.60411  Biso   1.000  O
  O2532    1.0000 0.05802  0.27623  0.07287  Biso   1.000  O
  O2533    1.0000 0.07510  0.19747  0.08986  Biso   1.000  O
  O2534    1.0000 0.03068  0.18481  0.97297  Biso   1.000  O
  O2535    1.0000 0.01831  0.20327  0.96069  Biso   1.000  O
  O2536    1.0000 0.67535  0.51534  0.82154  Biso   1.000  O
  O2537    1.0000 0.68617  0.50690  0.84302  Biso   1.000  O
  O2538    1.0000 0.72152  0.59701  0.83600  Biso   1.000  O
  O2539    1.0000 0.73075  0.61348  0.85292  Biso   1.000  O
  O2540    1.0000 0.64694  0.63006  0.85326  Biso   1.000  O
  O2541    1.0000 0.65424  0.62662  0.87725  Biso   1.000  O
  O2542    1.0000 0.68597  0.07681  0.45071  Biso   1.000  O
  O2543    1.0000 0.63869  0.12303  0.40218  Biso   1.000  O
  O2544    1.0000 0.72689  0.54924  0.94038  Biso   1.000  O
  O2545    1.0000 0.71118  0.56893  0.93774  Biso   1.000  O
  O2546    1.0000 0.75723  0.57360  0.86698  Biso   1.000  O
  O2547    1.0000 0.74055  0.59249  0.87074  Biso   1.000  O
  O2548    1.0000 0.16050  0.56379  0.60214  Biso   1.000  O
  O2549    1.0000 0.54926  0.77151  0.06991  Biso   1.000  O
  O2550    1.0000 0.57576  0.69835  0.09141  Biso   1.000  O
  O2551    1.0000 0.52532  0.68633  0.96514  Biso   1.000  O
  O2552    1.0000 0.52665  0.71128  0.96910  Biso   1.000  O
  O2553    1.0000 0.17118  0.02295  0.82702  Biso   1.000  O
  O2554    1.0000 0.18710  0.00412  0.83324  Biso   1.000  O
  O2555    1.0000 0.22168  0.09663  0.83755  Biso   1.000  O
  O2556    1.0000 0.23089  0.11339  0.85422  Biso   1.000  O
  O2557    1.0000 0.14547  0.11951  0.85373  Biso   1.000  O
  O2558    1.0000 0.15327  0.13642  0.87096  Biso   1.000  O
  O2559    1.0000 0.19377  0.57381  0.44060  Biso   1.000  O
  O2560    1.0000 0.14052  0.62442  0.40164  Biso   1.000  O
  O2561    1.0000 0.22593  0.04981  0.94046  Biso   1.000  O
  O2562    1.0000 0.21046  0.06965  0.93792  Biso   1.000  O
  O2563    1.0000 0.25740  0.07299  0.86719  Biso   1.000  O
  O2564    1.0000 0.24120  0.09217  0.87143  Biso   1.000  O
  O2565    1.0000 0.16035  0.06174  0.10526  Biso   1.000  O
  O2566    1.0000 0.54881  0.27106  0.56756  Biso   1.000  O
  O2567    1.0000 0.57427  0.19856  0.59053  Biso   1.000  O
  O2568    1.0000 0.52283  0.18498  0.46452  Biso   1.000  O
  O2569    1.0000 0.52507  0.20989  0.46903  Biso   1.000  O
  O2570    1.0000 0.17655  0.51516  0.32261  Biso   1.000  O
  O2571    1.0000 0.18737  0.50641  0.34393  Biso   1.000  O
  O2572    1.0000 0.22175  0.59754  0.33572  Biso   1.000  O
  O2573    1.0000 0.23070  0.61469  0.35207  Biso   1.000  O
  O2574    1.0000 0.14658  0.63045  0.35223  Biso   1.000  O
  O2575    1.0000 0.15477  0.62825  0.37614  Biso   1.000  O
  O2576    1.0000 0.18523  0.07672  0.95120  Biso   1.000  O
  O2577    1.0000 0.14607  0.11926  0.89369  Biso   1.000  O
  O2578    1.0000 0.21971  0.54390  0.43304  Biso   1.000  O
  O2579    1.0000 0.22240  0.56710  0.44327  Biso   1.000  O
  O2580    1.0000 0.25771  0.57568  0.36750  Biso   1.000  O
  O2581    1.0000 0.24055  0.59423  0.37062  Biso   1.000  O
  O2582    1.0000 0.58606  0.17511  0.60659  Biso   1.000  O
  O2583    1.0000 0.19286  0.97147  0.07221  Biso   1.000  O
  O2584    1.0000 0.18232  0.05056  0.08712  Biso   1.000  O
  O2585    1.0000 0.22393  0.06467  0.96574  Biso   1.000  O
  O2586    1.0000 0.22360  0.03935  0.96905  Biso   1.000  O
  O2587    1.0000 0.57908  0.72743  0.82851  Biso   1.000  O
  O2588    1.0000 0.56331  0.74651  0.83455  Biso   1.000  O
  O2589    1.0000 0.52921  0.65439  0.83476  Biso   1.000  O
  O2590    1.0000 0.52056  0.63617  0.85013  Biso   1.000  O
  O2591    1.0000 0.60450  0.62129  0.85214  Biso   1.000  O
  O2592    1.0000 0.59556  0.62182  0.87601  Biso   1.000  O
  O2593    1.0000 0.56120  0.17127  0.45035  Biso   1.000  O
  O2594    1.0000 0.60882  0.12491  0.40075  Biso   1.000  O
  O2595    1.0000 0.52438  0.70144  0.93973  Biso   1.000  O
  O2596    1.0000 0.53903  0.68082  0.93810  Biso   1.000  O
  O2597    1.0000 0.49378  0.67495  0.86694  Biso   1.000  O
  O2598    1.0000 0.51037  0.65568  0.86956  Biso   1.000  O
  O2599    1.0000 0.58708  0.67426  0.10700  Biso   1.000  O
  O2600    1.0000 0.19869  0.47815  0.56811  Biso   1.000  O
  O2601    1.0000 0.18189  0.55307  0.58280  Biso   1.000  O
  O2602    1.0000 0.21803  0.56349  0.47386  Biso   1.000  O
  O2603    1.0000 0.23104  0.54570  0.46150  Biso   1.000  O
  O2604    1.0000 0.57473  0.23384  0.32425  Biso   1.000  O
  O2605    1.0000 0.56393  0.24298  0.34542  Biso   1.000  O
  O2606    1.0000 0.52897  0.15401  0.33517  Biso   1.000  O
  O2607    1.0000 0.52027  0.13647  0.35125  Biso   1.000  O
  O2608    1.0000 0.60496  0.12136  0.35102  Biso   1.000  O
  O2609    1.0000 0.59557  0.12166  0.37469  Biso   1.000  O
  O2610    1.0000 0.56387  0.67312  0.95139  Biso   1.000  O
  O2611    1.0000 0.60963  0.62520  0.90164  Biso   1.000  O
  O2612    1.0000 0.52224  0.20053  0.43950  Biso   1.000  O
  O2613    1.0000 0.53638  0.17953  0.43730  Biso   1.000  O
  O2614    1.0000 0.49116  0.17431  0.36620  Biso   1.000  O
  O2615    1.0000 0.50917  0.15671  0.36911  Biso   1.000  O
  O2616    1.0000 0.08664  0.17302  0.10515  Biso   1.000  O
  O2617    1.0000 0.70064  0.97771  0.56780  Biso   1.000  O
  O2618    1.0000 0.68151  0.05112  0.58599  Biso   1.000  O
  O2619    1.0000 0.72510  0.06507  0.46494  Biso   1.000  O
  O2620    1.0000 0.72417  0.04003  0.46928  Biso   1.000  O
  O2621    1.0000 0.07812  0.72796  0.32745  Biso   1.000  O
  O2622    1.0000 0.06215  0.74673  0.33401  Biso   1.000  O
  O2623    1.0000 0.02892  0.65372  0.33555  Biso   1.000  O
  O2624    1.0000 0.02059  0.63597  0.35154  Biso   1.000  O
  O2625    1.0000 0.10430  0.62115  0.35259  Biso   1.000  O
  O2626    1.0000 0.09603  0.62206  0.37669  Biso   1.000  O
  O2627    1.0000 0.05585  0.17538  0.94024  Biso   1.000  O
  O2628    1.0000 0.10173  0.12849  0.89260  Biso   1.000  O
  O2629    1.0000 0.02424  0.70149  0.43987  Biso   1.000  O
  O2630    1.0000 0.03915  0.68107  0.43805  Biso   1.000  O
  O2631    1.0000 0.99303  0.67467  0.36734  Biso   1.000  O
  O2632    1.0000 0.01005  0.65604  0.36989  Biso   1.000  O
  O2633    1.0000 0.08675  0.67584  0.60820  Biso   1.000  O
  O2634    1.0000 0.69158  0.47200  0.07355  Biso   1.000  O
  O2635    1.0000 0.68213  0.55073  0.08714  Biso   1.000  O
  O2636    1.0000 0.72521  0.56431  0.96521  Biso   1.000  O
  O2637    1.0000 0.72434  0.53930  0.96960  Biso   1.000  O
  O2638    1.0000 0.07382  0.23460  0.82401  Biso   1.000  O
  O2639    1.0000 0.06318  0.24406  0.84513  Biso   1.000  O
  O2640    1.0000 0.02859  0.15436  0.83476  Biso   1.000  O
  O2641    1.0000 0.01974  0.13637  0.85033  Biso   1.000  O
  O2642    1.0000 0.10517  0.13243  0.85321  Biso   1.000  O
  O2643    1.0000 0.09667  0.11341  0.86767  Biso   1.000  O
  O2644    1.0000 0.06420  0.67367  0.45128  Biso   1.000  O
  O2645    1.0000 0.11075  0.62614  0.40186  Biso   1.000  O
  O2646    1.0000 0.02945  0.20454  0.93209  Biso   1.000  O
  O2647    1.0000 0.02712  0.18138  0.94251  Biso   1.000  O
  O2648    1.0000 0.99090  0.17411  0.86603  Biso   1.000  O
  O2649    1.0000 0.00822  0.15570  0.86950  Biso   1.000  O
  O2650    1.0000 0.16051  0.68455  0.64793  Biso   1.000  O
  O2651    1.0000 0.55833  0.47176  0.17878  Biso   1.000  O
  O2652    1.0000 0.57586  0.55001  0.16006  Biso   1.000  O
  O2653    1.0000 0.53178  0.56287  0.27699  Biso   1.000  O
  O2654    1.0000 0.51939  0.54507  0.28987  Biso   1.000  O
  O2655    1.0000 0.17248  0.22712  0.42178  Biso   1.000  O
  O2656    1.0000 0.18828  0.24656  0.41746  Biso   1.000  O
  O2657    1.0000 0.22090  0.15309  0.41355  Biso   1.000  O
  O2658    1.0000 0.22967  0.13553  0.39749  Biso   1.000  O
  O2659    1.0000 0.14498  0.13209  0.39436  Biso   1.000  O
  O2660    1.0000 0.15293  0.11341  0.37910  Biso   1.000  O
  O2661    1.0000 0.18982  0.67339  0.80114  Biso   1.000  O
  O2662    1.0000 0.14668  0.62982  0.85579  Biso   1.000  O
  O2663    1.0000 0.22871  0.19993  0.30898  Biso   1.000  O
  O2664    1.0000 0.21247  0.18086  0.31195  Biso   1.000  O
  O2665    1.0000 0.25768  0.17442  0.38282  Biso   1.000  O
  O2666    1.0000 0.24054  0.15592  0.37958  Biso   1.000  O
  O2667    1.0000 0.15940  0.18628  0.14613  Biso   1.000  O
  O2668    1.0000 0.54816  0.97823  0.68215  Biso   1.000  O
  O2669    1.0000 0.57547  0.05042  0.66219  Biso   1.000  O
  O2670    1.0000 0.53124  0.06225  0.77691  Biso   1.000  O
  O2671    1.0000 0.51894  0.04429  0.78972  Biso   1.000  O
  O2672    1.0000 0.17684  0.73402  0.92692  Biso   1.000  O
  O2673    1.0000 0.18712  0.74308  0.90545  Biso   1.000  O
  O2674    1.0000 0.22148  0.65316  0.91225  Biso   1.000  O
  O2675    1.0000 0.23049  0.63649  0.89530  Biso   1.000  O
  O2676    1.0000 0.14519  0.63244  0.89519  Biso   1.000  O
  O2677    1.0000 0.15267  0.61375  0.87990  Biso   1.000  O
  O2678    1.0000 0.18710  0.17363  0.29940  Biso   1.000  O
  O2679    1.0000 0.14720  0.12826  0.35440  Biso   1.000  O
  O2680    1.0000 0.22864  0.70392  0.81022  Biso   1.000  O
  O2681    1.0000 0.21495  0.68275  0.81352  Biso   1.000  O
  O2682    1.0000 0.26009  0.67492  0.88329  Biso   1.000  O
  O2683    1.0000 0.24283  0.65687  0.87825  Biso   1.000  O
  O2684    1.0000 0.66009  0.68458  0.14709  Biso   1.000  O
  O2685    1.0000 0.05833  0.47164  0.67971  Biso   1.000  O
  O2686    1.0000 0.07621  0.54862  0.65923  Biso   1.000  O
  O2687    1.0000 0.03111  0.56237  0.77649  Biso   1.000  O
  O2688    1.0000 0.01998  0.54390  0.78977  Biso   1.000  O
  O2689    1.0000 0.67567  0.23394  0.92705  Biso   1.000  O
  O2690    1.0000 0.68638  0.24309  0.90587  Biso   1.000  O
  O2691    1.0000 0.72031  0.15259  0.91368  Biso   1.000  O
  O2692    1.0000 0.72928  0.13554  0.89714  Biso   1.000  O
  O2693    1.0000 0.64462  0.12080  0.89670  Biso   1.000  O
  O2694    1.0000 0.65357  0.12206  0.87286  Biso   1.000  O
  O2695    1.0000 0.68849  0.67354  0.30032  Biso   1.000  O
  O2696    1.0000 0.64843  0.62851  0.35616  Biso   1.000  O
  O2697    1.0000 0.72806  0.20159  0.81018  Biso   1.000  O
  O2698    1.0000 0.71269  0.18175  0.81302  Biso   1.000  O
  O2699    1.0000 0.75790  0.17415  0.88312  Biso   1.000  O
  O2700    1.0000 0.74057  0.15593  0.87937  Biso   1.000  O
  O2701    1.0000 0.66006  0.17662  0.64326  Biso   1.000  O
  O2702    1.0000 0.04847  0.97772  0.18056  Biso   1.000  O
  O2703    1.0000 0.07570  0.05058  0.16313  Biso   1.000  O
  O2704    1.0000 0.02256  0.06212  0.28592  Biso   1.000  O
  O2705    1.0000 0.02451  0.03736  0.28048  Biso   1.000  O
  O2706    1.0000 0.67617  0.73494  0.42883  Biso   1.000  O
  O2707    1.0000 0.68629  0.74324  0.40711  Biso   1.000  O
  O2708    1.0000 0.72197  0.65437  0.41276  Biso   1.000  O
  O2709    1.0000 0.73148  0.63775  0.39618  Biso   1.000  O
  O2710    1.0000 0.64633  0.63038  0.39647  Biso   1.000  O
  O2711    1.0000 0.65405  0.61246  0.38017  Biso   1.000  O
  O2712    1.0000 0.68824  0.17297  0.79961  Biso   1.000  O
  O2713    1.0000 0.63964  0.12653  0.84726  Biso   1.000  O
  O2714    1.0000 0.72836  0.70239  0.30923  Biso   1.000  O
  O2715    1.0000 0.71443  0.68119  0.31176  Biso   1.000  O
  O2716    1.0000 0.75918  0.67766  0.38318  Biso   1.000  O
  O2717    1.0000 0.74248  0.65890  0.37910  Biso   1.000  O
  O2718    1.0000 0.33980  0.89622  0.43554  Biso   1.000  O
  O2719    1.0000 0.93978  0.42874  0.22262  Biso   1.000  O
  O2720    1.0000 0.92441  0.41138  0.30066  Biso   1.000  O
  O2721    1.0000 0.97678  0.53372  0.31444  Biso   1.000  O
  O2722    1.0000 0.97523  0.53034  0.28933  Biso   1.000  O
  O2723    1.0000 0.32405  0.67674  0.98412  Biso   1.000  O
  O2724    1.0000 0.31399  0.65539  0.99354  Biso   1.000  O
  O2725    1.0000 0.27979  0.66255  0.90388  Biso   1.000  O
  O2726    1.0000 0.27102  0.64736  0.88549  Biso   1.000  O
  O2727    1.0000 0.35586  0.64441  0.88172  Biso   1.000  O
  O2728    1.0000 0.34796  0.62856  0.86352  Biso   1.000  O
  O2729    1.0000 0.31204  0.04846  0.42315  Biso   1.000  O
  O2730    1.0000 0.35320  0.10492  0.38022  Biso   1.000  O
  O2731    1.0000 0.27304  0.56113  0.95146  Biso   1.000  O
  O2732    1.0000 0.28669  0.56174  0.92987  Biso   1.000  O
  O2733    1.0000 0.24152  0.63258  0.92330  Biso   1.000  O
  O2734    1.0000 0.25865  0.62867  0.90475  Biso   1.000  O
  O2735    1.0000 0.33884  0.39341  0.92606  Biso   1.000  O
  O2736    1.0000 0.94216  0.92721  0.72180  Biso   1.000  O
  O2737    1.0000 0.93250  0.91495  0.80235  Biso   1.000  O
  O2738    1.0000 0.97675  0.03635  0.81330  Biso   1.000  O
  O2739    1.0000 0.97506  0.03183  0.78840  Biso   1.000  O
  O2740    1.0000 0.32345  0.17721  0.48509  Biso   1.000  O
  O2741    1.0000 0.31265  0.15596  0.49408  Biso   1.000  O
  O2742    1.0000 0.27846  0.16290  0.40292  Biso   1.000  O
  O2743    1.0000 0.26938  0.14707  0.38537  Biso   1.000  O
  O2744    1.0000 0.35467  0.14469  0.38129  Biso   1.000  O
  O2745    1.0000 0.34668  0.12828  0.36368  Biso   1.000  O
  O2746    1.0000 0.31224  0.54874  0.92327  Biso   1.000  O
  O2747    1.0000 0.35367  0.60430  0.87918  Biso   1.000  O
  O2748    1.0000 0.27250  0.06026  0.45131  Biso   1.000  O
  O2749    1.0000 0.28654  0.06161  0.43000  Biso   1.000  O
  O2750    1.0000 0.24163  0.13275  0.42466  Biso   1.000  O
  O2751    1.0000 0.25837  0.12872  0.40577  Biso   1.000  O
  O2752    1.0000 0.83960  0.89680  0.93601  Biso   1.000  O
  O2753    1.0000 0.43917  0.42899  0.72241  Biso   1.000  O
  O2754    1.0000 0.42139  0.41133  0.80061  Biso   1.000  O
  O2755    1.0000 0.47704  0.53477  0.81274  Biso   1.000  O
  O2756    1.0000 0.47592  0.53149  0.78765  Biso   1.000  O
  O2757    1.0000 0.82320  0.67815  0.48574  Biso   1.000  O
  O2758    1.0000 0.81229  0.65680  0.49381  Biso   1.000  O
  O2759    1.0000 0.78004  0.66586  0.40335  Biso   1.000  O
  O2760    1.0000 0.77114  0.65060  0.38529  Biso   1.000  O
  O2761    1.0000 0.85489  0.64640  0.37007  Biso   1.000  O
  O2762    1.0000 0.84627  0.62257  0.37150  Biso   1.000  O
  O2763    1.0000 0.81224  0.04868  0.92380  Biso   1.000  O
  O2764    1.0000 0.85254  0.10495  0.87982  Biso   1.000  O
  O2765    1.0000 0.77239  0.56058  0.44886  Biso   1.000  O
  O2766    1.0000 0.78708  0.56117  0.42804  Biso   1.000  O
  O2767    1.0000 0.74303  0.63424  0.42314  Biso   1.000  O
  O2768    1.0000 0.76063  0.63198  0.40509  Biso   1.000  O
  O2769    1.0000 0.83810  0.39526  0.43612  Biso   1.000  O
  O2770    1.0000 0.45215  0.93178  0.22629  Biso   1.000  O
  O2771    1.0000 0.43356  0.91657  0.30235  Biso   1.000  O
  O2772    1.0000 0.47748  0.03508  0.31345  Biso   1.000  O
  O2773    1.0000 0.47514  0.03062  0.28864  Biso   1.000  O
  O2774    1.0000 0.82407  0.17702  0.98372  Biso   1.000  O
  O2775    1.0000 0.81361  0.15584  0.99317  Biso   1.000  O
  O2776    1.0000 0.77815  0.16254  0.90360  Biso   1.000  O
  O2777    1.0000 0.76922  0.14691  0.88579  Biso   1.000  O
  O2778    1.0000 0.85444  0.14465  0.88107  Biso   1.000  O
  O2779    1.0000 0.84602  0.12845  0.86345  Biso   1.000  O
  O2780    1.0000 0.81243  0.54758  0.42197  Biso   1.000  O
  O2781    1.0000 0.86029  0.59708  0.37561  Biso   1.000  O
  O2782    1.0000 0.77259  0.06065  0.95168  Biso   1.000  O
  O2783    1.0000 0.78673  0.06194  0.93042  Biso   1.000  O
  O2784    1.0000 0.74113  0.13267  0.92487  Biso   1.000  O
  O2785    1.0000 0.75777  0.12855  0.90586  Biso   1.000  O
  O2786    1.0000 0.91340  0.85704  0.92640  Biso   1.000  O
  O2787    1.0000 0.30825  0.31982  0.72241  Biso   1.000  O
  O2788    1.0000 0.31582  0.33535  0.80191  Biso   1.000  O
  O2789    1.0000 0.27208  0.21475  0.81543  Biso   1.000  O
  O2790    1.0000 0.27398  0.21880  0.79048  Biso   1.000  O
  O2791    1.0000 0.92670  0.07275  0.48527  Biso   1.000  O
  O2792    1.0000 0.93683  0.09474  0.49302  Biso   1.000  O
  O2793    1.0000 0.97101  0.08469  0.40320  Biso   1.000  O
  O2794    1.0000 0.98020  0.10024  0.38539  Biso   1.000  O
  O2795    1.0000 0.89622  0.10291  0.37019  Biso   1.000  O
  O2796    1.0000 0.90434  0.12673  0.37335  Biso   1.000  O
  O2797    1.0000 0.93726  0.70122  0.92317  Biso   1.000  O
  O2798    1.0000 0.89002  0.65180  0.87575  Biso   1.000  O
  O2799    1.0000 0.97689  0.18830  0.45140  Biso   1.000  O
  O2800    1.0000 0.96241  0.18709  0.43054  Biso   1.000  O
  O2801    1.0000 0.00788  0.11565  0.42397  Biso   1.000  O
  O2802    1.0000 0.99116  0.11876  0.40500  Biso   1.000  O
  O2803    1.0000 0.91296  0.35682  0.42680  Biso   1.000  O
  O2804    1.0000 0.30233  0.81753  0.22772  Biso   1.000  O
  O2805    1.0000 0.32837  0.84042  0.30018  Biso   1.000  O
  O2806    1.0000 0.28348  0.72442  0.31354  Biso   1.000  O
  O2807    1.0000 0.27127  0.71086  0.29592  Biso   1.000  O
  O2808    1.0000 0.92493  0.57195  0.98524  Biso   1.000  O
  O2809    1.0000 0.93515  0.59401  0.99238  Biso   1.000  O
  O2810    1.0000 0.97115  0.58547  0.90351  Biso   1.000  O
  O2811    1.0000 0.98067  0.60139  0.88614  Biso   1.000  O
  O2812    1.0000 0.89603  0.60235  0.87079  Biso   1.000  O
  O2813    1.0000 0.90436  0.62629  0.87194  Biso   1.000  O
  O2814    1.0000 0.93785  0.20121  0.42318  Biso   1.000  O
  O2815    1.0000 0.89020  0.15219  0.37730  Biso   1.000  O
  O2816    1.0000 0.97656  0.68951  0.95201  Biso   1.000  O
  O2817    1.0000 0.96161  0.68736  0.93164  Biso   1.000  O
  O2818    1.0000 0.00705  0.61706  0.92569  Biso   1.000  O
  O2819    1.0000 0.99130  0.62044  0.90582  Biso   1.000  O
  O2820    1.0000 0.41342  0.85674  0.42522  Biso   1.000  O
  O2821    1.0000 0.80924  0.32062  0.22295  Biso   1.000  O
  O2822    1.0000 0.82888  0.34080  0.29975  Biso   1.000  O
  O2823    1.0000 0.77335  0.21547  0.31507  Biso   1.000  O
  O2824    1.0000 0.77552  0.21934  0.28998  Biso   1.000  O
  O2825    1.0000 0.42599  0.07211  0.98549  Biso   1.000  O
  O2826    1.0000 0.43648  0.09426  0.99223  Biso   1.000  O
  O2827    1.0000 0.47344  0.08205  0.89316  Biso   1.000  O
  O2828    1.0000 0.47832  0.10697  0.89555  Biso   1.000  O
  O2829    1.0000 0.39630  0.10344  0.87009  Biso   1.000  O
  O2830    1.0000 0.40341  0.12757  0.87236  Biso   1.000  O
  O2831    1.0000 0.43831  0.70085  0.42485  Biso   1.000  O
  O2832    1.0000 0.39183  0.65216  0.37741  Biso   1.000  O
  O2833    1.0000 0.47657  0.18852  0.95175  Biso   1.000  O
  O2834    1.0000 0.46281  0.18638  0.93048  Biso   1.000  O
  O2835    1.0000 0.49795  0.11078  0.92961  Biso   1.000  O
  O2836    1.0000 0.50162  0.12118  0.90680  Biso   1.000  O
  O2837    1.0000 0.41313  0.35640  0.92591  Biso   1.000  O
  O2838    1.0000 0.81096  0.82393  0.72215  Biso   1.000  O
  O2839    1.0000 0.82684  0.84116  0.80106  Biso   1.000  O
  O2840    1.0000 0.78206  0.72416  0.81366  Biso   1.000  O
  O2841    1.0000 0.76989  0.71025  0.79626  Biso   1.000  O
  O2842    1.0000 0.42647  0.57285  0.48527  Biso   1.000  O
  O2843    1.0000 0.43588  0.59514  0.49262  Biso   1.000  O
  O2844    1.0000 0.47114  0.58677  0.40369  Biso   1.000  O
  O2845    1.0000 0.48034  0.60295  0.38643  Biso   1.000  O
  O2846    1.0000 0.39607  0.60298  0.36983  Biso   1.000  O
  O2847    1.0000 0.40506  0.62662  0.37184  Biso   1.000  O
  O2848    1.0000 0.43831  0.20029  0.92206  Biso   1.000  O
  O2849    1.0000 0.38877  0.15259  0.87631  Biso   1.000  O
  O2850    1.0000 0.47697  0.68852  0.45438  Biso   1.000  O
  O2851    1.0000 0.46215  0.68677  0.43394  Biso   1.000  O
  O2852    1.0000 0.50866  0.61726  0.42520  Biso   1.000  O
  O2853    1.0000 0.49195  0.62105  0.40632  Biso   1.000  O
  O2854    1.0000 0.83930  0.35590  0.32434  Biso   1.000  O
  O2855    1.0000 0.45211  0.82072  0.52322  Biso   1.000  O
  O2856    1.0000 0.42589  0.84229  0.44944  Biso   1.000  O
  O2857    1.0000 0.47707  0.71379  0.43848  Biso   1.000  O
  O2858    1.0000 0.47615  0.71771  0.46369  Biso   1.000  O
  O2859    1.0000 0.82409  0.57199  0.76549  Biso   1.000  O
  O2860    1.0000 0.81373  0.59366  0.75707  Biso   1.000  O
  O2861    1.0000 0.77899  0.58490  0.84792  Biso   1.000  O
  O2862    1.0000 0.76964  0.60045  0.86555  Biso   1.000  O
  O2863    1.0000 0.85389  0.60287  0.88075  Biso   1.000  O
  O2864    1.0000 0.84604  0.62679  0.87782  Biso   1.000  O
  O2865    1.0000 0.81125  0.20017  0.32903  Biso   1.000  O
  O2866    1.0000 0.86056  0.15218  0.37582  Biso   1.000  O
  O2867    1.0000 0.78216  0.68208  0.79645  Biso   1.000  O
  O2868    1.0000 0.77918  0.69385  0.81881  Biso   1.000  O
  O2869    1.0000 0.74333  0.61664  0.82606  Biso   1.000  O
  O2870    1.0000 0.75988  0.61916  0.84527  Biso   1.000  O
  O2871    1.0000 0.83708  0.85677  0.82569  Biso   1.000  O
  O2872    1.0000 0.44094  0.32166  0.02672  Biso   1.000  O
  O2873    1.0000 0.42537  0.33980  0.94866  Biso   1.000  O
  O2874    1.0000 0.47715  0.21303  0.93572  Biso   1.000  O
  O2875    1.0000 0.47469  0.21836  0.96027  Biso   1.000  O
  O2876    1.0000 0.82430  0.07285  0.26528  Biso   1.000  O
  O2877    1.0000 0.81440  0.09484  0.25768  Biso   1.000  O
  O2878    1.0000 0.77928  0.08580  0.34765  Biso   1.000  O
  O2879    1.0000 0.76991  0.10210  0.36474  Biso   1.000  O
  O2880    1.0000 0.85412  0.10284  0.38031  Biso   1.000  O
  O2881    1.0000 0.84632  0.12691  0.37895  Biso   1.000  O
  O2882    1.0000 0.80814  0.69270  0.82518  Biso   1.000  O
  O2883    1.0000 0.86049  0.65211  0.87436  Biso   1.000  O
  O2884    1.0000 0.77125  0.19056  0.30008  Biso   1.000  O
  O2885    1.0000 0.78582  0.18758  0.32061  Biso   1.000  O
  O2886    1.0000 0.74226  0.11703  0.32565  Biso   1.000  O
  O2887    1.0000 0.75907  0.12067  0.34457  Biso   1.000  O
  O2888    1.0000 0.33841  0.35313  0.81287  Biso   1.000  O
  O2889    1.0000 0.94171  0.82307  0.02888  Biso   1.000  O
  O2890    1.0000 0.92542  0.84188  0.95051  Biso   1.000  O
  O2891    1.0000 0.97600  0.71446  0.93673  Biso   1.000  O
  O2892    1.0000 0.97432  0.71881  0.96175  Biso   1.000  O
  O2893    1.0000 0.32942  0.57908  0.27299  Biso   1.000  O
  O2894    1.0000 0.31323  0.58465  0.25415  Biso   1.000  O
  O2895    1.0000 0.27924  0.58632  0.34811  Biso   1.000  O
  O2896    1.0000 0.26975  0.60252  0.36514  Biso   1.000  O
  O2897    1.0000 0.35403  0.60412  0.37977  Biso   1.000  O
  O2898    1.0000 0.34685  0.62827  0.37760  Biso   1.000  O
  O2899    1.0000 0.31109  0.20171  0.82859  Biso   1.000  O
  O2900    1.0000 0.35929  0.15196  0.87509  Biso   1.000  O
  O2901    1.0000 0.28342  0.68258  0.29579  Biso   1.000  O
  O2902    1.0000 0.28009  0.69413  0.31812  Biso   1.000  O
  O2903    1.0000 0.24352  0.61691  0.32495  Biso   1.000  O
  O2904    1.0000 0.25960  0.62065  0.34449  Biso   1.000  O
  O2905    1.0000 0.33857  0.85649  0.32460  Biso   1.000  O
  O2906    1.0000 0.94246  0.32205  0.52742  Biso   1.000  O
  O2907    1.0000 0.92592  0.34074  0.44961  Biso   1.000  O
  O2908    1.0000 0.97716  0.21339  0.43588  Biso   1.000  O
  O2909    1.0000 0.97570  0.21797  0.46066  Biso   1.000  O
  O2910    1.0000 0.32332  0.07228  0.76573  Biso   1.000  O
  O2911    1.0000 0.31252  0.09376  0.75724  Biso   1.000  O
  O2912    1.0000 0.27896  0.08386  0.84797  Biso   1.000  O
  O2913    1.0000 0.27041  0.10014  0.86559  Biso   1.000  O
  O2914    1.0000 0.35397  0.10247  0.88015  Biso   1.000  O
  O2915    1.0000 0.34546  0.12643  0.87876  Biso   1.000  O
  O2916    1.0000 0.30911  0.69236  0.32442  Biso   1.000  O
  O2917    1.0000 0.36163  0.65351  0.37564  Biso   1.000  O
  O2918    1.0000 0.27113  0.18962  0.80079  Biso   1.000  O
  O2919    1.0000 0.28612  0.18779  0.82126  Biso   1.000  O
  O2920    1.0000 0.24289  0.11670  0.82738  Biso   1.000  O
  O2921    1.0000 0.25974  0.11963  0.84626  Biso   1.000  O
  O2922    1.0000 0.41070  0.39539  0.82476  Biso   1.000  O
  O2923    1.0000 0.81002  0.92727  0.02783  Biso   1.000  O
  O2924    1.0000 0.81694  0.91423  0.94715  Biso   1.000  O
  O2925    1.0000 0.77337  0.03521  0.93683  Biso   1.000  O
  O2926    1.0000 0.77500  0.03133  0.96175  Biso   1.000  O
  O2927    1.0000 0.42174  0.17144  0.27231  Biso   1.000  O
  O2928    1.0000 0.43714  0.16623  0.25273  Biso   1.000  O
  O2929    1.0000 0.47098  0.16268  0.34557  Biso   1.000  O
  O2930    1.0000 0.48029  0.14716  0.36325  Biso   1.000  O
  O2931    1.0000 0.39505  0.14516  0.36908  Biso   1.000  O
  O2932    1.0000 0.40308  0.12945  0.38729  Biso   1.000  O
  O2933    1.0000 0.43853  0.54912  0.82547  Biso   1.000  O
  O2934    1.0000 0.39797  0.60491  0.87017  Biso   1.000  O
  O2935    1.0000 0.47849  0.06010  0.29782  Biso   1.000  O
  O2936    1.0000 0.46485  0.06241  0.31923  Biso   1.000  O
  O2937    1.0000 0.50832  0.13392  0.32364  Biso   1.000  O
  O2938    1.0000 0.49190  0.12912  0.34277  Biso   1.000  O
  O2939    1.0000 0.41087  0.89846  0.31218  Biso   1.000  O
  O2940    1.0000 0.80943  0.42814  0.52774  Biso   1.000  O
  O2941    1.0000 0.81631  0.41337  0.44784  Biso   1.000  O
  O2942    1.0000 0.77312  0.53463  0.43451  Biso   1.000  O
  O2943    1.0000 0.77419  0.53144  0.45958  Biso   1.000  O
  O2944    1.0000 0.42178  0.67298  0.77274  Biso   1.000  O
  O2945    1.0000 0.43749  0.66781  0.75333  Biso   1.000  O
  O2946    1.0000 0.47195  0.66421  0.84740  Biso   1.000  O
  O2947    1.0000 0.48145  0.64777  0.86406  Biso   1.000  O
  O2948    1.0000 0.39635  0.64471  0.86943  Biso   1.000  O
  O2949    1.0000 0.40454  0.62809  0.88681  Biso   1.000  O
  O2950    1.0000 0.43948  0.05010  0.32734  Biso   1.000  O
  O2951    1.0000 0.39754  0.10585  0.37087  Biso   1.000  O
  O2952    1.0000 0.47897  0.56029  0.79862  Biso   1.000  O
  O2953    1.0000 0.46405  0.56185  0.81915  Biso   1.000  O
  O2954    1.0000 0.50823  0.63415  0.82394  Biso   1.000  O
  O2955    1.0000 0.49107  0.63099  0.84226  Biso   1.000  O
  O2956    1.0000 0.91323  0.39459  0.32412  Biso   1.000  O
  O2957    1.0000 0.30985  0.92664  0.52786  Biso   1.000  O
  O2958    1.0000 0.31707  0.91326  0.44712  Biso   1.000  O
  O2959    1.0000 0.27321  0.03482  0.43647  Biso   1.000  O
  O2960    1.0000 0.27512  0.03094  0.46137  Biso   1.000  O
  O2961    1.0000 0.92132  0.17274  0.77262  Biso   1.000  O
  O2962    1.0000 0.93687  0.16797  0.75304  Biso   1.000  O
  O2963    1.0000 0.97076  0.16325  0.84504  Biso   1.000  O
  O2964    1.0000 0.97966  0.14698  0.86221  Biso   1.000  O
  O2965    1.0000 0.89454  0.14482  0.86790  Biso   1.000  O
  O2966    1.0000 0.90283  0.12893  0.88585  Biso   1.000  O
  O2967    1.0000 0.93849  0.54875  0.32767  Biso   1.000  O
  O2968    1.0000 0.89036  0.59687  0.37510  Biso   1.000  O
  O2969    1.0000 0.97821  0.06085  0.79840  Biso   1.000  O
  O2970    1.0000 0.96297  0.06371  0.81845  Biso   1.000  O
  O2971    1.0000 0.00782  0.13495  0.82266  Biso   1.000  O
  O2972    1.0000 0.99101  0.13026  0.84123  Biso   1.000  O
  O2973    1.0000 0.90976  0.89800  0.81387  Biso   1.000  O
  O2974    1.0000 0.30927  0.42719  0.02905  Biso   1.000  O
  O2975    1.0000 0.32672  0.40767  0.95094  Biso   1.000  O
  O2976    1.0000 0.27371  0.53487  0.93677  Biso   1.000  O
  O2977    1.0000 0.27512  0.53213  0.96195  Biso   1.000  O
  O2978    1.0000 0.92172  0.67262  0.27256  Biso   1.000  O
  O2979    1.0000 0.93767  0.66661  0.25357  Biso   1.000  O
  O2980    1.0000 0.97150  0.66377  0.34788  Biso   1.000  O
  O2981    1.0000 0.98103  0.64720  0.36455  Biso   1.000  O
  O2982    1.0000 0.89685  0.64592  0.38093  Biso   1.000  O
  O2983    1.0000 0.90484  0.62187  0.37987  Biso   1.000  O
  O2984    1.0000 0.93806  0.05035  0.82601  Biso   1.000  O
  O2985    1.0000 0.89669  0.10543  0.86958  Biso   1.000  O
  O2986    1.0000 0.97879  0.55917  0.29990  Biso   1.000  O
  O2987    1.0000 0.96436  0.56118  0.32076  Biso   1.000  O
  O2988    1.0000 0.00798  0.63332  0.32467  Biso   1.000  O
  O2989    1.0000 0.99167  0.62914  0.34386  Biso   1.000  O
  O2990    1.0000 0.39462  0.82476  0.41385  Biso   1.000  O
  O2991    1.0000 0.92758  0.02872  0.80761  Biso   1.000  O
  O2992    1.0000 0.91625  0.94814  0.81636  Biso   1.000  O
  O2993    1.0000 0.02625  0.93741  0.78060  Biso   1.000  O
  O2994    1.0000 0.03967  0.95537  0.76880  Biso   1.000  O
  O2995    1.0000 0.17184  0.27219  0.42218  Biso   1.000  O
  O2996    1.0000 0.16631  0.25307  0.43809  Biso   1.000  O
  O2997    1.0000 0.16635  0.35664  0.47542  Biso   1.000  O
  O2998    1.0000 0.14136  0.35507  0.48010  Biso   1.000  O
  O2999    1.0000 0.14619  0.36992  0.39742  Biso   1.000  O
  O3000    1.0000 0.12930  0.38764  0.40443  Biso   1.000  O
  O3001    1.0000 0.55937  0.82347  0.44349  Biso   1.000  O
  O3002    1.0000 0.59763  0.87478  0.39019  Biso   1.000  O
  O3003    1.0000 0.06818  0.29348  0.46754  Biso   1.000  O
  O3004    1.0000 0.05817  0.31656  0.47106  Biso   1.000  O
  O3005    1.0000 0.13830  0.31926  0.49915  Biso   1.000  O
  O3006    1.0000 0.12727  0.34189  0.50252  Biso   1.000  O
  O3007    1.0000 0.39441  0.32481  0.91121  Biso   1.000  O
  O3008    1.0000 0.92727  0.52821  0.30888  Biso   1.000  O
  O3009    1.0000 0.90756  0.45006  0.32722  Biso   1.000  O
  O3010    1.0000 0.02575  0.43589  0.28230  Biso   1.000  O
  O3011    1.0000 0.03887  0.45304  0.26898  Biso   1.000  O
  O3012    1.0000 0.17886  0.76470  0.92590  Biso   1.000  O
  O3013    1.0000 0.15750  0.75632  0.93683  Biso   1.000  O
  O3014    1.0000 0.16663  0.85618  0.97329  Biso   1.000  O
  O3015    1.0000 0.14164  0.85388  0.97770  Biso   1.000  O
  O3016    1.0000 0.14623  0.87025  0.89498  Biso   1.000  O
  O3017    1.0000 0.12997  0.88820  0.90238  Biso   1.000  O
  O3018    1.0000 0.55977  0.32278  0.94268  Biso   1.000  O
  O3019    1.0000 0.60629  0.37065  0.89787  Biso   1.000  O
  O3020    1.0000 0.06776  0.79204  0.96840  Biso   1.000  O
  O3021    1.0000 0.05774  0.81506  0.97225  Biso   1.000  O
  O3022    1.0000 0.13919  0.81848  0.99804  Biso   1.000  O
  O3023    1.0000 0.89430  0.82547  0.91398  Biso   1.000  O
  O3024    1.0000 0.42790  0.02842  0.30989  Biso   1.000  O
  O3025    1.0000 0.41591  0.94866  0.31704  Biso   1.000  O
  O3026    1.0000 0.52637  0.93620  0.28046  Biso   1.000  O
  O3027    1.0000 0.53973  0.95410  0.26842  Biso   1.000  O
  O3028    1.0000 0.67742  0.26515  0.92583  Biso   1.000  O
  O3029    1.0000 0.65613  0.25610  0.93644  Biso   1.000  O
  O3030    1.0000 0.66326  0.34650  0.97118  Biso   1.000  O
  O3031    1.0000 0.64602  0.36281  0.98037  Biso   1.000  O
  O3032    1.0000 0.64668  0.37035  0.89611  Biso   1.000  O
  O3033    1.0000 0.62967  0.38772  0.90370  Biso   1.000  O
  O3034    1.0000 0.05981  0.82235  0.94372  Biso   1.000  O
  O3035    1.0000 0.10655  0.87112  0.89772  Biso   1.000  O
  O3036    1.0000 0.56770  0.29364  0.96865  Biso   1.000  O
  O3037    1.0000 0.55738  0.31670  0.97145  Biso   1.000  O
  O3038    1.0000 0.63313  0.32436  0.00948  Biso   1.000  O
  O3039    1.0000 0.62850  0.34271  0.99249  Biso   1.000  O
  O3040    1.0000 0.89423  0.32559  0.41321  Biso   1.000  O
  O3041    1.0000 0.42770  0.52810  0.80638  Biso   1.000  O
  O3042    1.0000 0.40736  0.45101  0.82745  Biso   1.000  O
  O3043    1.0000 0.52589  0.43480  0.78149  Biso   1.000  O
  O3044    1.0000 0.53866  0.45293  0.76913  Biso   1.000  O
  O3045    1.0000 0.67750  0.76543  0.42724  Biso   1.000  O
  O3046    1.0000 0.65597  0.75666  0.43759  Biso   1.000  O
  O3047    1.0000 0.66300  0.84594  0.47158  Biso   1.000  O
  O3048    1.0000 0.64701  0.86340  0.48048  Biso   1.000  O
  O3049    1.0000 0.64679  0.88076  0.39660  Biso   1.000  O
  O3050    1.0000 0.62283  0.87935  0.40482  Biso   1.000  O
  O3051    1.0000 0.05992  0.32269  0.44225  Biso   1.000  O
  O3052    1.0000 0.10592  0.37083  0.39809  Biso   1.000  O
  O3053    1.0000 0.56806  0.79377  0.46866  Biso   1.000  O
  O3054    1.0000 0.55744  0.81664  0.47206  Biso   1.000  O
  O3055    1.0000 0.63334  0.82512  0.50966  Biso   1.000  O
  O3056    1.0000 0.62909  0.84328  0.49229  Biso   1.000  O
  O3057    1.0000 0.35121  0.31259  0.83918  Biso   1.000  O
  O3058    1.0000 0.82240  0.52712  0.44041  Biso   1.000  O
  O3059    1.0000 0.83588  0.44593  0.43462  Biso   1.000  O
  O3060    1.0000 0.72343  0.43741  0.46996  Biso   1.000  O
  O3061    1.0000 0.71071  0.45556  0.48212  Biso   1.000  O
  O3062    1.0000 0.57948  0.77233  0.82910  Biso   1.000  O
  O3063    1.0000 0.58466  0.75354  0.81268  Biso   1.000  O
  O3064    1.0000 0.58439  0.85805  0.77632  Biso   1.000  O
  O3065    1.0000 0.60932  0.85752  0.77115  Biso   1.000  O
  O3066    1.0000 0.60473  0.87965  0.85425  Biso   1.000  O
  O3067    1.0000 0.62859  0.87811  0.84582  Biso   1.000  O
  O3068    1.0000 0.19034  0.32383  0.80581  Biso   1.000  O
  O3069    1.0000 0.14380  0.37192  0.85188  Biso   1.000  O
  O3070    1.0000 0.68410  0.79497  0.77879  Biso   1.000  O
  O3071    1.0000 0.69470  0.81807  0.77741  Biso   1.000  O
  O3072    1.0000 0.61350  0.82223  0.75260  Biso   1.000  O
  O3073    1.0000 0.62370  0.84507  0.74823  Biso   1.000  O
  O3074    1.0000 0.35747  0.82525  0.33884  Biso   1.000  O
  O3075    1.0000 0.82272  0.02759  0.94205  Biso   1.000  O
  O3076    1.0000 0.83520  0.94710  0.93438  Biso   1.000  O
  O3077    1.0000 0.72476  0.93709  0.96920  Biso   1.000  O
  O3078    1.0000 0.71128  0.95439  0.98174  Biso   1.000  O
  O3079    1.0000 0.57250  0.26474  0.32534  Biso   1.000  O
  O3080    1.0000 0.59395  0.25637  0.31459  Biso   1.000  O
  O3081    1.0000 0.58343  0.35552  0.27668  Biso   1.000  O
  O3082    1.0000 0.60812  0.35192  0.27219  Biso   1.000  O
  O3083    1.0000 0.60449  0.38113  0.35301  Biso   1.000  O
  O3084    1.0000 0.62865  0.37889  0.34573  Biso   1.000  O
  O3085    1.0000 0.19240  0.82269  0.30678  Biso   1.000  O
  O3086    1.0000 0.15463  0.87422  0.36032  Biso   1.000  O
  O3087    1.0000 0.68249  0.29363  0.28209  Biso   1.000  O
  O3088    1.0000 0.69211  0.31692  0.27818  Biso   1.000  O
  O3089    1.0000 0.61115  0.31801  0.25133  Biso   1.000  O
  O3090    1.0000 0.62234  0.34055  0.24888  Biso   1.000  O
  O3091    1.0000 0.85634  0.32322  0.33870  Biso   1.000  O
  O3092    1.0000 0.32297  0.52765  0.94126  Biso   1.000  O
  O3093    1.0000 0.33980  0.44890  0.92593  Biso   1.000  O
  O3094    1.0000 0.22473  0.43649  0.96816  Biso   1.000  O
  O3095    1.0000 0.21195  0.45382  0.98140  Biso   1.000  O
  O3096    1.0000 0.07816  0.77279  0.32860  Biso   1.000  O
  O3097    1.0000 0.08379  0.75432  0.31199  Biso   1.000  O
  O3098    1.0000 0.08650  0.85907  0.27525  Biso   1.000  O
  O3099    1.0000 0.11127  0.85583  0.27057  Biso   1.000  O
  O3100    1.0000 0.10544  0.88018  0.35329  Biso   1.000  O
  O3101    1.0000 0.12954  0.87877  0.34552  Biso   1.000  O
  O3102    1.0000 0.69140  0.32444  0.30692  Biso   1.000  O
  O3103    1.0000 0.65331  0.37460  0.36072  Biso   1.000  O
  O3104    1.0000 0.18355  0.79292  0.28056  Biso   1.000  O
  O3105    1.0000 0.19344  0.81624  0.27809  Biso   1.000  O
  O3106    1.0000 0.11270  0.82040  0.25145  Biso   1.000  O
  O3107    1.0000 0.12454  0.84247  0.24737  Biso   1.000  O
  O3108    1.0000 0.85692  0.82537  0.83893  Biso   1.000  O
  O3109    1.0000 0.32255  0.02723  0.44123  Biso   1.000  O
  O3110    1.0000 0.33491  0.94654  0.43421  Biso   1.000  O
  O3111    1.0000 0.22485  0.93636  0.46990  Biso   1.000  O
  O3112    1.0000 0.21156  0.95391  0.48242  Biso   1.000  O
  O3113    1.0000 0.07211  0.26533  0.82475  Biso   1.000  O
  O3114    1.0000 0.09354  0.25654  0.81425  Biso   1.000  O
  O3115    1.0000 0.08279  0.35616  0.77630  Biso   1.000  O
  O3116    1.0000 0.10759  0.35419  0.77143  Biso   1.000  O
  O3117    1.0000 0.10378  0.37191  0.85380  Biso   1.000  O
  O3118    1.0000 0.12083  0.38914  0.84614  Biso   1.000  O
  O3119    1.0000 0.69234  0.82339  0.80626  Biso   1.000  O
  O3120    1.0000 0.65414  0.87404  0.85992  Biso   1.000  O
  O3121    1.0000 0.18167  0.29287  0.78122  Biso   1.000  O
  O3122    1.0000 0.19155  0.31602  0.77751  Biso   1.000  O
  O3123    1.0000 0.11100  0.31935  0.75110  Biso   1.000  O
  O3124    1.0000 0.12181  0.34216  0.74828  Biso   1.000  O
  O3125    1.0000 0.85325  0.93839  0.91173  Biso   1.000  O
  O3126    1.0000 0.32045  0.72798  0.29908  Biso   1.000  O
  O3127    1.0000 0.34316  0.80111  0.32699  Biso   1.000  O
  O3128    1.0000 0.22403  0.81264  0.28055  Biso   1.000  O
  O3129    1.0000 0.21179  0.79383  0.26875  Biso   1.000  O
  O3130    1.0000 0.07903  0.47824  0.92263  Biso   1.000  O
  O3131    1.0000 0.08358  0.49687  0.93934  Biso   1.000  O
  O3132    1.0000 0.08529  0.40161  0.97144  Biso   1.000  O
  O3133    1.0000 0.10212  0.38479  0.98017  Biso   1.000  O
  O3134    1.0000 0.10497  0.38226  0.89492  Biso   1.000  O
  O3135    1.0000 0.12031  0.36354  0.90186  Biso   1.000  O
  O3136    1.0000 0.69299  0.92436  0.94456  Biso   1.000  O
  O3137    1.0000 0.65447  0.87532  0.88990  Biso   1.000  O
  O3138    1.0000 0.18347  0.45484  0.97082  Biso   1.000  O
  O3139    1.0000 0.19429  0.43166  0.97200  Biso   1.000  O
  O3140    1.0000 0.11707  0.42426  0.00704  Biso   1.000  O
  O3141    1.0000 0.12016  0.40538  0.99019  Biso   1.000  O
  O3142    1.0000 0.85245  0.43636  0.41111  Biso   1.000  O
  O3143    1.0000 0.32091  0.22275  0.81056  Biso   1.000  O
  O3144    1.0000 0.33356  0.30303  0.81630  Biso   1.000  O
  O3145    1.0000 0.22214  0.31293  0.78021  Biso   1.000  O
  O3146    1.0000 0.20987  0.29373  0.76902  Biso   1.000  O
  O3147    1.0000 0.07354  0.98486  0.42558  Biso   1.000  O
  O3148    1.0000 0.09536  0.99294  0.43558  Biso   1.000  O
  O3149    1.0000 0.08582  0.90104  0.46981  Biso   1.000  O
  O3150    1.0000 0.10170  0.88389  0.47952  Biso   1.000  O
  O3151    1.0000 0.10464  0.86896  0.39517  Biso   1.000  O
  O3152    1.0000 0.12838  0.87108  0.40385  Biso   1.000  O
  O3153    1.0000 0.69152  0.42501  0.44500  Biso   1.000  O
  O3154    1.0000 0.65259  0.37578  0.39048  Biso   1.000  O
  O3155    1.0000 0.18299  0.95379  0.47088  Biso   1.000  O
  O3156    1.0000 0.19459  0.93124  0.47388  Biso   1.000  O
  O3157    1.0000 0.11688  0.92275  0.50698  Biso   1.000  O
  O3158    1.0000 0.11994  0.90389  0.49019  Biso   1.000  O
  O3159    1.0000 0.35284  0.93783  0.41125  Biso   1.000  O
  O3160    1.0000 0.81928  0.72780  0.79905  Biso   1.000  O
  O3161    1.0000 0.84272  0.80130  0.82655  Biso   1.000  O
  O3162    1.0000 0.72515  0.81342  0.78146  Biso   1.000  O
  O3163    1.0000 0.71265  0.79608  0.76793  Biso   1.000  O
  O3164    1.0000 0.57781  0.47723  0.42275  Biso   1.000  O
  O3165    1.0000 0.58182  0.49659  0.43851  Biso   1.000  O
  O3166    1.0000 0.58414  0.40242  0.47071  Biso   1.000  O
  O3167    1.0000 0.60145  0.38610  0.47945  Biso   1.000  O
  O3168    1.0000 0.60305  0.37051  0.39513  Biso   1.000  O
  O3169    1.0000 0.62677  0.37277  0.40366  Biso   1.000  O
  O3170    1.0000 0.19290  0.92369  0.44546  Biso   1.000  O
  O3171    1.0000 0.15422  0.87509  0.39016  Biso   1.000  O
  O3172    1.0000 0.68222  0.45545  0.47133  Biso   1.000  O
  O3173    1.0000 0.69314  0.43250  0.47366  Biso   1.000  O
  O3174    1.0000 0.61516  0.42495  0.50793  Biso   1.000  O
  O3175    1.0000 0.61879  0.40713  0.49014  Biso   1.000  O
  O3176    1.0000 0.35559  0.42522  0.91366  Biso   1.000  O
  O3177    1.0000 0.82243  0.22172  0.31072  Biso   1.000  O
  O3178    1.0000 0.84054  0.30012  0.32648  Biso   1.000  O
  O3179    1.0000 0.72285  0.31396  0.28067  Biso   1.000  O
  O3180    1.0000 0.71052  0.29491  0.26944  Biso   1.000  O
  O3181    1.0000 0.57326  0.98417  0.92598  Biso   1.000  O
  O3182    1.0000 0.59516  0.99255  0.93566  Biso   1.000  O
  O3183    1.0000 0.58651  0.90069  0.97050  Biso   1.000  O
  O3184    1.0000 0.60182  0.88313  0.98052  Biso   1.000  O
  O3185    1.0000 0.60522  0.86860  0.89615  Biso   1.000  O
  O3186    1.0000 0.62910  0.87111  0.90428  Biso   1.000  O
  O3187    1.0000 0.19237  0.42551  0.94316  Biso   1.000  O
  O3188    1.0000 0.14401  0.38038  0.89647  Biso   1.000  O
  O3189    1.0000 0.68280  0.95389  0.97022  Biso   1.000  O
  O3190    1.0000 0.69464  0.93149  0.97303  Biso   1.000  O
  O3191    1.0000 0.61738  0.92234  0.00725  Biso   1.000  O
  O3192    1.0000 0.62054  0.90309  0.99083  Biso   1.000  O
  O3193    1.0000 0.89379  0.42485  0.33832  Biso   1.000  O
  O3194    1.0000 0.42800  0.22277  0.93869  Biso   1.000  O
  O3195    1.0000 0.41052  0.30065  0.92181  Biso   1.000  O
  O3196    1.0000 0.52708  0.31360  0.96789  Biso   1.000  O
  O3197    1.0000 0.53898  0.29474  0.98015  Biso   1.000  O
  O3198    1.0000 0.67866  0.98438  0.32413  Biso   1.000  O
  O3199    1.0000 0.65725  0.99232  0.31301  Biso   1.000  O
  O3200    1.0000 0.66524  0.90244  0.27957  Biso   1.000  O
  O3201    1.0000 0.64958  0.88476  0.27086  Biso   1.000  O
  O3202    1.0000 0.64712  0.86973  0.35484  Biso   1.000  O
  O3203    1.0000 0.62329  0.87096  0.34617  Biso   1.000  O
  O3204    1.0000 0.05868  0.42494  0.30670  Biso   1.000  O
  O3205    1.0000 0.10759  0.37981  0.35346  Biso   1.000  O
  O3206    1.0000 0.56807  0.95390  0.27990  Biso   1.000  O
  O3207    1.0000 0.55671  0.93111  0.27745  Biso   1.000  O
  O3208    1.0000 0.63423  0.92333  0.24297  Biso   1.000  O
  O3209    1.0000 0.63148  0.90509  0.26043  Biso   1.000  O
  O3210    1.0000 0.89810  0.93892  0.83948  Biso   1.000  O
  O3211    1.0000 0.42844  0.72352  0.44167  Biso   1.000  O
  O3212    1.0000 0.41117  0.80111  0.42538  Biso   1.000  O
  O3213    1.0000 0.52690  0.81295  0.46827  Biso   1.000  O
  O3214    1.0000 0.53980  0.79523  0.48087  Biso   1.000  O
  O3215    1.0000 0.67755  0.48441  0.82371  Biso   1.000  O
  O3216    1.0000 0.65575  0.49224  0.81347  Biso   1.000  O
  O3217    1.0000 0.66403  0.40431  0.77836  Biso   1.000  O
  O3218    1.0000 0.64811  0.38659  0.77011  Biso   1.000  O
  O3219    1.0000 0.64593  0.38226  0.85553  Biso   1.000  O
  O3220    1.0000 0.63093  0.36363  0.84734  Biso   1.000  O
  O3221    1.0000 0.05803  0.92610  0.80643  Biso   1.000  O
  O3222    1.0000 0.10523  0.87873  0.85287  Biso   1.000  O
  O3223    1.0000 0.56731  0.45294  0.78099  Biso   1.000  O
  O3224    1.0000 0.55597  0.43062  0.77767  Biso   1.000  O
  O3225    1.0000 0.63357  0.42491  0.74125  Biso   1.000  O
  O3226    1.0000 0.63003  0.40625  0.75822  Biso   1.000  O
  O3227    1.0000 0.39248  0.42688  0.83926  Biso   1.000  O
  O3228    1.0000 0.92814  0.22328  0.44023  Biso   1.000  O
  O3229    1.0000 0.91043  0.30118  0.42385  Biso   1.000  O
  O3230    1.0000 0.02771  0.31356  0.46798  Biso   1.000  O
  O3231    1.0000 0.03974  0.29453  0.47984  Biso   1.000  O
  O3232    1.0000 0.17128  0.97782  0.82817  Biso   1.000  O
  O3233    1.0000 0.16786  0.99644  0.81126  Biso   1.000  O
  O3234    1.0000 0.16651  0.89118  0.77568  Biso   1.000  O
  O3235    1.0000 0.14153  0.89310  0.77092  Biso   1.000  O
  O3236    1.0000 0.14488  0.87992  0.85369  Biso   1.000  O
  O3237    1.0000 0.12850  0.86174  0.84701  Biso   1.000  O
  O3238    1.0000 0.55831  0.42482  0.80685  Biso   1.000  O
  O3239    1.0000 0.60686  0.37950  0.85328  Biso   1.000  O
  O3240    1.0000 0.06783  0.95541  0.78189  Biso   1.000  O
  O3241    1.0000 0.05657  0.93323  0.77758  Biso   1.000  O
  O3242    1.0000 0.13834  0.92883  0.75231  Biso   1.000  O
  O3243    1.0000 0.12754  0.90619  0.74841  Biso   1.000  O
  O3244    1.0000 0.39720  0.93778  0.33906  Biso   1.000  O
  O3245    1.0000 0.92705  0.72308  0.94075  Biso   1.000  O
  O3246    1.0000 0.91015  0.80142  0.92522  Biso   1.000  O
  O3247    1.0000 0.02706  0.81191  0.96803  Biso   1.000  O
  O3248    1.0000 0.03925  0.79374  0.98059  Biso   1.000  O
  O3249    1.0000 0.17826  0.48451  0.32409  Biso   1.000  O
  O3250    1.0000 0.15634  0.49262  0.31442  Biso   1.000  O
  O3251    1.0000 0.16435  0.40409  0.27935  Biso   1.000  O
  O3252    1.0000 0.14856  0.38622  0.27112  Biso   1.000  O
  O3253    1.0000 0.14673  0.38136  0.35658  Biso   1.000  O
  O3254    1.0000 0.13134  0.36320  0.34817  Biso   1.000  O
  O3255    1.0000 0.55806  0.92447  0.30620  Biso   1.000  O
  O3256    1.0000 0.59785  0.87535  0.36008  Biso   1.000  O
  O3257    1.0000 0.06764  0.45293  0.27984  Biso   1.000  O
  O3258    1.0000 0.05581  0.43065  0.27752  Biso   1.000  O
  O3259    1.0000 0.13376  0.42411  0.24188  Biso   1.000  O
  O3260    1.0000 0.13023  0.40554  0.25896  Biso   1.000  O
  O3261    1.0000 0.32308  0.83796  0.35598  Biso   1.000  O
  O3262    1.0000 0.52181  0.44908  0.81807  Biso   1.000  O
  O3263    1.0000 0.44837  0.42563  0.83993  Biso   1.000  O
  O3264    1.0000 0.43713  0.47792  0.71375  Biso   1.000  O
  O3265    1.0000 0.46204  0.47586  0.71822  Biso   1.000  O
  O3266    1.0000 0.76459  0.82466  0.57364  Biso   1.000  O
  O3267    1.0000 0.75653  0.81469  0.59552  Biso   1.000  O
  O3268    1.0000 0.85684  0.77543  0.58394  Biso   1.000  O
  O3269    1.0000 0.85598  0.77003  0.60887  Biso   1.000  O
  O3270    1.0000 0.88116  0.85309  0.60338  Biso   1.000  O
  O3271    1.0000 0.88005  0.84511  0.62748  Biso   1.000  O
  O3272    1.0000 0.32561  0.80552  0.19091  Biso   1.000  O
  O3273    1.0000 0.37534  0.85925  0.15160  Biso   1.000  O
  O3274    1.0000 0.80028  0.77291  0.69077  Biso   1.000  O
  O3275    1.0000 0.82090  0.78746  0.68859  Biso   1.000  O
  O3276    1.0000 0.82056  0.75088  0.61348  Biso   1.000  O
  O3277    1.0000 0.84379  0.74689  0.62285  Biso   1.000  O
  O3278    1.0000 0.31202  0.33993  0.85298  Biso   1.000  O
  O3279    1.0000 0.52294  0.95074  0.31745  Biso   1.000  O
  O3280    1.0000 0.44752  0.93378  0.33544  Biso   1.000  O
  O3281    1.0000 0.43708  0.96750  0.22442  Biso   1.000  O
  O3282    1.0000 0.45396  0.98135  0.21193  Biso   1.000  O
  O3283    1.0000 0.76417  0.32432  0.07253  Biso   1.000  O
  O3284    1.0000 0.75607  0.31230  0.09333  Biso   1.000  O
  O3285    1.0000 0.84631  0.27931  0.08548  Biso   1.000  O
  O3286    1.0000 0.86288  0.26995  0.10218  Biso   1.000  O
  O3287    1.0000 0.87969  0.35419  0.10386  Biso   1.000  O
  O3288    1.0000 0.87816  0.34542  0.12762  Biso   1.000  O
  O3289    1.0000 0.32605  0.30984  0.70071  Biso   1.000  O
  O3290    1.0000 0.37245  0.35991  0.65367  Biso   1.000  O
  O3291    1.0000 0.79924  0.26959  0.19076  Biso   1.000  O
  O3292    1.0000 0.81923  0.28477  0.18786  Biso   1.000  O
  O3293    1.0000 0.82390  0.24136  0.11536  Biso   1.000  O
  O3294    1.0000 0.84190  0.25888  0.11882  Biso   1.000  O
  O3295    1.0000 0.82268  0.83750  0.85689  Biso   1.000  O
  O3296    1.0000 0.02369  0.45071  0.31879  Biso   1.000  O
  O3297    1.0000 0.94935  0.42668  0.34079  Biso   1.000  O
  O3298    1.0000 0.93571  0.47785  0.21429  Biso   1.000  O
  O3299    1.0000 0.96038  0.47593  0.21956  Biso   1.000  O
  O3300    1.0000 0.26592  0.82345  0.07374  Biso   1.000  O
  O3301    1.0000 0.25742  0.81497  0.09603  Biso   1.000  O
  O3302    1.0000 0.34638  0.77860  0.08634  Biso   1.000  O
  O3303    1.0000 0.36361  0.76927  0.10254  Biso   1.000  O
  O3304    1.0000 0.38081  0.85356  0.10228  Biso   1.000  O
  O3305    1.0000 0.37957  0.84497  0.12627  Biso   1.000  O
  O3306    1.0000 0.82875  0.81261  0.70143  Biso   1.000  O
  O3307    1.0000 0.87596  0.85964  0.65250  Biso   1.000  O
  O3308    1.0000 0.29491  0.78131  0.18191  Biso   1.000  O
  O3309    1.0000 0.31748  0.77696  0.19273  Biso   1.000  O
  O3310    1.0000 0.32540  0.74013  0.11631  Biso   1.000  O
  O3311    1.0000 0.34387  0.75721  0.12073  Biso   1.000  O
  O3312    1.0000 0.82316  0.33860  0.35502  Biso   1.000  O
  O3313    1.0000 0.02195  0.95083  0.81779  Biso   1.000  O
  O3314    1.0000 0.94786  0.93337  0.83385  Biso   1.000  O
  O3315    1.0000 0.93471  0.97639  0.71547  Biso   1.000  O
  O3316    1.0000 0.95970  0.97580  0.71962  Biso   1.000  O
  O3317    1.0000 0.26471  0.32511  0.57371  Biso   1.000  O
  O3318    1.0000 0.25693  0.31520  0.59572  Biso   1.000  O
  O3319    1.0000 0.34641  0.27975  0.58592  Biso   1.000  O
  O3320    1.0000 0.36357  0.27023  0.60205  Biso   1.000  O
  O3321    1.0000 0.37834  0.35476  0.60437  Biso   1.000  O
  O3322    1.0000 0.37684  0.34579  0.62822  Biso   1.000  O
  O3323    1.0000 0.82729  0.30996  0.20031  Biso   1.000  O
  O3324    1.0000 0.87398  0.35932  0.15321  Biso   1.000  O
  O3325    1.0000 0.29803  0.26979  0.68927  Biso   1.000  O
  O3326    1.0000 0.31851  0.28458  0.68735  Biso   1.000  O
  O3327    1.0000 0.32464  0.24184  0.61545  Biso   1.000  O
  O3328    1.0000 0.34337  0.25855  0.61977  Biso   1.000  O
  O3329    1.0000 0.81174  0.41140  0.39676  Biso   1.000  O
  O3330    1.0000 0.02345  0.79916  0.93024  Biso   1.000  O
  O3331    1.0000 0.95012  0.82666  0.90994  Biso   1.000  O
  O3332    1.0000 0.93610  0.77396  0.03605  Biso   1.000  O
  O3333    1.0000 0.96113  0.77437  0.03143  Biso   1.000  O
  O3334    1.0000 0.27284  0.42106  0.17191  Biso   1.000  O
  O3335    1.0000 0.25357  0.43692  0.16680  Biso   1.000  O
  O3336    1.0000 0.35689  0.47348  0.16713  Biso   1.000  O
  O3337    1.0000 0.35430  0.47801  0.14221  Biso   1.000  O
  O3338    1.0000 0.37915  0.39576  0.14579  Biso   1.000  O
  O3339    1.0000 0.37813  0.40384  0.12169  Biso   1.000  O
  O3340    1.0000 0.82769  0.43940  0.54871  Biso   1.000  O
  O3341    1.0000 0.87488  0.38984  0.59553  Biso   1.000  O
  O3342    1.0000 0.29819  0.47878  0.05948  Biso   1.000  O
  O3343    1.0000 0.31885  0.46440  0.06237  Biso   1.000  O
  O3344    1.0000 0.32011  0.49776  0.13837  Biso   1.000  O
  O3345    1.0000 0.34293  0.50125  0.12801  Biso   1.000  O
  O3346    1.0000 0.81441  0.91182  0.89567  Biso   1.000  O
  O3347    1.0000 0.02306  0.29933  0.43037  Biso   1.000  O
  O3348    1.0000 0.94958  0.32745  0.40797  Biso   1.000  O
  O3349    1.0000 0.93841  0.27312  0.53585  Biso   1.000  O
  O3350    1.0000 0.96339  0.27441  0.53139  Biso   1.000  O
  O3351    1.0000 0.27250  0.92096  0.67095  Biso   1.000  O
  O3352    1.0000 0.25310  0.93661  0.66594  Biso   1.000  O
  O3353    1.0000 0.34647  0.97117  0.66609  Biso   1.000  O
  O3354    1.0000 0.36439  0.98025  0.65059  Biso   1.000  O
  O3355    1.0000 0.36846  0.89430  0.64716  Biso   1.000  O
  O3356    1.0000 0.38621  0.90314  0.63132  Biso   1.000  O
  O3357    1.0000 0.82778  0.93756  0.04931  Biso   1.000  O
  O3358    1.0000 0.87459  0.89036  0.09851  Biso   1.000  O
  O3359    1.0000 0.30036  0.97790  0.55994  Biso   1.000  O
  O3360    1.0000 0.32122  0.96358  0.56151  Biso   1.000  O
  O3361    1.0000 0.32559  0.00715  0.63380  Biso   1.000  O
  O3362    1.0000 0.34485  0.99060  0.63127  Biso   1.000  O
  O3363    1.0000 0.32413  0.41193  0.89537  Biso   1.000  O
  O3364    1.0000 0.52291  0.80021  0.43110  Biso   1.000  O
  O3365    1.0000 0.45028  0.82689  0.40874  Biso   1.000  O
  O3366    1.0000 0.43801  0.78312  0.52711  Biso   1.000  O
  O3367    1.0000 0.45681  0.77100  0.53919  Biso   1.000  O
  O3368    1.0000 0.77239  0.42033  0.67020  Biso   1.000  O
  O3369    1.0000 0.75313  0.43638  0.66603  Biso   1.000  O
  O3370    1.0000 0.85708  0.47429  0.66625  Biso   1.000  O
  O3371    1.0000 0.85436  0.47909  0.64147  Biso   1.000  O
  O3372    1.0000 0.87821  0.39642  0.64479  Biso   1.000  O
  O3373    1.0000 0.87768  0.40440  0.62065  Biso   1.000  O
  O3374    1.0000 0.32701  0.43888  0.05026  Biso   1.000  O
  O3375    1.0000 0.37448  0.38942  0.09661  Biso   1.000  O
  O3376    1.0000 0.79903  0.47902  0.55941  Biso   1.000  O
  O3377    1.0000 0.81988  0.46477  0.56152  Biso   1.000  O
  O3378    1.0000 0.82011  0.49869  0.63763  Biso   1.000  O
  O3379    1.0000 0.84303  0.50268  0.62769  Biso   1.000  O
  O3380    1.0000 0.31357  0.91130  0.39585  Biso   1.000  O
  O3381    1.0000 0.52307  0.29930  0.93046  Biso   1.000  O
  O3382    1.0000 0.45009  0.32704  0.90747  Biso   1.000  O
  O3383    1.0000 0.43658  0.27280  0.03533  Biso   1.000  O
  O3384    1.0000 0.46149  0.27409  0.03057  Biso   1.000  O
  O3385    1.0000 0.76671  0.92436  0.17799  Biso   1.000  O
  O3386    1.0000 0.75793  0.93586  0.15695  Biso   1.000  O
  O3387    1.0000 0.84685  0.97111  0.16514  Biso   1.000  O
  O3388    1.0000 0.86357  0.98015  0.14846  Biso   1.000  O
  O3389    1.0000 0.87853  0.89487  0.14822  Biso   1.000  O
  O3390    1.0000 0.87733  0.90394  0.12453  Biso   1.000  O
  O3391    1.0000 0.32802  0.93764  0.54958  Biso   1.000  O
  O3392    1.0000 0.37139  0.89752  0.60658  Biso   1.000  O
  O3393    1.0000 0.79940  0.97733  0.06046  Biso   1.000  O
  O3394    1.0000 0.81997  0.96260  0.06249  Biso   1.000  O
  O3395    1.0000 0.82350  0.00688  0.13439  Biso   1.000  O
  O3396    1.0000 0.84193  0.98969  0.13121  Biso   1.000  O
  O3397    1.0000 0.42608  0.33928  0.89277  Biso   1.000  O
  O3398    1.0000 0.22811  0.94905  0.43298  Biso   1.000  O
  O3399    1.0000 0.30222  0.93259  0.41434  Biso   1.000  O
  O3400    1.0000 0.31540  0.97589  0.53414  Biso   1.000  O
  O3401    1.0000 0.29031  0.97471  0.53072  Biso   1.000  O
  O3402    1.0000 0.98368  0.32438  0.67768  Biso   1.000  O
  O3403    1.0000 0.99182  0.31403  0.65601  Biso   1.000  O
  O3404    1.0000 0.89147  0.27550  0.66521  Biso   1.000  O
  O3405    1.0000 0.89349  0.27044  0.64030  Biso   1.000  O
  O3406    1.0000 0.86959  0.35375  0.64458  Biso   1.000  O
  O3407    1.0000 0.87293  0.34591  0.62068  Biso   1.000  O
  O3408    1.0000 0.42388  0.31152  0.04882  Biso   1.000  O
  O3409    1.0000 0.37631  0.36014  0.09619  Biso   1.000  O
  O3410    1.0000 0.95439  0.27283  0.56122  Biso   1.000  O
  O3411    1.0000 0.93306  0.28675  0.56278  Biso   1.000  O
  O3412    1.0000 0.92818  0.25086  0.63704  Biso   1.000  O
  O3413    1.0000 0.90552  0.24716  0.62634  Biso   1.000  O
  O3414    1.0000 0.42540  0.83817  0.39387  Biso   1.000  O
  O3415    1.0000 0.22789  0.45140  0.93231  Biso   1.000  O
  O3416    1.0000 0.30028  0.42271  0.91163  Biso   1.000  O
  O3417    1.0000 0.31381  0.47664  0.03441  Biso   1.000  O
  O3418    1.0000 0.28873  0.47519  0.03025  Biso   1.000  O
  O3419    1.0000 0.98561  0.82343  0.17741  Biso   1.000  O
  O3420    1.0000 0.99391  0.81269  0.15604  Biso   1.000  O
  O3421    1.0000 0.89305  0.77465  0.16579  Biso   1.000  O
  O3422    1.0000 0.89474  0.76934  0.14090  Biso   1.000  O
  O3423    1.0000 0.87022  0.85223  0.14622  Biso   1.000  O
  O3424    1.0000 0.87296  0.84508  0.12207  Biso   1.000  O
  O3425    1.0000 0.42828  0.80837  0.55964  Biso   1.000  O
  O3426    1.0000 0.37996  0.85313  0.60607  Biso   1.000  O
  O3427    1.0000 0.95278  0.77256  0.06122  Biso   1.000  O
  O3428    1.0000 0.93198  0.78703  0.06367  Biso   1.000  O
  O3429    1.0000 0.92886  0.74956  0.13722  Biso   1.000  O
  O3430    1.0000 0.90605  0.74570  0.12702  Biso   1.000  O
  O3431    1.0000 0.92468  0.33943  0.39393  Biso   1.000  O
  O3432    1.0000 0.72776  0.95034  0.93199  Biso   1.000  O
  O3433    1.0000 0.80284  0.93351  0.91341  Biso   1.000  O
  O3434    1.0000 0.81499  0.97631  0.03512  Biso   1.000  O
  O3435    1.0000 0.78986  0.97528  0.03126  Biso   1.000  O
  O3436    1.0000 0.48520  0.32316  0.17641  Biso   1.000  O
  O3437    1.0000 0.49325  0.31250  0.15488  Biso   1.000  O
  O3438    1.0000 0.39245  0.27486  0.16571  Biso   1.000  O
  O3439    1.0000 0.39389  0.26986  0.14073  Biso   1.000  O
  O3440    1.0000 0.37023  0.35316  0.14564  Biso   1.000  O
  O3441    1.0000 0.37299  0.34538  0.12165  Biso   1.000  O
  O3442    1.0000 0.92536  0.31177  0.54928  Biso   1.000  O
  O3443    1.0000 0.87684  0.36063  0.59532  Biso   1.000  O
  O3444    1.0000 0.45278  0.27242  0.06048  Biso   1.000  O
  O3445    1.0000 0.43158  0.28648  0.06234  Biso   1.000  O
  O3446    1.0000 0.42830  0.25011  0.13671  Biso   1.000  O
  O3447    1.0000 0.40544  0.24653  0.12646  Biso   1.000  O
  O3448    1.0000 0.92616  0.83836  0.89455  Biso   1.000  O
  O3449    1.0000 0.72649  0.45087  0.43253  Biso   1.000  O
  O3450    1.0000 0.80155  0.43328  0.41535  Biso   1.000  O
  O3451    1.0000 0.81387  0.47743  0.53394  Biso   1.000  O
  O3452    1.0000 0.78869  0.47585  0.53050  Biso   1.000  O
  O3453    1.0000 0.47702  0.82791  0.67203  Biso   1.000  O
  O3454    1.0000 0.49638  0.81240  0.66648  Biso   1.000  O
  O3455    1.0000 0.40286  0.77825  0.66224  Biso   1.000  O
  O3456    1.0000 0.38554  0.76889  0.64618  Biso   1.000  O
  O3457    1.0000 0.38137  0.85417  0.64571  Biso   1.000  O
  O3458    1.0000 0.36341  0.84677  0.62945  Biso   1.000  O
  O3459    1.0000 0.92446  0.81262  0.05095  Biso   1.000  O
  O3460    1.0000 0.87701  0.86060  0.09761  Biso   1.000  O
  O3461    1.0000 0.45760  0.78268  0.56794  Biso   1.000  O
  O3462    1.0000 0.43468  0.77970  0.55751  Biso   1.000  O
  O3463    1.0000 0.42536  0.74161  0.63284  Biso   1.000  O
  O3464    1.0000 0.40625  0.75799  0.62819  Biso   1.000  O
  O3465    1.0000 0.93753  0.91145  0.85271  Biso   1.000  O
  O3466    1.0000 0.72813  0.30050  0.31796  Biso   1.000  O
  O3467    1.0000 0.80026  0.32673  0.33787  Biso   1.000  O
  O3468    1.0000 0.81489  0.27168  0.21547  Biso   1.000  O
  O3469    1.0000 0.79000  0.27265  0.22007  Biso   1.000  O
  O3470    1.0000 0.47815  0.92194  0.07707  Biso   1.000  O
  O3471    1.0000 0.49705  0.93818  0.08261  Biso   1.000  O
  O3472    1.0000 0.39233  0.97369  0.08251  Biso   1.000  O
  O3473    1.0000 0.39273  0.97842  0.10762  Biso   1.000  O
  O3474    1.0000 0.37147  0.89587  0.10262  Biso   1.000  O
  O3475    1.0000 0.37323  0.90369  0.12670  Biso   1.000  O
  O3476    1.0000 0.92318  0.93742  0.70105  Biso   1.000  O
  O3477    1.0000 0.87695  0.88904  0.65254  Biso   1.000  O
  O3478    1.0000 0.45483  0.97147  0.18315  Biso   1.000  O
  O3479    1.0000 0.43181  0.97238  0.19410  Biso   1.000  O
  O3480    1.0000 0.42733  0.99700  0.11278  Biso   1.000  O
  O3481    1.0000 0.92653  0.41292  0.35650  Biso   1.000  O
  O3482    1.0000 0.72774  0.79769  0.81771  Biso   1.000  O
  O3483    1.0000 0.80071  0.82419  0.83986  Biso   1.000  O
  O3484    1.0000 0.81521  0.77430  0.71624  Biso   1.000  O
  O3485    1.0000 0.79020  0.77601  0.71980  Biso   1.000  O
  O3486    1.0000 0.48354  0.42390  0.57356  Biso   1.000  O
  O3487    1.0000 0.49277  0.43531  0.59446  Biso   1.000  O
  O3488    1.0000 0.39244  0.47409  0.58295  Biso   1.000  O
  O3489    1.0000 0.39514  0.47885  0.60771  Biso   1.000  O
  O3490    1.0000 0.36931  0.39712  0.60514  Biso   1.000  O
  O3491    1.0000 0.37135  0.40464  0.62922  Biso   1.000  O
  O3492    1.0000 0.92289  0.43907  0.20047  Biso   1.000  O
  O3493    1.0000 0.87534  0.38909  0.15383  Biso   1.000  O
  O3494    1.0000 0.45330  0.47742  0.68852  Biso   1.000  O
  O3495    1.0000 0.43163  0.46412  0.68682  Biso   1.000  O
  O3496    1.0000 0.42889  0.49767  0.61139  Biso   1.000  O
  O3497    1.0000 0.40640  0.50208  0.62196  Biso   1.000  O
  O3498    1.0000 0.43671  0.91086  0.35268  Biso   1.000  O
  O3499    1.0000 0.22634  0.30028  0.81905  Biso   1.000  O
  O3500    1.0000 0.30051  0.31794  0.83541  Biso   1.000  O
  O3501    1.0000 0.31340  0.27103  0.71491  Biso   1.000  O
  O3502    1.0000 0.28818  0.27173  0.71822  Biso   1.000  O
  O3503    1.0000 0.97790  0.92266  0.57686  Biso   1.000  O
  O3504    1.0000 0.99680  0.93892  0.58218  Biso   1.000  O
  O3505    1.0000 0.89237  0.97388  0.58345  Biso   1.000  O
  O3506    1.0000 0.89351  0.97842  0.60858  Biso   1.000  O
  O3507    1.0000 0.87077  0.89544  0.60325  Biso   1.000  O
  O3508    1.0000 0.87322  0.90332  0.62721  Biso   1.000  O
  O3509    1.0000 0.42596  0.94348  0.19126  Biso   1.000  O
  O3510    1.0000 0.37684  0.88881  0.15206  Biso   1.000  O
  O3511    1.0000 0.94936  0.97863  0.69050  Biso   1.000  O
  O3512    1.0000 0.92981  0.96276  0.68800  Biso   1.000  O
  O3513    1.0000 0.92967  0.99772  0.61148  Biso   1.000  O
  O3514    1.0000 0.42578  0.41344  0.85669  Biso   1.000  O
  O3515    1.0000 0.22867  0.79804  0.31768  Biso   1.000  O
  O3516    1.0000 0.30119  0.82490  0.33879  Biso   1.000  O
  O3517    1.0000 0.31394  0.78037  0.22307  Biso   1.000  O
  O3518    1.0000 0.29485  0.76928  0.21056  Biso   1.000  O
  O3519    1.0000 0.98512  0.42488  0.07335  Biso   1.000  O
  O3520    1.0000 0.99336  0.43582  0.09480  Biso   1.000  O
  O3521    1.0000 0.89324  0.47346  0.08350  Biso   1.000  O
  O3522    1.0000 0.89558  0.47840  0.10846  Biso   1.000  O
  O3523    1.0000 0.86901  0.39623  0.10461  Biso   1.000  O
  O3524    1.0000 0.87172  0.40387  0.12852  Biso   1.000  O
  O3525    1.0000 0.42285  0.43956  0.70035  Biso   1.000  O
  O3526    1.0000 0.37450  0.38959  0.65450  Biso   1.000  O
  O3527    1.0000 0.95215  0.47794  0.18957  Biso   1.000  O
  O3528    1.0000 0.93091  0.46399  0.18722  Biso   1.000  O
  O3529    1.0000 0.93039  0.49697  0.11115  Biso   1.000  O
  O3530    1.0000 0.90810  0.50130  0.12245  Biso   1.000  O
  C1       1.0000 0.87631  0.88722  0.92029  Biso   1.000  C
  C2       1.0000 0.32639  0.30547  0.75760  Biso   1.000  C
  C3       1.0000 0.23467  0.24742  0.81575  Biso   1.000  C
  C4       1.0000 0.09572  0.95735  0.46898  Biso   1.000  C
  C5       1.0000 0.10026  0.94070  0.39855  Biso   1.000  C
  C6       1.0000 0.10691  0.94951  0.37281  Biso   1.000  C
  C7       1.0000 0.11079  0.93426  0.36857  Biso   1.000  C
  C8       1.0000 0.65934  0.91443  0.90418  Biso   1.000  C
  C9       1.0000 0.14865  0.99990  0.43557  Biso   1.000  C
  C10      1.0000 0.16015  0.97226  0.42342  Biso   1.000  C
  C11      1.0000 0.14605  0.97781  0.41847  Biso   1.000  C
  C12      1.0000 0.33290  0.80990  0.27147  Biso   1.000  C
  C13      1.0000 0.24690  0.75738  0.31380  Biso   1.000  C
  C14      1.0000 0.08415  0.46279  0.97586  Biso   1.000  C
  C15      1.0000 0.09383  0.42861  0.88074  Biso   1.000  C
  C16      1.0000 0.11698  0.45069  0.88572  Biso   1.000  C
  C17      1.0000 0.12083  0.43592  0.88034  Biso   1.000  C
  C18      1.0000 0.67975  0.42192  0.40448  Biso   1.000  C
  C19      1.0000 0.13907  0.47933  0.93896  Biso   1.000  C
  C20      1.0000 0.16657  0.49374  0.92961  Biso   1.000  C
  C21      1.0000 0.15235  0.50006  0.92540  Biso   1.000  C
  C22      1.0000 0.37649  0.88706  0.41963  Biso   1.000  C
  C23      1.0000 0.83445  0.30976  0.25444  Biso   1.000  C
  C24      1.0000 0.73599  0.24779  0.31504  Biso   1.000  C
  C25      1.0000 0.59630  0.95679  0.96886  Biso   1.000  C
  C26      1.0000 0.60128  0.94027  0.89939  Biso   1.000  C
  C27      1.0000 0.60562  0.94870  0.87301  Biso   1.000  C
  C28      1.0000 0.60956  0.93349  0.86877  Biso   1.000  C
  C29      1.0000 0.15754  0.91181  0.40842  Biso   1.000  C
  C30      1.0000 0.64453  0.99563  0.93882  Biso   1.000  C
  C31      1.0000 0.66435  0.97953  0.91895  Biso   1.000  C
  C32      1.0000 0.65072  0.98576  0.91327  Biso   1.000  C
  C33      1.0000 0.37900  0.39054  0.93144  Biso   1.000  C
  C34      1.0000 0.83871  0.81731  0.76958  Biso   1.000  C
  C35      1.0000 0.74554  0.75717  0.81314  Biso   1.000  C
  C36      1.0000 0.57204  0.44503  0.45841  Biso   1.000  C
  C37      1.0000 0.58414  0.46311  0.47606  Biso   1.000  C
  C38      1.0000 0.60072  0.42563  0.39267  Biso   1.000  C
  C39      1.0000 0.61145  0.45090  0.37558  Biso   1.000  C
  C40      1.0000 0.61431  0.43575  0.37033  Biso   1.000  C
  C41      1.0000 0.17681  0.40625  0.89341  Biso   1.000  C
  C42      1.0000 0.63757  0.47839  0.43856  Biso   1.000  C
  C43      1.0000 0.66517  0.49296  0.42970  Biso   1.000  C
  C44      1.0000 0.65104  0.49938  0.42551  Biso   1.000  C
  C45      1.0000 0.87224  0.35959  0.43431  Biso   1.000  C
  C46      1.0000 0.41914  0.92647  0.25070  Biso   1.000  C
  C47      1.0000 0.51154  0.99910  0.28762  Biso   1.000  C
  C48      1.0000 0.51193  0.99874  0.31566  Biso   1.000  C
  C49      1.0000 0.67832  0.30116  0.96034  Biso   1.000  C
  C50      1.0000 0.65766  0.31019  0.89505  Biso   1.000  C
  C51      1.0000 0.64089  0.30015  0.87500  Biso   1.000  C
  C52      1.0000 0.63756  0.31530  0.87023  Biso   1.000  C
  C53      1.0000 0.06497  0.33513  0.40299  Biso   1.000  C
  C54      1.0000 0.07460  0.34468  0.39407  Biso   1.000  C
  C55      1.0000 0.59083  0.25957  0.94402  Biso   1.000  C
  C56      1.0000 0.60529  0.25415  0.93912  Biso   1.000  C
  C57      1.0000 0.59856  0.26060  0.91257  Biso   1.000  C
  C58      1.0000 0.87675  0.86503  0.94388  Biso   1.000  C
  C59      1.0000 0.42174  0.44551  0.75690  Biso   1.000  C
  C60      1.0000 0.41788  0.44216  0.77218  Biso   1.000  C
  C61      1.0000 0.51254  0.49996  0.78744  Biso   1.000  C
  C62      1.0000 0.51053  0.49784  0.81533  Biso   1.000  C
  C63      1.0000 0.67841  0.80158  0.46136  Biso   1.000  C
  C64      1.0000 0.64891  0.80921  0.40064  Biso   1.000  C
  C65      1.0000 0.64686  0.80095  0.37391  Biso   1.000  C
  C66      1.0000 0.64315  0.81614  0.36948  Biso   1.000  C
  C67      1.0000 0.07209  0.82782  0.90375  Biso   1.000  C
  C68      1.0000 0.08102  0.83793  0.89469  Biso   1.000  C
  C69      1.0000 0.59048  0.75925  0.44449  Biso   1.000  C
  C70      1.0000 0.60503  0.75387  0.43972  Biso   1.000  C
  C71      1.0000 0.59873  0.76069  0.41319  Biso   1.000  C
  C72      1.0000 0.37266  0.35912  0.93607  Biso   1.000  C
  C73      1.0000 0.91746  0.93676  0.75376  Biso   1.000  C
  C74      1.0000 0.01027  0.99911  0.81619  Biso   1.000  C
  C75      1.0000 0.17878  0.30351  0.45849  Biso   1.000  C
  C76      1.0000 0.16139  0.30734  0.38684  Biso   1.000  C
  C77      1.0000 0.13472  0.30007  0.38278  Biso   1.000  C
  C78      1.0000 0.13123  0.31536  0.37868  Biso   1.000  C
  C79      1.0000 0.56565  0.33417  0.90298  Biso   1.000  C
  C80      1.0000 0.57532  0.34364  0.89397  Biso   1.000  C
  C81      1.0000 0.09277  0.26317  0.44514  Biso   1.000  C
  C82      1.0000 0.10748  0.25782  0.44095  Biso   1.000  C
  C83      1.0000 0.10040  0.26018  0.41381  Biso   1.000  C
  C84      1.0000 0.37701  0.86476  0.44317  Biso   1.000  C
  C85      1.0000 0.93217  0.44663  0.25916  Biso   1.000  C
  C86      1.0000 0.01207  0.49947  0.28800  Biso   1.000  C
  C87      1.0000 0.01129  0.49754  0.31598  Biso   1.000  C
  C88      1.0000 0.16196  0.78811  0.97374  Biso   1.000  C
  C89      1.0000 0.14959  0.80975  0.89973  Biso   1.000  C
  C90      1.0000 0.14827  0.80105  0.87307  Biso   1.000  C
  C91      1.0000 0.14412  0.81601  0.86835  Biso   1.000  C
  C92      1.0000 0.56986  0.82890  0.40294  Biso   1.000  C
  C93      1.0000 0.57903  0.83851  0.39365  Biso   1.000  C
  C94      1.0000 0.09088  0.75852  0.94443  Biso   1.000  C
  C95      1.0000 0.10559  0.75355  0.93970  Biso   1.000  C
  C96      1.0000 0.09941  0.76083  0.91324  Biso   1.000  C
  C97      1.0000 0.91883  0.81104  0.99616  Biso   1.000  C
  C98      1.0000 0.01443  0.74583  0.93563  Biso   1.000  C
  C99      1.0000 0.17762  0.44736  0.29118  Biso   1.000  C
  C100     1.0000 0.16050  0.46303  0.27550  Biso   1.000  C
  C101     1.0000 0.15796  0.42597  0.36880  Biso   1.000  C
  C102     1.0000 0.13609  0.44982  0.36810  Biso   1.000  C
  C103     1.0000 0.13182  0.43504  0.37312  Biso   1.000  C
  C104     1.0000 0.56865  0.41980  0.84759  Biso   1.000  C
  C105     1.0000 0.10665  0.49566  0.31059  Biso   1.000  C
  C106     1.0000 0.08646  0.48033  0.33071  Biso   1.000  C
  C107     1.0000 0.10017  0.48645  0.33632  Biso   1.000  C
  C108     1.0000 0.93625  0.30504  0.49032  Biso   1.000  C
  C109     1.0000 0.01225  0.24890  0.46079  Biso   1.000  C
  C110     1.0000 0.01137  0.24992  0.43275  Biso   1.000  C
  C111     1.0000 0.17891  0.94447  0.79356  Biso   1.000  C
  C112     1.0000 0.16532  0.96144  0.77589  Biso   1.000  C
  C113     1.0000 0.15960  0.94267  0.86130  Biso   1.000  C
  C114     1.0000 0.13317  0.95014  0.86659  Biso   1.000  C
  C115     1.0000 0.12982  0.93496  0.87112  Biso   1.000  C
  C116     1.0000 0.56791  0.91984  0.34721  Biso   1.000  C
  C117     1.0000 0.08748  0.99351  0.80891  Biso   1.000  C
  C118     1.0000 0.10232  0.99907  0.81192  Biso   1.000  C
  C119     1.0000 0.09476  0.96853  0.81960  Biso   1.000  C
  C120     1.0000 0.41984  0.81554  0.49727  Biso   1.000  C
  C121     1.0000 0.51658  0.74524  0.46042  Biso   1.000  C
  C122     1.0000 0.67762  0.44736  0.79045  Biso   1.000  C
  C123     1.0000 0.66117  0.46338  0.77442  Biso   1.000  C
  C124     1.0000 0.65724  0.42651  0.86841  Biso   1.000  C
  C125     1.0000 0.63527  0.45029  0.86777  Biso   1.000  C
  C126     1.0000 0.63100  0.43545  0.87260  Biso   1.000  C
  C127     1.0000 0.06966  0.42033  0.34736  Biso   1.000  C
  C128     1.0000 0.60068  0.49979  0.81618  Biso   1.000  C
  C129     1.0000 0.59330  0.46872  0.82157  Biso   1.000  C
  C130     1.0000 0.60759  0.47442  0.82607  Biso   1.000  C
  C131     1.0000 0.43393  0.30409  0.98987  Biso   1.000  C
  C132     1.0000 0.51085  0.24976  0.96097  Biso   1.000  C
  C133     1.0000 0.51150  0.24959  0.93292  Biso   1.000  C
  C134     1.0000 0.67726  0.94571  0.29246  Biso   1.000  C
  C135     1.0000 0.66348  0.96265  0.27487  Biso   1.000  C
  C136     1.0000 0.65677  0.94030  0.35418  Biso   1.000  C
  C137     1.0000 0.65310  0.92525  0.35898  Biso   1.000  C
  C138     1.0000 0.63923  0.95065  0.37339  Biso   1.000  C
  C139     1.0000 0.06826  0.92038  0.84714  Biso   1.000  C
  C140     1.0000 0.58878  0.99267  0.30869  Biso   1.000  C
  C141     1.0000 0.60318  0.99849  0.31322  Biso   1.000  C
  C142     1.0000 0.59558  0.96764  0.31952  Biso   1.000  C
  C143     1.0000 0.37450  0.86566  0.30695  Biso   1.000  C
  C144     1.0000 0.82755  0.44218  0.49248  Biso   1.000  C
  C145     1.0000 0.73597  0.50239  0.46085  Biso   1.000  C
  C146     1.0000 0.73881  0.49794  0.43329  Biso   1.000  C
  C147     1.0000 0.58633  0.78784  0.77630  Biso   1.000  C
  C148     1.0000 0.59081  0.80682  0.86514  Biso   1.000  C
  C149     1.0000 0.61817  0.80086  0.86593  Biso   1.000  C
  C150     1.0000 0.62128  0.81607  0.87072  Biso   1.000  C
  C151     1.0000 0.18357  0.82892  0.34777  Biso   1.000  C
  C152     1.0000 0.17449  0.83850  0.35729  Biso   1.000  C
  C153     1.0000 0.64177  0.75944  0.80703  Biso   1.000  C
  C154     1.0000 0.66666  0.76291  0.82737  Biso   1.000  C
  C155     1.0000 0.65258  0.75742  0.83285  Biso   1.000  C
  C156     1.0000 0.37857  0.35988  0.82275  Biso   1.000  C
  C157     1.0000 0.82707  0.94251  0.99250  Biso   1.000  C
  C158     1.0000 0.73674  0.00176  0.96210  Biso   1.000  C
  C159     1.0000 0.73990  0.99801  0.93449  Biso   1.000  C
  C160     1.0000 0.58880  0.28727  0.27684  Biso   1.000  C
  C161     1.0000 0.60033  0.30942  0.35092  Biso   1.000  C
  C162     1.0000 0.60436  0.30138  0.37750  Biso   1.000  C
  C163     1.0000 0.60814  0.31666  0.38156  Biso   1.000  C
  C164     1.0000 0.17791  0.32883  0.84574  Biso   1.000  C
  C165     1.0000 0.16903  0.33879  0.85500  Biso   1.000  C
  C166     1.0000 0.64483  0.25512  0.31205  Biso   1.000  C
  C167     1.0000 0.66527  0.26913  0.33294  Biso   1.000  C
  C168     1.0000 0.65104  0.26374  0.33806  Biso   1.000  C
  C169     1.0000 0.87366  0.86579  0.80896  Biso   1.000  C
  C170     1.0000 0.33282  0.43843  0.99655  Biso   1.000  C
  C171     1.0000 0.24507  0.49411  0.96060  Biso   1.000  C
  C172     1.0000 0.23425  0.50443  0.93685  Biso   1.000  C
  C173     1.0000 0.08434  0.78869  0.27563  Biso   1.000  C
  C174     1.0000 0.08989  0.80741  0.36428  Biso   1.000  C
  C175     1.0000 0.11714  0.80104  0.36543  Biso   1.000  C
  C176     1.0000 0.12046  0.81624  0.37008  Biso   1.000  C
  C177     1.0000 0.68299  0.82883  0.84719  Biso   1.000  C
  C178     1.0000 0.67405  0.83839  0.85681  Biso   1.000  C
  C179     1.0000 0.14270  0.75819  0.30791  Biso   1.000  C
  C180     1.0000 0.16448  0.76722  0.33010  Biso   1.000  C
  C181     1.0000 0.14997  0.76210  0.33473  Biso   1.000  C
  C182     1.0000 0.88025  0.35925  0.31741  Biso   1.000  C
  C183     1.0000 0.32748  0.94143  0.49258  Biso   1.000  C
  C184     1.0000 0.23806  0.00020  0.46253  Biso   1.000  C
  C185     1.0000 0.23983  0.99751  0.43466  Biso   1.000  C
  C186     1.0000 0.08952  0.28782  0.77668  Biso   1.000  C
  C187     1.0000 0.09879  0.31064  0.85111  Biso   1.000  C
  C188     1.0000 0.10393  0.30186  0.87726  Biso   1.000  C
  C189     1.0000 0.10778  0.31704  0.88161  Biso   1.000  C
  C190     1.0000 0.68069  0.32833  0.34757  Biso   1.000  C
  C191     1.0000 0.15927  0.25893  0.80701  Biso   1.000  C
  C192     1.0000 0.14486  0.25349  0.81208  Biso   1.000  C
  C193     1.0000 0.15060  0.26282  0.83799  Biso   1.000  C
  C194     1.0000 0.93784  0.87816  0.88956  Biso   1.000  C
  C195     1.0000 0.75271  0.33385  0.31822  Biso   1.000  C
  C196     1.0000 0.76828  0.33757  0.32060  Biso   1.000  C
  C197     1.0000 0.79332  0.23244  0.24717  Biso   1.000  C
  C198     1.0000 0.81592  0.24466  0.25845  Biso   1.000  C
  C199     1.0000 0.45617  0.07277  0.94631  Biso   1.000  C
  C200     1.0000 0.47525  0.08443  0.96322  Biso   1.000  C
  C201     1.0000 0.39361  0.09077  0.94086  Biso   1.000  C
  C202     1.0000 0.38893  0.09401  0.92563  Biso   1.000  C
  C203     1.0000 0.37185  0.11402  0.93510  Biso   1.000  C
  C204     1.0000 0.90430  0.67486  0.92498  Biso   1.000  C
  C205     1.0000 0.89534  0.66520  0.91556  Biso   1.000  C
  C206     1.0000 0.44404  0.15920  0.98836  Biso   1.000  C
  C207     1.0000 0.43903  0.14482  0.99365  Biso   1.000  C
  C208     1.0000 0.41299  0.15095  0.98500  Biso   1.000  C
  C209     1.0000 0.94038  0.37799  0.38889  Biso   1.000  C
  C210     1.0000 0.75254  0.83082  0.82119  Biso   1.000  C
  C211     1.0000 0.76802  0.83455  0.82378  Biso   1.000  C
  C212     1.0000 0.78862  0.73844  0.74990  Biso   1.000  C
  C213     1.0000 0.81648  0.73963  0.75243  Biso   1.000  C
  C214     1.0000 0.46109  0.57120  0.44908  Biso   1.000  C
  C215     1.0000 0.47259  0.59360  0.46129  Biso   1.000  C
  C216     1.0000 0.39225  0.59004  0.44057  Biso   1.000  C
  C217     1.0000 0.38738  0.59355  0.42544  Biso   1.000  C
  C218     1.0000 0.37806  0.61214  0.45024  Biso   1.000  C
  C219     1.0000 0.90513  0.15700  0.41602  Biso   1.000  C
  C220     1.0000 0.44249  0.66049  0.49262  Biso   1.000  C
  C221     1.0000 0.43727  0.64617  0.49799  Biso   1.000  C
  C222     1.0000 0.41292  0.65028  0.48466  Biso   1.000  C
  C223     1.0000 0.44429  0.87347  0.38401  Biso   1.000  C
  C224     1.0000 0.25441  0.32836  0.80923  Biso   1.000  C
  C225     1.0000 0.26972  0.33202  0.81279  Biso   1.000  C
  C226     1.0000 0.28910  0.23591  0.75064  Biso   1.000  C
  C227     1.0000 0.97296  0.09210  0.46081  Biso   1.000  C
  C228     1.0000 0.89777  0.09575  0.44075  Biso   1.000  C
  C229     1.0000 0.89295  0.09898  0.42561  Biso   1.000  C
  C230     1.0000 0.87283  0.10408  0.45041  Biso   1.000  C
  C231     1.0000 0.40286  0.67863  0.42501  Biso   1.000  C
  C232     1.0000 0.39401  0.66865  0.41573  Biso   1.000  C
  C233     1.0000 0.94439  0.15917  0.48908  Biso   1.000  C
  C234     1.0000 0.93917  0.14491  0.49453  Biso   1.000  C
  C235     1.0000 0.91341  0.15093  0.48506  Biso   1.000  C
  C236     1.0000 0.43708  0.37941  0.89012  Biso   1.000  C
  C237     1.0000 0.25320  0.83139  0.31972  Biso   1.000  C
  C238     1.0000 0.26868  0.83520  0.32232  Biso   1.000  C
  C239     1.0000 0.28969  0.74090  0.25179  Biso   1.000  C
  C240     1.0000 0.31760  0.73894  0.25015  Biso   1.000  C
  C241     1.0000 0.95989  0.57020  0.94874  Biso   1.000  C
  C242     1.0000 0.97202  0.59170  0.96193  Biso   1.000  C
  C243     1.0000 0.89036  0.58942  0.94135  Biso   1.000  C
  C244     1.0000 0.88564  0.59305  0.92623  Biso   1.000  C
  C245     1.0000 0.87763  0.61246  0.95084  Biso   1.000  C
  C246     1.0000 0.40425  0.15700  0.91504  Biso   1.000  C
  C247     1.0000 0.94464  0.65682  0.98572  Biso   1.000  C
  C248     1.0000 0.93942  0.64277  0.99170  Biso   1.000  C
  C249     1.0000 0.91296  0.65185  0.98969  Biso   1.000  C
  C250     1.0000 0.42032  0.87455  0.36224  Biso   1.000  C
  C251     1.0000 0.25148  0.41827  0.92622  Biso   1.000  C
  C252     1.0000 0.26686  0.41380  0.92423  Biso   1.000  C
  C253     1.0000 0.29033  0.51391  0.00068  Biso   1.000  C
  C254     1.0000 0.97254  0.66028  0.28852  Biso   1.000  C
  C255     1.0000 0.89472  0.64791  0.32474  Biso   1.000  C
  C256     1.0000 0.87432  0.64186  0.30034  Biso   1.000  C
  C257     1.0000 0.86973  0.63899  0.31566  Biso   1.000  C
  C258     1.0000 0.40405  0.07232  0.32763  Biso   1.000  C
  C259     1.0000 0.39467  0.08102  0.33762  Biso   1.000  C
  C260     1.0000 0.94524  0.59751  0.27542  Biso   1.000  C
  C261     1.0000 0.94030  0.61145  0.26903  Biso   1.000  C
  C262     1.0000 0.92823  0.58344  0.25800  Biso   1.000  C
  C263     1.0000 0.43152  0.37315  0.85880  Biso   1.000  C
  C264     1.0000 0.25624  0.92021  0.44017  Biso   1.000  C
  C265     1.0000 0.27151  0.91684  0.43618  Biso   1.000  C
  C266     1.0000 0.29060  0.01253  0.50033  Biso   1.000  C
  C267     1.0000 0.96088  0.18272  0.80062  Biso   1.000  C
  C268     1.0000 0.97086  0.15943  0.78856  Biso   1.000  C
  C269     1.0000 0.88000  0.15672  0.82376  Biso   1.000  C
  C270     1.0000 0.88188  0.13473  0.80005  Biso   1.000  C
  C271     1.0000 0.87653  0.13046  0.81473  Biso   1.000  C
  C272     1.0000 0.40346  0.57181  0.82629  Biso   1.000  C
  C273     1.0000 0.39438  0.58058  0.83654  Biso   1.000  C
  C274     1.0000 0.94482  0.09834  0.77336  Biso   1.000  C
  C275     1.0000 0.93967  0.11239  0.76740  Biso   1.000  C
  C276     1.0000 0.92587  0.08468  0.75775  Biso   1.000  C
  C277     1.0000 0.92726  0.87142  0.85972  Biso   1.000  C
  C278     1.0000 0.75466  0.42173  0.44030  Biso   1.000  C
  C279     1.0000 0.76993  0.41810  0.43658  Biso   1.000  C
  C280     1.0000 0.78914  0.51270  0.49871  Biso   1.000  C
  C281     1.0000 0.47259  0.66114  0.78824  Biso   1.000  C
  C282     1.0000 0.38205  0.65678  0.82417  Biso   1.000  C
  C283     1.0000 0.38483  0.63432  0.80099  Biso   1.000  C
  C284     1.0000 0.37987  0.63017  0.81582  Biso   1.000  C
  C285     1.0000 0.90330  0.07380  0.82554  Biso   1.000  C
  C286     1.0000 0.89383  0.08234  0.83560  Biso   1.000  C
  C287     1.0000 0.44461  0.59856  0.77559  Biso   1.000  C
  C288     1.0000 0.42651  0.58517  0.75879  Biso   1.000  C
  C289     1.0000 0.42117  0.59936  0.75332  Biso   1.000  C
  C290     1.0000 0.92647  0.37396  0.35990  Biso   1.000  C
  C291     1.0000 0.75616  0.92129  0.93888  Biso   1.000  C
  C292     1.0000 0.77144  0.91788  0.93496  Biso   1.000  C
  C293     1.0000 0.46122  0.18146  0.30025  Biso   1.000  C
  C294     1.0000 0.47141  0.15824  0.28829  Biso   1.000  C
  C295     1.0000 0.38109  0.15642  0.32408  Biso   1.000  C
  C296     1.0000 0.38172  0.13434  0.30038  Biso   1.000  C
  C297     1.0000 0.37656  0.13027  0.31518  Biso   1.000  C
  C298     1.0000 0.91520  0.58329  0.32708  Biso   1.000  C
  C299     1.0000 0.44440  0.09686  0.27345  Biso   1.000  C
  C300     1.0000 0.43928  0.11086  0.26734  Biso   1.000  C
  C301     1.0000 0.42484  0.08316  0.25871  Biso   1.000  C
  C302     1.0000 0.81823  0.37068  0.39003  Biso   1.000  C
  C303     1.0000 0.99773  0.91807  0.82152  Biso   1.000  C
  C304     1.0000 0.98228  0.91445  0.82441  Biso   1.000  C
  C305     1.0000 0.95860  0.01527  0.74724  Biso   1.000  C
  C306     1.0000 0.27695  0.15736  0.46112  Biso   1.000  C
  C307     1.0000 0.35889  0.15917  0.44028  Biso   1.000  C
  C308     1.0000 0.36469  0.15539  0.42550  Biso   1.000  C
  C309     1.0000 0.36997  0.13562  0.45064  Biso   1.000  C
  C310     1.0000 0.83547  0.58241  0.42326  Biso   1.000  C
  C311     1.0000 0.30355  0.09516  0.48297  Biso   1.000  C
  C312     1.0000 0.30888  0.10887  0.48962  Biso   1.000  C
  C313     1.0000 0.32792  0.08262  0.48918  Biso   1.000  C
  C314     1.0000 0.99655  0.41932  0.31470  Biso   1.000  C
  C315     1.0000 0.98083  0.41658  0.31703  Biso   1.000  C
  C316     1.0000 0.95931  0.51453  0.24884  Biso   1.000  C
  C317     1.0000 0.28482  0.68049  0.95324  Biso   1.000  C
  C318     1.0000 0.28195  0.65288  0.95682  Biso   1.000  C
  C319     1.0000 0.36860  0.65596  0.92597  Biso   1.000  C
  C320     1.0000 0.36874  0.63456  0.95031  Biso   1.000  C
  C321     1.0000 0.37384  0.63017  0.93555  Biso   1.000  C
  C322     1.0000 0.84587  0.07443  0.92438  Biso   1.000  C
  C323     1.0000 0.85512  0.08329  0.91437  Biso   1.000  C
  C324     1.0000 0.30481  0.59536  0.98402  Biso   1.000  C
  C325     1.0000 0.31046  0.60895  0.99065  Biso   1.000  C
  C326     1.0000 0.32995  0.58327  0.98734  Biso   1.000  C
  C327     1.0000 0.49793  0.91837  0.32221  Biso   1.000  C
  C328     1.0000 0.48246  0.91514  0.32558  Biso   1.000  C
  C329     1.0000 0.45425  0.01654  0.24512  Biso   1.000  C
  C330     1.0000 0.43599  0.00182  0.26048  Biso   1.000  C
  C331     1.0000 0.77718  0.15687  0.96077  Biso   1.000  C
  C332     1.0000 0.85896  0.15851  0.93930  Biso   1.000  C
  C333     1.0000 0.86477  0.15485  0.92453  Biso   1.000  C
  C334     1.0000 0.87117  0.13557  0.94977  Biso   1.000  C
  C335     1.0000 0.35773  0.57849  0.91223  Biso   1.000  C
  C336     1.0000 0.80378  0.09594  0.98304  Biso   1.000  C
  C337     1.0000 0.80918  0.10964  0.98966  Biso   1.000  C
  C338     1.0000 0.82747  0.08288  0.99061  Biso   1.000  C
  C339     1.0000 0.47837  0.41689  0.81261  Biso   1.000  C
  C340     1.0000 0.46138  0.51449  0.74798  Biso   1.000  C
  C341     1.0000 0.78784  0.68219  0.45080  Biso   1.000  C
  C342     1.0000 0.77708  0.65854  0.46127  Biso   1.000  C
  C343     1.0000 0.85665  0.65039  0.42514  Biso   1.000  C
  C344     1.0000 0.87422  0.64162  0.45079  Biso   1.000  C
  C345     1.0000 0.87930  0.63787  0.43578  Biso   1.000  C
  C346     1.0000 0.34581  0.07407  0.42431  Biso   1.000  C
  C347     1.0000 0.35525  0.08300  0.41458  Biso   1.000  C
  C348     1.0000 0.80253  0.59465  0.48250  Biso   1.000  C
  C349     1.0000 0.82799  0.58356  0.48630  Biso   1.000  C
  C350     1.0000 0.83306  0.59754  0.49264  Biso   1.000  C
  C351     1.0000 0.32689  0.37783  0.86153  Biso   1.000  C
  C352     1.0000 0.49590  0.82824  0.44043  Biso   1.000  C
  C353     1.0000 0.48041  0.83166  0.43776  Biso   1.000  C
  C354     1.0000 0.45069  0.73231  0.50885  Biso   1.000  C
  C355     1.0000 0.44101  0.75092  0.49025  Biso   1.000  C
  C356     1.0000 0.77768  0.59167  0.78942  Biso   1.000  C
  C357     1.0000 0.85216  0.59649  0.81017  Biso   1.000  C
  C358     1.0000 0.85686  0.59994  0.82531  Biso   1.000  C
  C359     1.0000 0.87784  0.60270  0.80085  Biso   1.000  C
  C360     1.0000 0.34240  0.17341  0.82611  Biso   1.000  C
  C361     1.0000 0.35203  0.16398  0.83504  Biso   1.000  C
  C362     1.0000 0.80627  0.65840  0.76206  Biso   1.000  C
  C363     1.0000 0.81124  0.64402  0.75659  Biso   1.000  C
  C364     1.0000 0.83776  0.65093  0.76288  Biso   1.000  C
  C365     1.0000 0.31526  0.87844  0.35932  Biso   1.000  C
  C366     1.0000 0.49646  0.33007  0.93767  Biso   1.000  C
  C367     1.0000 0.48104  0.33373  0.93455  Biso   1.000  C
  C368     1.0000 0.45644  0.23306  0.00345  Biso   1.000  C
  C369     1.0000 0.43550  0.24755  0.99164  Biso   1.000  C
  C370     1.0000 0.78978  0.07101  0.30168  Biso   1.000  C
  C371     1.0000 0.77808  0.09330  0.28945  Biso   1.000  C
  C372     1.0000 0.85929  0.09005  0.30992  Biso   1.000  C
  C373     1.0000 0.86432  0.09367  0.32494  Biso   1.000  C
  C374     1.0000 0.87121  0.11351  0.30038  Biso   1.000  C
  C375     1.0000 0.34999  0.68332  0.33042  Biso   1.000  C
  C376     1.0000 0.80993  0.14012  0.26206  Biso   1.000  C
  C377     1.0000 0.82874  0.16607  0.26626  Biso   1.000  C
  C378     1.0000 0.83500  0.15251  0.26025  Biso   1.000  C
  C379     1.0000 0.81224  0.37853  0.35919  Biso   1.000  C
  C380     1.0000 0.99676  0.82916  0.93975  Biso   1.000  C
  C381     1.0000 0.98123  0.83296  0.93734  Biso   1.000  C
  C382     1.0000 0.95543  0.73268  0.00553  Biso   1.000  C
  C383     1.0000 0.93503  0.74733  0.99302  Biso   1.000  C
  C384     1.0000 0.27611  0.58479  0.28730  Biso   1.000  C
  C385     1.0000 0.36667  0.58893  0.30762  Biso   1.000  C
  C386     1.0000 0.37092  0.59268  0.32291  Biso   1.000  C
  C387     1.0000 0.36574  0.61619  0.30128  Biso   1.000  C
  C388     1.0000 0.84483  0.17494  0.32718  Biso   1.000  C
  C389     1.0000 0.85475  0.16604  0.33633  Biso   1.000  C
  C390     1.0000 0.30593  0.65685  0.26654  Biso   1.000  C
  C391     1.0000 0.31044  0.64230  0.26120  Biso   1.000  C
  C392     1.0000 0.33695  0.65142  0.25917  Biso   1.000  C
  C393     1.0000 0.81513  0.87805  0.85997  Biso   1.000  C
  C394     1.0000 0.99677  0.33083  0.43705  Biso   1.000  C
  C395     1.0000 0.98139  0.33469  0.43395  Biso   1.000  C
  C396     1.0000 0.95798  0.23292  0.50447  Biso   1.000  C
  C397     1.0000 0.93757  0.24786  0.49230  Biso   1.000  C
  C398     1.0000 0.28916  0.07042  0.80175  Biso   1.000  C
  C399     1.0000 0.35798  0.08974  0.80980  Biso   1.000  C
  C400     1.0000 0.36303  0.09340  0.82481  Biso   1.000  C
  C401     1.0000 0.37129  0.11226  0.79989  Biso   1.000  C
  C402     1.0000 0.84772  0.67886  0.82710  Biso   1.000  C
  C403     1.0000 0.30957  0.14463  0.75506  Biso   1.000  C
  C404     1.0000 0.32777  0.16281  0.77479  Biso   1.000  C
  C405     1.0000 0.33343  0.14882  0.76929  Biso   1.000  C
  C406     1.0000 0.89189  0.93263  0.88052  Biso   1.000  C
  C407     1.0000 0.32023  0.75256  0.33301  Biso   1.000  C
  C408     1.0000 0.24727  0.79122  0.23507  Biso   1.000  C
  C409     1.0000 0.94732  0.45658  0.07207  Biso   1.000  C
  C410     1.0000 0.92482  0.39369  0.10174  Biso   1.000  C
  C411     1.0000 0.94953  0.37396  0.10835  Biso   1.000  C
  C412     1.0000 0.93432  0.36924  0.11153  Biso   1.000  C
  C413     1.0000 0.92556  0.91164  0.66793  Biso   1.000  C
  C414     1.0000 0.91634  0.90220  0.65856  Biso   1.000  C
  C415     1.0000 0.99666  0.43991  0.14533  Biso   1.000  C
  C416     1.0000 0.98091  0.42055  0.16599  Biso   1.000  C
  C417     1.0000 0.98605  0.41478  0.15188  Biso   1.000  C
  C418     1.0000 0.88512  0.44313  0.37465  Biso   1.000  C
  C419     1.0000 0.30378  0.25981  0.81785  Biso   1.000  C
  C420     1.0000 0.25684  0.31273  0.74589  Biso   1.000  C
  C421     1.0000 0.94468  0.95692  0.57326  Biso   1.000  C
  C422     1.0000 0.92615  0.89297  0.60034  Biso   1.000  C
  C423     1.0000 0.95142  0.87503  0.60960  Biso   1.000  C
  C424     1.0000 0.93625  0.86975  0.61232  Biso   1.000  C
  C425     1.0000 0.92521  0.40714  0.17266  Biso   1.000  C
  C426     1.0000 0.91574  0.39763  0.16357  Biso   1.000  C
  C427     1.0000 0.98481  0.94363  0.63832  Biso   1.000  C
  C428     1.0000 0.98954  0.92644  0.66542  Biso   1.000  C
  C429     1.0000 0.99566  0.92132  0.65137  Biso   1.000  C
  C430     1.0000 0.38986  0.92867  0.37951  Biso   1.000  C
  C431     1.0000 0.81945  0.75260  0.83288  Biso   1.000  C
  C432     1.0000 0.74481  0.80056  0.73124  Biso   1.000  C
  C433     1.0000 0.44515  0.45523  0.57576  Biso   1.000  C
  C434     1.0000 0.42447  0.39381  0.60462  Biso   1.000  C
  C435     1.0000 0.44881  0.37298  0.60887  Biso   1.000  C
  C436     1.0000 0.43354  0.36839  0.61213  Biso   1.000  C
  C437     1.0000 0.42585  0.90581  0.17358  Biso   1.000  C
  C438     1.0000 0.41672  0.89622  0.16418  Biso   1.000  C
  C439     1.0000 0.48925  0.44462  0.65882  Biso   1.000  C
  C440     1.0000 0.49511  0.43933  0.64470  Biso   1.000  C
  C441     1.0000 0.49083  0.41292  0.65311  Biso   1.000  C
  C442     1.0000 0.39039  0.43329  0.88016  Biso   1.000  C
  C443     1.0000 0.81193  0.25395  0.33430  Biso   1.000  C
  C444     1.0000 0.75715  0.31424  0.24584  Biso   1.000  C
  C445     1.0000 0.44489  0.95643  0.07379  Biso   1.000  C
  C446     1.0000 0.42669  0.89304  0.10125  Biso   1.000  C
  C447     1.0000 0.45162  0.87382  0.10862  Biso   1.000  C
  C448     1.0000 0.43635  0.86877  0.11130  Biso   1.000  C
  C449     1.0000 0.42447  0.40670  0.67358  Biso   1.000  C
  C450     1.0000 0.41488  0.39727  0.66457  Biso   1.000  C
  C451     1.0000 0.48857  0.94325  0.13960  Biso   1.000  C
  C452     1.0000 0.48921  0.92356  0.16532  Biso   1.000  C
  C453     1.0000 0.49504  0.91853  0.15115  Biso   1.000  C
  C454     1.0000 0.35869  0.43390  0.87342  Biso   1.000  C
  C455     1.0000 0.94575  0.25906  0.42775  Biso   1.000  C
  C456     1.0000 0.94206  0.27433  0.42428  Biso   1.000  C
  C457     1.0000 0.00936  0.30039  0.51850  Biso   1.000  C
  C458     1.0000 0.99063  0.30937  0.49962  Biso   1.000  C
  C459     1.0000 0.30080  0.96038  0.68094  Biso   1.000  C
  C460     1.0000 0.28851  0.97106  0.65810  Biso   1.000  C
  C461     1.0000 0.30591  0.87754  0.66017  Biso   1.000  C
  C462     1.0000 0.32109  0.87306  0.65622  Biso   1.000  C
  C463     1.0000 0.30421  0.89251  0.63655  Biso   1.000  C
  C464     1.0000 0.32517  0.41059  0.08139  Biso   1.000  C
  C465     1.0000 0.33460  0.40073  0.09006  Biso   1.000  C
  C466     1.0000 0.25640  0.94089  0.60712  Biso   1.000  C
  C467     1.0000 0.27239  0.92110  0.58710  Biso   1.000  C
  C468     1.0000 0.26690  0.91556  0.60122  Biso   1.000  C
  C469     1.0000 0.94461  0.75938  0.93168  Biso   1.000  C
  C470     1.0000 0.94117  0.77468  0.92844  Biso   1.000  C
  C471     1.0000 0.99333  0.81575  0.00378  Biso   1.000  C
  C472     1.0000 0.30372  0.45759  0.17964  Biso   1.000  C
  C473     1.0000 0.30870  0.38782  0.15903  Biso   1.000  C
  C474     1.0000 0.32376  0.38281  0.15560  Biso   1.000  C
  C475     1.0000 0.30025  0.37967  0.13361  Biso   1.000  C
  C476     1.0000 0.33554  0.90282  0.56451  Biso   1.000  C
  C477     1.0000 0.34535  0.89380  0.57384  Biso   1.000  C
  C478     1.0000 0.27735  0.44252  0.09741  Biso   1.000  C
  C479     1.0000 0.25748  0.42785  0.08396  Biso   1.000  C
  C480     1.0000 0.25192  0.42258  0.09818  Biso   1.000  C
  C481     1.0000 0.86129  0.42128  0.37390  Biso   1.000  C
  C482     1.0000 0.44550  0.25773  0.92341  Biso   1.000  C
  C483     1.0000 0.44185  0.27298  0.91985  Biso   1.000  C
  C484     1.0000 0.50793  0.30030  0.01813  Biso   1.000  C
  C485     1.0000 0.48944  0.30921  0.99899  Biso   1.000  C
  C486     1.0000 0.80344  0.95793  0.17888  Biso   1.000  C
  C487     1.0000 0.80935  0.88853  0.16012  Biso   1.000  C
  C488     1.0000 0.82421  0.88322  0.15652  Biso   1.000  C
  C489     1.0000 0.79916  0.87433  0.13827  Biso   1.000  C
  C490     1.0000 0.82608  0.41164  0.58025  Biso   1.000  C
  C491     1.0000 0.83540  0.40179  0.58897  Biso   1.000  C
  C492     1.0000 0.75503  0.93905  0.10595  Biso   1.000  C
  C493     1.0000 0.77194  0.91999  0.08594  Biso   1.000  C
  C494     1.0000 0.76690  0.91428  0.10014  Biso   1.000  C
  C495     1.0000 0.86112  0.93695  0.87148  Biso   1.000  C
  C496     1.0000 0.44626  0.75899  0.42926  Biso   1.000  C
  C497     1.0000 0.44265  0.77423  0.42581  Biso   1.000  C
  C498     1.0000 0.50520  0.79227  0.51481  Biso   1.000  C
  C499     1.0000 0.49620  0.81765  0.50698  Biso   1.000  C
  C500     1.0000 0.80575  0.45481  0.66636  Biso   1.000  C
  C501     1.0000 0.80789  0.38648  0.65792  Biso   1.000  C
  C502     1.0000 0.82297  0.38171  0.65433  Biso   1.000  C
  C503     1.0000 0.79974  0.38011  0.63190  Biso   1.000  C
  C504     1.0000 0.83443  0.89602  0.08634  Biso   1.000  C
  C505     1.0000 0.77781  0.44212  0.59737  Biso   1.000  C
  C506     1.0000 0.75871  0.42706  0.58330  Biso   1.000  C
  C507     1.0000 0.75273  0.42170  0.59728  Biso   1.000  C
  C508     1.0000 0.38488  0.80649  0.37824  Biso   1.000  C
  C509     1.0000 0.80589  0.99033  0.93469  Biso   1.000  C
  C510     1.0000 0.74660  0.95633  0.01657  Biso   1.000  C
  C511     1.0000 0.75843  0.93435  0.00381  Biso   1.000  C
  C512     1.0000 0.44555  0.29249  0.17460  Biso   1.000  C
  C513     1.0000 0.46251  0.27440  0.16171  Biso   1.000  C
  C514     1.0000 0.44048  0.35857  0.15956  Biso   1.000  C
  C515     1.0000 0.42547  0.36378  0.15620  Biso   1.000  C
  C516     1.0000 0.45006  0.37148  0.13665  Biso   1.000  C
  C517     1.0000 0.41587  0.84782  0.56453  Biso   1.000  C
  C518     1.0000 0.48901  0.30379  0.09148  Biso   1.000  C
  C519     1.0000 0.49473  0.30931  0.10557  Biso   1.000  C
  C520     1.0000 0.48719  0.33001  0.08175  Biso   1.000  C
  C521     1.0000 0.80608  0.48943  0.43481  Biso   1.000  C
  C522     1.0000 0.74622  0.45733  0.51669  Biso   1.000  C
  C523     1.0000 0.75741  0.43472  0.50450  Biso   1.000  C
  C524     1.0000 0.44728  0.78953  0.67956  Biso   1.000  C
  C525     1.0000 0.46153  0.77744  0.65868  Biso   1.000  C
  C526     1.0000 0.44084  0.86177  0.66202  Biso   1.000  C
  C527     1.0000 0.42580  0.86680  0.65821  Biso   1.000  C
  C528     1.0000 0.45061  0.87336  0.63844  Biso   1.000  C
  C529     1.0000 0.42605  0.34414  0.07573  Biso   1.000  C
  C530     1.0000 0.41651  0.35337  0.08503  Biso   1.000  C
  C531     1.0000 0.48763  0.80590  0.59304  Biso   1.000  C
  C532     1.0000 0.49211  0.81036  0.60795  Biso   1.000  C
  C533     1.0000 0.49080  0.83732  0.60009  Biso   1.000  C
  C534     1.0000 0.88503  0.80715  0.87821  Biso   1.000  C
  C535     1.0000 0.30561  0.98994  0.43481  Biso   1.000  C
  C536     1.0000 0.26213  0.94178  0.50099  Biso   1.000  C
  C537     1.0000 0.94376  0.29410  0.67377  Biso   1.000  C
  C538     1.0000 0.96186  0.27536  0.66364  Biso   1.000  C
  C539     1.0000 0.93932  0.36033  0.66066  Biso   1.000  C
  C540     1.0000 0.92435  0.36533  0.65683  Biso   1.000  C
  C541     1.0000 0.94930  0.37282  0.63768  Biso   1.000  C
  C542     1.0000 0.92585  0.83700  0.08466  Biso   1.000  C
  C543     1.0000 0.98900  0.30501  0.59296  Biso   1.000  C
  C544     1.0000 0.99402  0.31079  0.60719  Biso   1.000  C
  C545     1.0000 0.98710  0.33113  0.58289  Biso   1.000  C
  C546     1.0000 0.88895  0.31341  0.37351  Biso   1.000  C
  C547     1.0000 0.31268  0.47898  0.91688  Biso   1.000  C
  C548     1.0000 0.26154  0.43964  0.00086  Biso   1.000  C
  C549     1.0000 0.94700  0.79155  0.17719  Biso   1.000  C
  C550     1.0000 0.96245  0.77513  0.16064  Biso   1.000  C
  C551     1.0000 0.93997  0.85444  0.15766  Biso   1.000  C
  C552     1.0000 0.92490  0.85967  0.15480  Biso   1.000  C
  C553     1.0000 0.94995  0.87377  0.14005  Biso   1.000  C
  C554     1.0000 0.92705  0.34439  0.57625  Biso   1.000  C
  C555     1.0000 0.91734  0.35368  0.58530  Biso   1.000  C
  C556     1.0000 0.98926  0.80324  0.09288  Biso   1.000  C
  C557     1.0000 0.99485  0.80883  0.10700  Biso   1.000  C
  C558     1.0000 0.98852  0.82936  0.08270  Biso   1.000  C
  C559     1.0000 0.85818  0.32136  0.37952  Biso   1.000  C
  C560     1.0000 0.44329  0.49171  0.81796  Biso   1.000  C
  C561     1.0000 0.43950  0.47665  0.82173  Biso   1.000  C
  C562     1.0000 0.50683  0.45006  0.73154  Biso   1.000  C
  C563     1.0000 0.48927  0.43753  0.74949  Biso   1.000  C
  C564     1.0000 0.80291  0.79352  0.57455  Biso   1.000  C
  C565     1.0000 0.78700  0.77597  0.58946  Biso   1.000  C
  C566     1.0000 0.82547  0.85568  0.60164  Biso   1.000  C
  C567     1.0000 0.80086  0.87544  0.60854  Biso   1.000  C
  C568     1.0000 0.81615  0.88019  0.61148  Biso   1.000  C
  C569     1.0000 0.82670  0.34623  0.18001  Biso   1.000  C
  C570     1.0000 0.76898  0.80453  0.65475  Biso   1.000  C
  C571     1.0000 0.76203  0.81007  0.64120  Biso   1.000  C
  C572     1.0000 0.76219  0.82835  0.66800  Biso   1.000  C
  C573     1.0000 0.44234  0.99379  0.32881  Biso   1.000  C
  C574     1.0000 0.43822  0.97858  0.33193  Biso   1.000  C
  C575     1.0000 0.49349  0.93595  0.24373  Biso   1.000  C
  C576     1.0000 0.80183  0.29075  0.07085  Biso   1.000  C
  C577     1.0000 0.78647  0.27526  0.08839  Biso   1.000  C
  C578     1.0000 0.80935  0.35540  0.09305  Biso   1.000  C
  C579     1.0000 0.82436  0.36044  0.09660  Biso   1.000  C
  C580     1.0000 0.79904  0.37346  0.11180  Biso   1.000  C
  C581     1.0000 0.82810  0.83520  0.66657  Biso   1.000  C
  C582     1.0000 0.76806  0.30090  0.15538  Biso   1.000  C
  C583     1.0000 0.76263  0.32573  0.16730  Biso   1.000  C
  C584     1.0000 0.75659  0.33102  0.15328  Biso   1.000  C
  C585     1.0000 0.35779  0.31949  0.88010  Biso   1.000  C
  C586     1.0000 0.93437  0.49740  0.33449  Biso   1.000  C
  C587     1.0000 0.98812  0.44123  0.25091  Biso   1.000  C
  C588     1.0000 0.29934  0.78762  0.07082  Biso   1.000  C
  C589     1.0000 0.29012  0.77775  0.09531  Biso   1.000  C
  C590     1.0000 0.30957  0.86357  0.08709  Biso   1.000  C
  C591     1.0000 0.30230  0.86833  0.11377  Biso   1.000  C
  C592     1.0000 0.31737  0.87342  0.11698  Biso   1.000  C
  C593     1.0000 0.32334  0.34315  0.67478  Biso   1.000  C
  C594     1.0000 0.33236  0.35332  0.66593  Biso   1.000  C
  C595     1.0000 0.26384  0.80709  0.15780  Biso   1.000  C
  C596     1.0000 0.25727  0.81242  0.14397  Biso   1.000  C
  C597     1.0000 0.26636  0.83358  0.16683  Biso   1.000  C
  C598     1.0000 0.93967  0.99621  0.83034  Biso   1.000  C
  C599     1.0000 0.00484  0.95756  0.73305  Biso   1.000  C
  C600     1.0000 0.99283  0.93548  0.74537  Biso   1.000  C
  C601     1.0000 0.30066  0.29113  0.57120  Biso   1.000  C
  C602     1.0000 0.28739  0.27685  0.59126  Biso   1.000  C
  C603     1.0000 0.30768  0.36486  0.58904  Biso   1.000  C
  C604     1.0000 0.30042  0.36851  0.61590  Biso   1.000  C
  C605     1.0000 0.31533  0.37391  0.61922  Biso   1.000  C
  C606     1.0000 0.32745  0.84466  0.17641  Biso   1.000  C
  C607     1.0000 0.26516  0.30255  0.65514  Biso   1.000  C
  C608     1.0000 0.25877  0.30886  0.64168  Biso   1.000  C
  C609     1.0000 0.26254  0.32741  0.66797  Biso   1.000  C
  C610     1.0000 0.63743  0.12589  0.57957  Biso   1.000  C
  C611     1.0000 0.06350  0.58058  0.74552  Biso   1.000  C
  C612     1.0000 0.06670  0.58402  0.73005  Biso   1.000  C
  C613     1.0000 0.99229  0.47995  0.70287  Biso   1.000  C
  C614     1.0000 0.69849  0.32065  0.03982  Biso   1.000  C
  C615     1.0000 0.71003  0.34326  0.02807  Biso   1.000  C
  C616     1.0000 0.67557  0.34207  0.11932  Biso   1.000  C
  C617     1.0000 0.70017  0.36312  0.11982  Biso   1.000  C
  C618     1.0000 0.68546  0.36774  0.12466  Biso   1.000  C
  C619     1.0000 0.67258  0.93045  0.59628  Biso   1.000  C
  C620     1.0000 0.73672  0.40551  0.05585  Biso   1.000  C
  C621     1.0000 0.74244  0.39180  0.06232  Biso   1.000  C
  C622     1.0000 0.72827  0.41385  0.08130  Biso   1.000  C
  C623     1.0000 0.63818  0.62527  0.08095  Biso   1.000  C
  C624     1.0000 0.05498  0.06816  0.24155  Biso   1.000  C
  C625     1.0000 0.05861  0.07232  0.22647  Biso   1.000  C
  C626     1.0000 0.00490  0.99358  0.20965  Biso   1.000  C
  C627     1.0000 0.69775  0.82301  0.54139  Biso   1.000  C
  C628     1.0000 0.67458  0.85335  0.60604  Biso   1.000  C
  C629     1.0000 0.69913  0.85834  0.62649  Biso   1.000  C
  C630     1.0000 0.68390  0.86167  0.63113  Biso   1.000  C
  C631     1.0000 0.67500  0.42429  0.09641  Biso   1.000  C
  C632     1.0000 0.66523  0.41533  0.10579  Biso   1.000  C
  C633     1.0000 0.73571  0.90665  0.55483  Biso   1.000  C
  C634     1.0000 0.74180  0.89270  0.56038  Biso   1.000  C
  C635     1.0000 0.73777  0.91772  0.58061  Biso   1.000  C
  C636     1.0000 0.13618  0.12424  0.08021  Biso   1.000  C
  C637     1.0000 0.55971  0.57837  0.24623  Biso   1.000  C
  C638     1.0000 0.56216  0.58178  0.23067  Biso   1.000  C
  C639     1.0000 0.49973  0.48600  0.21125  Biso   1.000  C
  C640     1.0000 0.19586  0.32406  0.54510  Biso   1.000  C
  C641     1.0000 0.21252  0.33659  0.52637  Biso   1.000  C
  C642     1.0000 0.17456  0.35339  0.60626  Biso   1.000  C
  C643     1.0000 0.19908  0.35748  0.62691  Biso   1.000  C
  C644     1.0000 0.18392  0.36101  0.63157  Biso   1.000  C
  C645     1.0000 0.17619  0.91784  0.08852  Biso   1.000  C
  C646     1.0000 0.16661  0.90875  0.09791  Biso   1.000  C
  C647     1.0000 0.23542  0.40799  0.55652  Biso   1.000  C
  C648     1.0000 0.24160  0.39393  0.56168  Biso   1.000  C
  C649     1.0000 0.23503  0.41752  0.58298  Biso   1.000  C
  C650     1.0000 0.13867  0.62847  0.57941  Biso   1.000  C
  C651     1.0000 0.56384  0.08169  0.74762  Biso   1.000  C
  C652     1.0000 0.56671  0.08576  0.73228  Biso   1.000  C
  C653     1.0000 0.50609  0.99605  0.70822  Biso   1.000  C
  C654     1.0000 0.19638  0.82476  0.04390  Biso   1.000  C
  C655     1.0000 0.17585  0.85370  0.10508  Biso   1.000  C
  C656     1.0000 0.20036  0.85830  0.12565  Biso   1.000  C
  C657     1.0000 0.18510  0.86112  0.13050  Biso   1.000  C
  C658     1.0000 0.16992  0.43178  0.59752  Biso   1.000  C
  C659     1.0000 0.23200  0.90348  0.05216  Biso   1.000  C
  C660     1.0000 0.23842  0.88977  0.05785  Biso   1.000  C
  C661     1.0000 0.24194  0.91736  0.07451  Biso   1.000  C
  C662     1.0000 0.11373  0.12375  0.05683  Biso   1.000  C
  C663     1.0000 0.68640  0.66782  0.24674  Biso   1.000  C
  C664     1.0000 0.68332  0.66469  0.23123  Biso   1.000  C
  C665     1.0000 0.74231  0.75228  0.18630  Biso   1.000  C
  C666     1.0000 0.05191  0.93035  0.53791  Biso   1.000  C
  C667     1.0000 0.03799  0.90899  0.52629  Biso   1.000  C
  C668     1.0000 0.05911  0.91065  0.60707  Biso   1.000  C
  C669     1.0000 0.05072  0.88705  0.61958  Biso   1.000  C
  C670     1.0000 0.06596  0.88424  0.62447  Biso   1.000  C
  C671     1.0000 0.07472  0.32377  0.09576  Biso   1.000  C
  C672     1.0000 0.08426  0.33333  0.10471  Biso   1.000  C
  C673     1.0000 0.01451  0.83603  0.58137  Biso   1.000  C
  C674     1.0000 0.00909  0.85053  0.58558  Biso   1.000  C
  C675     1.0000 0.01407  0.84370  0.55432  Biso   1.000  C
  C676     1.0000 0.11551  0.62900  0.55674  Biso   1.000  C
  C677     1.0000 0.69524  0.17851  0.74135  Biso   1.000  C
  C678     1.0000 0.69179  0.17595  0.72586  Biso   1.000  C
  C679     1.0000 0.74189  0.25391  0.68665  Biso   1.000  C
  C680     1.0000 0.03969  0.40664  0.02873  Biso   1.000  C
  C681     1.0000 0.06021  0.40895  0.10881  Biso   1.000  C
  C682     1.0000 0.07533  0.40537  0.11356  Biso   1.000  C
  C683     1.0000 0.05063  0.38653  0.12254  Biso   1.000  C
  C684     1.0000 0.07312  0.82409  0.59598  Biso   1.000  C
  C685     1.0000 0.01812  0.34489  0.05550  Biso   1.000  C
  C686     1.0000 0.01193  0.35864  0.06126  Biso   1.000  C
  C687     1.0000 0.01200  0.33200  0.07974  Biso   1.000  C
  C688     1.0000 0.61446  0.12581  0.55669  Biso   1.000  C
  C689     1.0000 0.19316  0.67052  0.74435  Biso   1.000  C
  C690     1.0000 0.18905  0.66710  0.72914  Biso   1.000  C
  C691     1.0000 0.23793  0.75018  0.68955  Biso   1.000  C
  C692     1.0000 0.55235  0.93042  0.03829  Biso   1.000  C
  C693     1.0000 0.53798  0.90988  0.02581  Biso   1.000  C
  C694     1.0000 0.55621  0.90975  0.12042  Biso   1.000  C
  C695     1.0000 0.55406  0.88495  0.10765  Biso   1.000  C
  C696     1.0000 0.56890  0.88104  0.11283  Biso   1.000  C
  C697     1.0000 0.58461  0.31259  0.59575  Biso   1.000  C
  C698     1.0000 0.59374  0.32204  0.60526  Biso   1.000  C
  C699     1.0000 0.52397  0.83927  0.08104  Biso   1.000  C
  C700     1.0000 0.51801  0.85365  0.08492  Biso   1.000  C
  C701     1.0000 0.51105  0.84068  0.05606  Biso   1.000  C
  C702     1.0000 0.61700  0.62699  0.05644  Biso   1.000  C
  C703     1.0000 0.18560  0.16868  0.24583  Biso   1.000  C
  C704     1.0000 0.18243  0.16585  0.23029  Biso   1.000  C
  C705     1.0000 0.24267  0.25423  0.18688  Biso   1.000  C
  C706     1.0000 0.53807  0.40537  0.52823  Biso   1.000  C
  C707     1.0000 0.55957  0.40174  0.60212  Biso   1.000  C
  C708     1.0000 0.57479  0.39848  0.60672  Biso   1.000  C
  C709     1.0000 0.55033  0.39360  0.62727  Biso   1.000  C
  C710     1.0000 0.58594  0.81323  0.09689  Biso   1.000  C
  C711     1.0000 0.59534  0.82286  0.10603  Biso   1.000  C
  C712     1.0000 0.51317  0.34194  0.55580  Biso   1.000  C
  C713     1.0000 0.50692  0.35586  0.56125  Biso   1.000  C
  C714     1.0000 0.51362  0.33192  0.58208  Biso   1.000  C
  C715     1.0000 0.14145  0.61956  0.67381  Biso   1.000  C
  C716     1.0000 0.55452  0.17748  0.50862  Biso   1.000  C
  C717     1.0000 0.55803  0.17402  0.52387  Biso   1.000  C
  C718     1.0000 0.50771  0.25260  0.56157  Biso   1.000  C
  C719     1.0000 0.19742  0.42841  0.20949  Biso   1.000  C
  C720     1.0000 0.21305  0.40988  0.22353  Biso   1.000  C
  C721     1.0000 0.19304  0.40987  0.13454  Biso   1.000  C
  C722     1.0000 0.17786  0.40621  0.12994  Biso   1.000  C
  C723     1.0000 0.19934  0.38260  0.13529  Biso   1.000  C
  C724     1.0000 0.16788  0.81795  0.65262  Biso   1.000  C
  C725     1.0000 0.15820  0.82712  0.64347  Biso   1.000  C
  C726     1.0000 0.23593  0.34253  0.19610  Biso   1.000  C
  C727     1.0000 0.24116  0.35710  0.19142  Biso   1.000  C
  C728     1.0000 0.24097  0.34842  0.16465  Biso   1.000  C
  C729     1.0000 0.55705  0.68012  0.00928  Biso   1.000  C
  C730     1.0000 0.56050  0.67627  0.02445  Biso   1.000  C
  C731     1.0000 0.50358  0.75711  0.06797  Biso   1.000  C
  C732     1.0000 0.21268  0.91412  0.72416  Biso   1.000  C
  C733     1.0000 0.19215  0.90757  0.63848  Biso   1.000  C
  C734     1.0000 0.17692  0.90407  0.63398  Biso   1.000  C
  C735     1.0000 0.20074  0.88298  0.62837  Biso   1.000  C
  C736     1.0000 0.17069  0.31679  0.15279  Biso   1.000  C
  C737     1.0000 0.24372  0.83587  0.68790  Biso   1.000  C
  C738     1.0000 0.24978  0.85046  0.68443  Biso   1.000  C
  C739     1.0000 0.21875  0.84398  0.67782  Biso   1.000  C
  C740     1.0000 0.06506  0.16606  0.00182  Biso   1.000  C
  C741     1.0000 0.06800  0.16226  0.01728  Biso   1.000  C
  C742     1.0000 0.99335  0.26747  0.04425  Biso   1.000  C
  C743     1.0000 0.00585  0.25315  0.06493  Biso   1.000  C
  C744     1.0000 0.69742  0.42859  0.70868  Biso   1.000  C
  C745     1.0000 0.71267  0.40960  0.72251  Biso   1.000  C
  C746     1.0000 0.69240  0.40929  0.63328  Biso   1.000  C
  C747     1.0000 0.67725  0.40553  0.62870  Biso   1.000  C
  C748     1.0000 0.69868  0.38204  0.63465  Biso   1.000  C
  C749     1.0000 0.66658  0.81389  0.15272  Biso   1.000  C
  C750     1.0000 0.73545  0.34219  0.69539  Biso   1.000  C
  C751     1.0000 0.74072  0.35670  0.69063  Biso   1.000  C
  C752     1.0000 0.74036  0.34791  0.66389  Biso   1.000  C
  C753     1.0000 0.05693  0.68178  0.50951  Biso   1.000  C
  C754     1.0000 0.06021  0.67866  0.52489  Biso   1.000  C
  C755     1.0000 0.00478  0.75493  0.56450  Biso   1.000  C
  C756     1.0000 0.71406  0.91086  0.22505  Biso   1.000  C
  C757     1.0000 0.69086  0.91139  0.13888  Biso   1.000  C
  C758     1.0000 0.69981  0.88600  0.13134  Biso   1.000  C
  C759     1.0000 0.68477  0.88204  0.12684  Biso   1.000  C
  C760     1.0000 0.66930  0.31636  0.65232  Biso   1.000  C
  C761     1.0000 0.73911  0.83951  0.19417  Biso   1.000  C
  C762     1.0000 0.73162  0.83414  0.16761  Biso   1.000  C
  C763     1.0000 0.73673  0.84869  0.16320  Biso   1.000  C
  C764     1.0000 0.61118  0.62726  0.18631  Biso   1.000  C
  C765     1.0000 0.18751  0.07912  0.00683  Biso   1.000  C
  C766     1.0000 0.18377  0.08175  0.02228  Biso   1.000  C
  C767     1.0000 0.25727  0.98142  0.04554  Biso   1.000  C
  C768     1.0000 0.55622  0.82566  0.70630  Biso   1.000  C
  C769     1.0000 0.53773  0.83271  0.72606  Biso   1.000  C
  C770     1.0000 0.55708  0.84132  0.63682  Biso   1.000  C
  C771     1.0000 0.57217  0.84490  0.63193  Biso   1.000  C
  C772     1.0000 0.55062  0.86856  0.63679  Biso   1.000  C
  C773     1.0000 0.57617  0.42498  0.15538  Biso   1.000  C
  C774     1.0000 0.58594  0.41606  0.14593  Biso   1.000  C
  C775     1.0000 0.50452  0.91339  0.68881  Biso   1.000  C
  C776     1.0000 0.49898  0.89844  0.68624  Biso   1.000  C
  C777     1.0000 0.53030  0.90500  0.68136  Biso   1.000  C
  C778     1.0000 0.61017  0.12822  0.68840  Biso   1.000  C
  C779     1.0000 0.18066  0.58695  0.51816  Biso   1.000  C
  C780     1.0000 0.24961  0.48872  0.53913  Biso   1.000  C
  C781     1.0000 0.55097  0.31930  0.20942  Biso   1.000  C
  C782     1.0000 0.57488  0.34235  0.13289  Biso   1.000  C
  C783     1.0000 0.55066  0.36379  0.13156  Biso   1.000  C
  C784     1.0000 0.56556  0.36810  0.12697  Biso   1.000  C
  C785     1.0000 0.57960  0.93432  0.65182  Biso   1.000  C
  C786     1.0000 0.51775  0.40296  0.19592  Biso   1.000  C
  C787     1.0000 0.51139  0.38931  0.19012  Biso   1.000  C
  C788     1.0000 0.51202  0.41595  0.17164  Biso   1.000  C
  C789     1.0000 0.11302  0.62457  0.68839  Biso   1.000  C
  C790     1.0000 0.68764  0.08039  0.50592  Biso   1.000  C
  C791     1.0000 0.68357  0.08315  0.52125  Biso   1.000  C
  C792     1.0000 0.75481  0.98523  0.54066  Biso   1.000  C
  C793     1.0000 0.05152  0.82040  0.21051  Biso   1.000  C
  C794     1.0000 0.06074  0.84335  0.14507  Biso   1.000  C
  C795     1.0000 0.07572  0.84713  0.14011  Biso   1.000  C
  C796     1.0000 0.05011  0.86018  0.12538  Biso   1.000  C
  C797     1.0000 0.07386  0.42349  0.65734  Biso   1.000  C
  C798     1.0000 0.08304  0.41466  0.64736  Biso   1.000  C
  C799     1.0000 0.01510  0.90629  0.19467  Biso   1.000  C
  C800     1.0000 0.00888  0.89214  0.18980  Biso   1.000  C
  C801     1.0000 0.01162  0.91672  0.16878  Biso   1.000  C
  C802     1.0000 0.11427  0.12519  0.19301  Biso   1.000  C
  C803     1.0000 0.68955  0.57824  0.00691  Biso   1.000  C
  C804     1.0000 0.68576  0.58108  0.02228  Biso   1.000  C
  C805     1.0000 0.74972  0.48690  0.03985  Biso   1.000  C
  C806     1.0000 0.04967  0.31927  0.71014  Biso   1.000  C
  C807     1.0000 0.05929  0.34348  0.64623  Biso   1.000  C
  C808     1.0000 0.07434  0.34712  0.64141  Biso   1.000  C
  C809     1.0000 0.04902  0.36130  0.62720  Biso   1.000  C
  C810     1.0000 0.07853  0.93118  0.15074  Biso   1.000  C
  C811     1.0000 0.01792  0.40357  0.69772  Biso   1.000  C
  C812     1.0000 0.01140  0.38999  0.69190  Biso   1.000  C
  C813     1.0000 0.01027  0.41720  0.67433  Biso   1.000  C
  C814     1.0000 0.62550  0.18850  0.61060  Biso   1.000  C
  C815     1.0000 0.08174  0.00264  0.17985  Biso   1.000  C
  C816     1.0000 0.08560  0.01826  0.17860  Biso   1.000  C
  C817     1.0000 0.98329  0.04205  0.25336  Biso   1.000  C
  C818     1.0000 0.99598  0.06507  0.24356  Biso   1.000  C
  C819     1.0000 0.82016  0.70826  0.55338  Biso   1.000  C
  C820     1.0000 0.84479  0.64632  0.56044  Biso   1.000  C
  C821     1.0000 0.84890  0.64201  0.57554  Biso   1.000  C
  C822     1.0000 0.85841  0.61747  0.56601  Biso   1.000  C
  C823     1.0000 0.43363  0.15389  0.58380  Biso   1.000  C
  C824     1.0000 0.42445  0.14483  0.59364  Biso   1.000  C
  C825     1.0000 0.90902  0.69317  0.50967  Biso   1.000  C
  C826     1.0000 0.91429  0.66685  0.51789  Biso   1.000  C
  C827     1.0000 0.89968  0.66235  0.51297  Biso   1.000  C
  C828     1.0000 0.62293  0.69245  0.11604  Biso   1.000  C
  C829     1.0000 0.06849  0.50839  0.69557  Biso   1.000  C
  C830     1.0000 0.07171  0.52346  0.69132  Biso   1.000  C
  C831     1.0000 0.98770  0.53833  0.75224  Biso   1.000  C
  C832     1.0000 0.99193  0.56551  0.74704  Biso   1.000  C
  C833     1.0000 0.84571  0.21935  0.04135  Biso   1.000  C
  C834     1.0000 0.83776  0.13794  0.05830  Biso   1.000  C
  C835     1.0000 0.84070  0.13223  0.07324  Biso   1.000  C
  C836     1.0000 0.86792  0.13010  0.06700  Biso   1.000  C
  C837     1.0000 0.42611  0.65479  0.07458  Biso   1.000  C
  C838     1.0000 0.41655  0.64520  0.08349  Biso   1.000  C
  C839     1.0000 0.90505  0.19557  0.01508  Biso   1.000  C
  C840     1.0000 0.89136  0.19006  0.00855  Biso   1.000  C
  C841     1.0000 0.91731  0.17073  0.01047  Biso   1.000  C
  C842     1.0000 0.58150  0.00257  0.68071  Biso   1.000  C
  C843     1.0000 0.58541  0.01806  0.67838  Biso   1.000  C
  C844     1.0000 0.48356  0.04361  0.75479  Biso   1.000  C
  C845     1.0000 0.49646  0.06548  0.74297  Biso   1.000  C
  C846     1.0000 0.32217  0.70921  0.05187  Biso   1.000  C
  C847     1.0000 0.33857  0.63593  0.05864  Biso   1.000  C
  C848     1.0000 0.34190  0.63005  0.07345  Biso   1.000  C
  C849     1.0000 0.36924  0.63036  0.06739  Biso   1.000  C
  C850     1.0000 0.91828  0.15936  0.07384  Biso   1.000  C
  C851     1.0000 0.90871  0.15019  0.08313  Biso   1.000  C
  C852     1.0000 0.41043  0.69446  0.00907  Biso   1.000  C
  C853     1.0000 0.41501  0.66831  0.01813  Biso   1.000  C
  C854     1.0000 0.40063  0.66388  0.01259  Biso   1.000  C
  C855     1.0000 0.12308  0.69353  0.61719  Biso   1.000  C
  C856     1.0000 0.57842  0.50558  0.19325  Biso   1.000  C
  C857     1.0000 0.58136  0.52096  0.18965  Biso   1.000  C
  C858     1.0000 0.48436  0.54368  0.25467  Biso   1.000  C
  C859     1.0000 0.49699  0.56564  0.24276  Biso   1.000  C
  C860     1.0000 0.34519  0.21874  0.54282  Biso   1.000  C
  C861     1.0000 0.33899  0.13963  0.56053  Biso   1.000  C
  C862     1.0000 0.36306  0.12930  0.55068  Biso   1.000  C
  C863     1.0000 0.36686  0.12403  0.56556  Biso   1.000  C
  C864     1.0000 0.92717  0.65356  0.57481  Biso   1.000  C
  C865     1.0000 0.91769  0.64410  0.58392  Biso   1.000  C
  C866     1.0000 0.40850  0.19374  0.50960  Biso   1.000  C
  C867     1.0000 0.39407  0.18883  0.50416  Biso   1.000  C
  C868     1.0000 0.40100  0.16227  0.51017  Biso   1.000  C
  C869     1.0000 0.62322  0.66913  0.13855  Biso   1.000  C
  C870     1.0000 0.16635  0.50405  0.56313  Biso   1.000  C
  C871     1.0000 0.25079  0.56218  0.51044  Biso   1.000  C
  C872     1.0000 0.41355  0.22349  0.21152  Biso   1.000  C
  C873     1.0000 0.40869  0.13449  0.19314  Biso   1.000  C
  C874     1.0000 0.38158  0.13357  0.19988  Biso   1.000  C
  C875     1.0000 0.37805  0.12895  0.18471  Biso   1.000  C
  C876     1.0000 0.81676  0.65144  0.16763  Biso   1.000  C
  C877     1.0000 0.82613  0.64237  0.15793  Biso   1.000  C
  C878     1.0000 0.35807  0.17230  0.22613  Biso   1.000  C
  C879     1.0000 0.33695  0.18989  0.24330  Biso   1.000  C
  C880     1.0000 0.35137  0.18611  0.24967  Biso   1.000  C
  C881     1.0000 0.62009  0.17847  0.64095  Biso   1.000  C
  C882     1.0000 0.17130  0.00525  0.05988  Biso   1.000  C
  C883     1.0000 0.16783  0.02029  0.06431  Biso   1.000  C
  C884     1.0000 0.25652  0.06618  0.00365  Biso   1.000  C
  C885     1.0000 0.43033  0.71145  0.69841  Biso   1.000  C
  C886     1.0000 0.40781  0.72252  0.71094  Biso   1.000  C
  C887     1.0000 0.40982  0.63533  0.69315  Biso   1.000  C
  C888     1.0000 0.38271  0.63468  0.69991  Biso   1.000  C
  C889     1.0000 0.37916  0.62955  0.68492  Biso   1.000  C
  C890     1.0000 0.81864  0.15324  0.66917  Biso   1.000  C
  C891     1.0000 0.82789  0.14377  0.65977  Biso   1.000  C
  C892     1.0000 0.35995  0.69290  0.73685  Biso   1.000  C
  C893     1.0000 0.33423  0.67329  0.73765  Biso   1.000  C
  C894     1.0000 0.34835  0.66822  0.74349  Biso   1.000  C
  C895     1.0000 0.12307  0.67006  0.63953  Biso   1.000  C
  C896     1.0000 0.66979  0.50541  0.06060  Biso   1.000  C
  C897     1.0000 0.66647  0.52065  0.06469  Biso   1.000  C
  C898     1.0000 0.76326  0.56581  0.99771  Biso   1.000  C
  C899     1.0000 0.91249  0.22470  0.71170  Biso   1.000  C
  C900     1.0000 0.90932  0.13559  0.69324  Biso   1.000  C
  C901     1.0000 0.88220  0.13440  0.69995  Biso   1.000  C
  C902     1.0000 0.87875  0.12957  0.68484  Biso   1.000  C
  C903     1.0000 0.31552  0.65376  0.66573  Biso   1.000  C
  C904     1.0000 0.32459  0.64428  0.65614  Biso   1.000  C
  C905     1.0000 0.85781  0.17278  0.72618  Biso   1.000  C
  C906     1.0000 0.83674  0.19056  0.74320  Biso   1.000  C
  C907     1.0000 0.85116  0.18684  0.74958  Biso   1.000  C
  C908     1.0000 0.11909  0.17634  0.14058  Biso   1.000  C
  C909     1.0000 0.67106  0.00499  0.56024  Biso   1.000  C
  C910     1.0000 0.66703  0.02014  0.56411  Biso   1.000  C
  C911     1.0000 0.76440  0.06591  0.49605  Biso   1.000  C
  C912     1.0000 0.91278  0.72330  0.21177  Biso   1.000  C
  C913     1.0000 0.91057  0.63451  0.19313  Biso   1.000  C
  C914     1.0000 0.88375  0.63169  0.20048  Biso   1.000  C
  C915     1.0000 0.88015  0.62693  0.18541  Biso   1.000  C
  C916     1.0000 0.31859  0.15305  0.16879  Biso   1.000  C
  C917     1.0000 0.32760  0.14354  0.15922  Biso   1.000  C
  C918     1.0000 0.85708  0.68995  0.24225  Biso   1.000  C
  C919     1.0000 0.83526  0.66776  0.23339  Biso   1.000  C
  C920     1.0000 0.84965  0.66312  0.23897  Biso   1.000  C
  C921     1.0000 0.11958  0.06781  0.11123  Biso   1.000  C
  C922     1.0000 0.66625  0.22973  0.68739  Biso   1.000  C
  C923     1.0000 0.75161  0.20579  0.74015  Biso   1.000  C
  C924     1.0000 0.76501  0.18525  0.75381  Biso   1.000  C
  C925     1.0000 0.92521  0.54370  0.05509  Biso   1.000  C
  C926     1.0000 0.91576  0.52484  0.03665  Biso   1.000  C
  C927     1.0000 0.91136  0.61035  0.06008  Biso   1.000  C
  C928     1.0000 0.90748  0.61529  0.07512  Biso   1.000  C
  C929     1.0000 0.88721  0.62081  0.05042  Biso   1.000  C
  C930     1.0000 0.31402  0.09645  0.08320  Biso   1.000  C
  C931     1.0000 0.85236  0.56323  0.00136  Biso   1.000  C
  C932     1.0000 0.83652  0.57889  0.02496  Biso   1.000  C
  C933     1.0000 0.85112  0.58384  0.02044  Biso   1.000  C
  C934     1.0000 0.12613  0.58242  0.61508  Biso   1.000  C
  C935     1.0000 0.66321  0.73012  0.18095  Biso   1.000  C
  C936     1.0000 0.76417  0.68589  0.25302  Biso   1.000  C
  C937     1.0000 0.92745  0.04366  0.55498  Biso   1.000  C
  C938     1.0000 0.91315  0.02654  0.53804  Biso   1.000  C
  C939     1.0000 0.90945  0.10805  0.56020  Biso   1.000  C
  C940     1.0000 0.90575  0.11302  0.57527  Biso   1.000  C
  C941     1.0000 0.88936  0.12457  0.54977  Biso   1.000  C
  C942     1.0000 0.32906  0.59283  0.57418  Biso   1.000  C
  C943     1.0000 0.83876  0.06016  0.50677  Biso   1.000  C
  C944     1.0000 0.85354  0.06428  0.50160  Biso   1.000  C
  C945     1.0000 0.84305  0.07491  0.53034  Biso   1.000  C
  C946     1.0000 0.61928  0.07108  0.61033  Biso   1.000  C
  C947     1.0000 0.16364  0.23148  0.18137  Biso   1.000  C
  C948     1.0000 0.25139  0.20530  0.23943  Biso   1.000  C
  C949     1.0000 0.26437  0.18437  0.25294  Biso   1.000  C
  C950     1.0000 0.42907  0.54244  0.55338  Biso   1.000  C
  C951     1.0000 0.41410  0.52551  0.53684  Biso   1.000  C
  C952     1.0000 0.40842  0.60614  0.56076  Biso   1.000  C
  C953     1.0000 0.40498  0.61129  0.57581  Biso   1.000  C
  C954     1.0000 0.39072  0.62515  0.55022  Biso   1.000  C
  C955     1.0000 0.81512  0.09727  0.58295  Biso   1.000  C
  C956     1.0000 0.33477  0.57991  0.51704  Biso   1.000  C
  C957     1.0000 0.34924  0.58494  0.51216  Biso   1.000  C
  C958     1.0000 0.34169  0.55358  0.51016  Biso   1.000  C
  C959     1.0000 0.62575  0.58213  0.11579  Biso   1.000  C
  C960     1.0000 0.16322  0.72982  0.68192  Biso   1.000  C
  C961     1.0000 0.26647  0.68770  0.75420  Biso   1.000  C
  C962     1.0000 0.42506  0.04467  0.05643  Biso   1.000  C
  C963     1.0000 0.41650  0.02581  0.03764  Biso   1.000  C
  C964     1.0000 0.41121  0.11026  0.05984  Biso   1.000  C
  C965     1.0000 0.40711  0.11487  0.07493  Biso   1.000  C
  C966     1.0000 0.38875  0.12353  0.04962  Biso   1.000  C
  C967     1.0000 0.82433  0.59460  0.07659  Biso   1.000  C
  C968     1.0000 0.83335  0.60384  0.08645  Biso   1.000  C
  C969     1.0000 0.33865  0.06020  0.00690  Biso   1.000  C
  C970     1.0000 0.35346  0.06450  0.00200  Biso   1.000  C
  C971     1.0000 0.34226  0.07533  0.03037  Biso   1.000  C
  C972     1.0000 0.12440  0.55686  0.63492  Biso   1.000  C
  C973     1.0000 0.57681  0.74389  0.05994  Biso   1.000  C
  C974     1.0000 0.58023  0.72837  0.06241  Biso   1.000  C
  C975     1.0000 0.49867  0.70830  0.00875  Biso   1.000  C
  C976     1.0000 0.48595  0.68695  0.99571  Biso   1.000  C
  C977     1.0000 0.32057  0.04138  0.69715  Biso   1.000  C
  C978     1.0000 0.33894  0.11102  0.69061  Biso   1.000  C
  C979     1.0000 0.34311  0.11629  0.67575  Biso   1.000  C
  C980     1.0000 0.36263  0.12178  0.70108  Biso   1.000  C
  C981     1.0000 0.36697  0.12667  0.68623  Biso   1.000  C
  C982     1.0000 0.92955  0.59498  0.67227  Biso   1.000  C
  C983     1.0000 0.92045  0.60457  0.66289  Biso   1.000  C
  C984     1.0000 0.39446  0.06165  0.74754  Biso   1.000  C
  C985     1.0000 0.41201  0.07922  0.72668  Biso   1.000  C
  C986     1.0000 0.39761  0.08447  0.73141  Biso   1.000  C
  C987     1.0000 0.57713  0.24393  0.55908  Biso   1.000  C
  C988     1.0000 0.58016  0.22834  0.56164  Biso   1.000  C
  C989     1.0000 0.48325  0.18612  0.49489  Biso   1.000  C
  C990     1.0000 0.33311  0.54480  0.19413  Biso   1.000  C
  C991     1.0000 0.34162  0.61072  0.19173  Biso   1.000  C
  C992     1.0000 0.34499  0.61538  0.17652  Biso   1.000  C
  C993     1.0000 0.36665  0.61999  0.20010  Biso   1.000  C
  C994     1.0000 0.91628  0.08635  0.17395  Biso   1.000  C
  C995     1.0000 0.41355  0.56082  0.24561  Biso   1.000  C
  C996     1.0000 0.39894  0.56514  0.25097  Biso   1.000  C
  C997     1.0000 0.40641  0.56910  0.21965  Biso   1.000  C
  C998     1.0000 0.62442  0.55794  0.13731  Biso   1.000  C
  C999     1.0000 0.07847  0.74670  0.56396  Biso   1.000  C
  C1000    1.0000 0.08229  0.73135  0.56681  Biso   1.000  C
  C1001    1.0000 0.99785  0.70797  0.50827  Biso   1.000  C
  C1002    1.0000 0.98591  0.68618  0.49521  Biso   1.000  C
  C1003    1.0000 0.81981  0.03971  0.19923  Biso   1.000  C
  C1004    1.0000 0.84070  0.02691  0.21274  Biso   1.000  C
  C1005    1.0000 0.84178  0.10679  0.19032  Biso   1.000  C
  C1006    1.0000 0.84496  0.11197  0.17526  Biso   1.000  C
  C1007    1.0000 0.86167  0.12381  0.20022  Biso   1.000  C
  C1008    1.0000 0.42228  0.59209  0.17518  Biso   1.000  C
  C1009    1.0000 0.41325  0.60145  0.16559  Biso   1.000  C
  C1010    1.0000 0.90537  0.05355  0.23320  Biso   1.000  C
  C1011    1.0000 0.91634  0.07922  0.23621  Biso   1.000  C
  C1012    1.0000 0.90235  0.08443  0.24223  Biso   1.000  C
  C1013    1.0000 0.08043  0.24348  0.05983  Biso   1.000  C
  C1014    1.0000 0.08370  0.22802  0.06286  Biso   1.000  C
  C1015    1.0000 0.99456  0.18278  0.00644  Biso   1.000  C
  C1016    1.0000 0.81948  0.54076  0.69823  Biso   1.000  C
  C1017    1.0000 0.84321  0.60664  0.69073  Biso   1.000  C
  C1018    1.0000 0.84734  0.61120  0.67574  Biso   1.000  C
  C1019    1.0000 0.86352  0.62278  0.70122  Biso   1.000  C
  C1020    1.0000 0.42183  0.09529  0.67589  Biso   1.000  C
  C1021    1.0000 0.41303  0.10487  0.66616  Biso   1.000  C
  C1022    1.0000 0.91182  0.55884  0.74377  Biso   1.000  C
  C1023    1.0000 0.89723  0.56330  0.74923  Biso   1.000  C
  C1024    1.0000 0.90748  0.57380  0.72033  Biso   1.000  C
  C1025    1.0000 0.68178  0.13939  0.62058  Biso   1.000  C
  C1026    1.0000 0.51970  0.56371  0.16452  Biso   1.000  C
  C1027    1.0000 0.53909  0.50375  0.25733  Biso   1.000  C
  C1028    1.0000 0.56477  0.49604  0.26546  Biso   1.000  C
  C1029    1.0000 0.21106  0.19779  0.43076  Biso   1.000  C
  C1030    1.0000 0.22261  0.21136  0.40910  Biso   1.000  C
  C1031    1.0000 0.12461  0.17872  0.40490  Biso   1.000  C
  C1032    1.0000 0.13920  0.19760  0.38295  Biso   1.000  C
  C1033    1.0000 0.13422  0.18274  0.37889  Biso   1.000  C
  C1034    1.0000 0.65326  0.16580  0.84216  Biso   1.000  C
  C1035    1.0000 0.19663  0.22611  0.34741  Biso   1.000  C
  C1036    1.0000 0.19182  0.23234  0.36150  Biso   1.000  C
  C1037    1.0000 0.17837  0.24254  0.33377  Biso   1.000  C
  C1038    1.0000 0.67901  0.63847  0.12127  Biso   1.000  C
  C1039    1.0000 0.50323  0.06215  0.66747  Biso   1.000  C
  C1040    1.0000 0.53843  0.99748  0.76211  Biso   1.000  C
  C1041    1.0000 0.56620  0.00074  0.75981  Biso   1.000  C
  C1042    1.0000 0.21541  0.70235  0.93096  Biso   1.000  C
  C1043    1.0000 0.21866  0.70601  0.90335  Biso   1.000  C
  C1044    1.0000 0.13254  0.67641  0.90782  Biso   1.000  C
  C1045    1.0000 0.12956  0.70074  0.88662  Biso   1.000  C
  C1046    1.0000 0.12428  0.68595  0.88278  Biso   1.000  C
  C1047    1.0000 0.64441  0.66256  0.33191  Biso   1.000  C
  C1048    1.0000 0.19635  0.73742  0.84334  Biso   1.000  C
  C1049    1.0000 0.19070  0.74316  0.85736  Biso   1.000  C
  C1050    1.0000 0.17030  0.73687  0.83294  Biso   1.000  C
  C1051    1.0000 0.17752  0.13895  0.12078  Biso   1.000  C
  C1052    1.0000 0.00312  0.56403  0.66739  Biso   1.000  C
  C1053    1.0000 0.04289  0.50643  0.75619  Biso   1.000  C
  C1054    1.0000 0.06563  0.49495  0.76791  Biso   1.000  C
  C1055    1.0000 0.71445  0.20250  0.93149  Biso   1.000  C
  C1056    1.0000 0.71736  0.20582  0.90380  Biso   1.000  C
  C1057    1.0000 0.63091  0.17646  0.90813  Biso   1.000  C
  C1058    1.0000 0.63010  0.19964  0.88556  Biso   1.000  C
  C1059    1.0000 0.62484  0.18469  0.88202  Biso   1.000  C
  C1060    1.0000 0.14345  0.16307  0.33126  Biso   1.000  C
  C1061    1.0000 0.69578  0.23247  0.84495  Biso   1.000  C
  C1062    1.0000 0.69024  0.23894  0.85869  Biso   1.000  C
  C1063    1.0000 0.67091  0.23694  0.83270  Biso   1.000  C
  C1064    1.0000 0.17962  0.63911  0.62118  Biso   1.000  C
  C1065    1.0000 0.00385  0.06371  0.16662  Biso   1.000  C
  C1066    1.0000 0.04547  0.99465  0.26468  Biso   1.000  C
  C1067    1.0000 0.06416  0.00979  0.25026  Biso   1.000  C
  C1068    1.0000 0.70954  0.69809  0.42818  Biso   1.000  C
  C1069    1.0000 0.72539  0.71456  0.41195  Biso   1.000  C
  C1070    1.0000 0.63613  0.67511  0.40689  Biso   1.000  C
  C1071    1.0000 0.63059  0.70007  0.38699  Biso   1.000  C
  C1072    1.0000 0.62591  0.68515  0.38279  Biso   1.000  C
  C1073    1.0000 0.15618  0.67540  0.82692  Biso   1.000  C
  C1074    1.0000 0.69721  0.73370  0.34600  Biso   1.000  C
  C1075    1.0000 0.69162  0.73993  0.35990  Biso   1.000  C
  C1076    1.0000 0.67200  0.73746  0.33417  Biso   1.000  C
  C1077    1.0000 0.01975  0.18597  0.08402  Biso   1.000  C
  C1078    1.0000 0.03712  0.24793  0.98954  Biso   1.000  C
  C1079    1.0000 0.72181  0.53925  0.84176  Biso   1.000  C
  C1080    1.0000 0.64297  0.55947  0.83975  Biso   1.000  C
  C1081    1.0000 0.62560  0.55014  0.85958  Biso   1.000  C
  C1082    1.0000 0.62099  0.56543  0.86275  Biso   1.000  C
  C1083    1.0000 0.15325  0.57851  0.42936  Biso   1.000  C
  C1084    1.0000 0.14380  0.58788  0.42006  Biso   1.000  C
  C1085    1.0000 0.68951  0.50448  0.89362  Biso   1.000  C
  C1086    1.0000 0.67072  0.52197  0.91340  Biso   1.000  C
  C1087    1.0000 0.66501  0.51699  0.89921  Biso   1.000  C
  C1088    1.0000 0.00193  0.68400  0.58290  Biso   1.000  C
  C1089    1.0000 0.04192  0.75270  0.48558  Biso   1.000  C
  C1090    1.0000 0.06553  0.74309  0.49720  Biso   1.000  C
  C1091    1.0000 0.72201  0.04005  0.34259  Biso   1.000  C
  C1092    1.0000 0.64409  0.05966  0.33925  Biso   1.000  C
  C1093    1.0000 0.62618  0.05035  0.35859  Biso   1.000  C
  C1094    1.0000 0.62158  0.06567  0.36170  Biso   1.000  C
  C1095    1.0000 0.15298  0.07473  0.92386  Biso   1.000  C
  C1096    1.0000 0.14388  0.08438  0.91448  Biso   1.000  C
  C1097    1.0000 0.68909  0.00425  0.39407  Biso   1.000  C
  C1098    1.0000 0.67074  0.02325  0.41284  Biso   1.000  C
  C1099    1.0000 0.66511  0.01813  0.39865  Biso   1.000  C
  C1100    1.0000 0.51866  0.18497  0.58389  Biso   1.000  C
  C1101    1.0000 0.54266  0.25187  0.48454  Biso   1.000  C
  C1102    1.0000 0.56516  0.24069  0.49689  Biso   1.000  C
  C1103    1.0000 0.22192  0.54033  0.34371  Biso   1.000  C
  C1104    1.0000 0.14275  0.55963  0.33982  Biso   1.000  C
  C1105    1.0000 0.12862  0.55066  0.36224  Biso   1.000  C
  C1106    1.0000 0.12355  0.56586  0.36515  Biso   1.000  C
  C1107    1.0000 0.66040  0.57397  0.91818  Biso   1.000  C
  C1108    1.0000 0.65107  0.58328  0.90871  Biso   1.000  C
  C1109    1.0000 0.19139  0.50874  0.39247  Biso   1.000  C
  C1110    1.0000 0.17057  0.51246  0.41705  Biso   1.000  C
  C1111    1.0000 0.16534  0.50698  0.40284  Biso   1.000  C
  C1112    1.0000 0.52175  0.68769  0.08118  Biso   1.000  C
  C1113    1.0000 0.54258  0.75215  0.98601  Biso   1.000  C
  C1114    1.0000 0.56655  0.74265  0.99695  Biso   1.000  C
  C1115    1.0000 0.22385  0.03701  0.83639  Biso   1.000  C
  C1116    1.0000 0.13524  0.05827  0.83591  Biso   1.000  C
  C1117    1.0000 0.12870  0.05009  0.86184  Biso   1.000  C
  C1118    1.0000 0.12456  0.06526  0.86561  Biso   1.000  C
  C1119    1.0000 0.66047  0.07450  0.41762  Biso   1.000  C
  C1120    1.0000 0.65099  0.08368  0.40820  Biso   1.000  C
  C1121    1.0000 0.19562  0.01703  0.90456  Biso   1.000  C
  C1122    1.0000 0.19013  0.01186  0.89022  Biso   1.000  C
  C1123    1.0000 0.16939  0.01777  0.91435  Biso   1.000  C
  C1124    1.0000 0.56952  0.63986  0.12846  Biso   1.000  C
  C1125    1.0000 0.74575  0.06207  0.58041  Biso   1.000  C
  C1126    1.0000 0.70149  0.99311  0.48101  Biso   1.000  C
  C1127    1.0000 0.69297  0.01190  0.50003  Biso   1.000  C
  C1128    1.0000 0.02571  0.71314  0.33751  Biso   1.000  C
  C1129    1.0000 0.11555  0.69307  0.33814  Biso   1.000  C
  C1130    1.0000 0.11583  0.69860  0.36565  Biso   1.000  C
  C1131    1.0000 0.12132  0.68361  0.36857  Biso   1.000  C
  C1132    1.0000 0.59723  0.66460  0.90772  Biso   1.000  C
  C1133    1.0000 0.05958  0.74636  0.39473  Biso   1.000  C
  C1134    1.0000 0.08004  0.72895  0.41290  Biso   1.000  C
  C1135    1.0000 0.08446  0.73381  0.39820  Biso   1.000  C
  C1136    1.0000 0.56702  0.14012  0.62888  Biso   1.000  C
  C1137    1.0000 0.74095  0.55275  0.06889  Biso   1.000  C
  C1138    1.0000 0.70766  0.49504  0.98412  Biso   1.000  C
  C1139    1.0000 0.68488  0.50619  0.99595  Biso   1.000  C
  C1140    1.0000 0.03457  0.20422  0.81890  Biso   1.000  C
  C1141    1.0000 0.03067  0.20798  0.84642  Biso   1.000  C
  C1142    1.0000 0.11780  0.17664  0.84373  Biso   1.000  C
  C1143    1.0000 0.11939  0.20051  0.86562  Biso   1.000  C
  C1144    1.0000 0.12440  0.18556  0.86948  Biso   1.000  C
  C1145    1.0000 0.59574  0.16411  0.40719  Biso   1.000  C
  C1146    1.0000 0.05356  0.23660  0.90708  Biso   1.000  C
  C1147    1.0000 0.05889  0.24326  0.89331  Biso   1.000  C
  C1148    1.0000 0.07984  0.23629  0.91708  Biso   1.000  C
  C1149    1.0000 0.06760  0.63949  0.62885  Biso   1.000  C
  C1150    1.0000 0.24582  0.06203  0.08077  Biso   1.000  C
  C1151    1.0000 0.18324  0.00600  0.99470  Biso   1.000  C
  C1152    1.0000 0.52624  0.71369  0.83728  Biso   1.000  C
  C1153    1.0000 0.61753  0.69285  0.83904  Biso   1.000  C
  C1154    1.0000 0.61635  0.69809  0.86658  Biso   1.000  C
  C1155    1.0000 0.62172  0.68308  0.86963  Biso   1.000  C
  C1156    1.0000 0.09788  0.66565  0.40764  Biso   1.000  C
  C1157    1.0000 0.56074  0.74623  0.89507  Biso   1.000  C
  C1158    1.0000 0.58071  0.72817  0.91315  Biso   1.000  C
  C1159    1.0000 0.58538  0.73320  0.89859  Biso   1.000  C
  C1160    1.0000 0.06909  0.13946  0.12703  Biso   1.000  C
  C1161    1.0000 0.24493  0.56106  0.58035  Biso   1.000  C
  C1162    1.0000 0.22939  0.56441  0.58297  Biso   1.000  C
  C1163    1.0000 0.21085  0.49864  0.48907  Biso   1.000  C
  C1164    1.0000 0.18316  0.50252  0.49101  Biso   1.000  C
  C1165    1.0000 0.53530  0.20331  0.31876  Biso   1.000  C
  C1166    1.0000 0.53138  0.20687  0.34628  Biso   1.000  C
  C1167    1.0000 0.61928  0.17706  0.34211  Biso   1.000  C
  C1168    1.0000 0.62073  0.19986  0.36507  Biso   1.000  C
  C1169    1.0000 0.62562  0.18473  0.36837  Biso   1.000  C
  C1170    1.0000 0.10544  0.16112  0.91894  Biso   1.000  C
  C1171    1.0000 0.55444  0.23200  0.40550  Biso   1.000  C
  C1172    1.0000 0.55998  0.23886  0.39197  Biso   1.000  C
  C1173    1.0000 0.57934  0.23610  0.41787  Biso   1.000  C
  C1174    1.0000 0.06468  0.10790  0.12136  Biso   1.000  C
  C1175    1.0000 0.24425  0.69134  0.67634  Biso   1.000  C
  C1176    1.0000 0.20000  0.75727  0.76803  Biso   1.000  C
  C1177    1.0000 0.18907  0.73895  0.74981  Biso   1.000  C
  C1178    1.0000 0.54355  0.05273  0.92629  Biso   1.000  C
  C1179    1.0000 0.52502  0.03576  0.91394  Biso   1.000  C
  C1180    1.0000 0.60246  0.05970  0.90342  Biso   1.000  C
  C1181    1.0000 0.60717  0.07487  0.90016  Biso   1.000  C
  C1182    1.0000 0.62638  0.05005  0.89259  Biso   1.000  C
  C1183    1.0000 0.09259  0.07344  0.32847  Biso   1.000  C
  C1184    1.0000 0.55453  0.01229  0.84263  Biso   1.000  C
  C1185    1.0000 0.55963  0.00627  0.85676  Biso   1.000  C
  C1186    1.0000 0.58089  0.01185  0.83288  Biso   1.000  C
  C1187    1.0000 0.24311  0.19300  0.17536  Biso   1.000  C
  C1188    1.0000 0.20052  0.25803  0.27018  Biso   1.000  C
  C1189    1.0000 0.19182  0.23942  0.25111  Biso   1.000  C
  C1190    1.0000 0.53825  0.55056  0.43138  Biso   1.000  C
  C1191    1.0000 0.52845  0.54009  0.40732  Biso   1.000  C
  C1192    1.0000 0.61451  0.55743  0.41184  Biso   1.000  C
  C1193    1.0000 0.61688  0.55015  0.38494  Biso   1.000  C
  C1194    1.0000 0.62183  0.56515  0.38132  Biso   1.000  C
  C1195    1.0000 0.09634  0.58662  0.81364  Biso   1.000  C
  C1196    1.0000 0.55948  0.50557  0.35717  Biso   1.000  C
  C1197    1.0000 0.58139  0.51801  0.33682  Biso   1.000  C
  C1198    1.0000 0.58604  0.51242  0.35119  Biso   1.000  C
  C1199    1.0000 0.56361  0.10861  0.62219  Biso   1.000  C
  C1200    1.0000 0.74341  0.69210  0.17715  Biso   1.000  C
  C1201    1.0000 0.69901  0.75777  0.26943  Biso   1.000  C
  C1202    1.0000 0.68968  0.73902  0.25079  Biso   1.000  C
  C1203    1.0000 0.04211  0.05260  0.42651  Biso   1.000  C
  C1204    1.0000 0.02527  0.03530  0.41229  Biso   1.000  C
  C1205    1.0000 0.10677  0.06049  0.40715  Biso   1.000  C
  C1206    1.0000 0.11207  0.07549  0.40379  Biso   1.000  C
  C1207    1.0000 0.12632  0.04985  0.39010  Biso   1.000  C
  C1208    1.0000 0.59765  0.07889  0.81817  Biso   1.000  C
  C1209    1.0000 0.05446  0.01126  0.34232  Biso   1.000  C
  C1210    1.0000 0.06021  0.00613  0.35655  Biso   1.000  C
  C1211    1.0000 0.08053  0.01265  0.33209  Biso   1.000  C
  C1212    1.0000 0.56475  0.60847  0.12210  Biso   1.000  C
  C1213    1.0000 0.74358  0.19339  0.67328  Biso   1.000  C
  C1214    1.0000 0.69938  0.25768  0.76944  Biso   1.000  C
  C1215    1.0000 0.69161  0.23895  0.75006  Biso   1.000  C
  C1216    1.0000 0.04013  0.55304  0.93208  Biso   1.000  C
  C1217    1.0000 0.02736  0.53818  0.91204  Biso   1.000  C
  C1218    1.0000 0.10766  0.56010  0.90861  Biso   1.000  C
  C1219    1.0000 0.12579  0.54989  0.88997  Biso   1.000  C
  C1220    1.0000 0.59704  0.57734  0.32174  Biso   1.000  C
  C1221    1.0000 0.06474  0.52310  0.86262  Biso   1.000  C
  C1222    1.0000 0.07518  0.50911  0.83526  Biso   1.000  C
  C1223    1.0000 0.07957  0.50310  0.84959  Biso   1.000  C
  C1224    1.0000 0.66657  0.68717  0.23013  Biso   1.000  C
  C1225    1.0000 0.76807  0.75382  0.20588  Biso   1.000  C
  C1226    1.0000 0.75349  0.74059  0.18588  Biso   1.000  C
  C1227    1.0000 0.91351  0.03783  0.52641  Biso   1.000  C
  C1228    1.0000 0.91055  0.05704  0.61440  Biso   1.000  C
  C1229    1.0000 0.88383  0.05030  0.61924  Biso   1.000  C
  C1230    1.0000 0.88090  0.06553  0.62414  Biso   1.000  C
  C1231    1.0000 0.33096  0.07463  0.08772  Biso   1.000  C
  C1232    1.0000 0.34048  0.08398  0.09692  Biso   1.000  C
  C1233    1.0000 0.86079  0.02034  0.56273  Biso   1.000  C
  C1234    1.0000 0.83266  0.00872  0.57393  Biso   1.000  C
  C1235    1.0000 0.84665  0.00246  0.57913  Biso   1.000  C
  C1236    1.0000 0.66448  0.17450  0.73225  Biso   1.000  C
  C1237    1.0000 0.76734  0.25468  0.70671  Biso   1.000  C
  C1238    1.0000 0.75288  0.24203  0.68623  Biso   1.000  C
  C1239    1.0000 0.91532  0.53638  0.02521  Biso   1.000  C
  C1240    1.0000 0.91152  0.55655  0.11437  Biso   1.000  C
  C1241    1.0000 0.88453  0.54989  0.11774  Biso   1.000  C
  C1242    1.0000 0.88146  0.56497  0.12297  Biso   1.000  C
  C1243    1.0000 0.31862  0.57985  0.59674  Biso   1.000  C
  C1244    1.0000 0.32780  0.58913  0.60635  Biso   1.000  C
  C1245    1.0000 0.86089  0.51472  0.05834  Biso   1.000  C
  C1246    1.0000 0.83410  0.50997  0.07592  Biso   1.000  C
  C1247    1.0000 0.84824  0.50433  0.08120  Biso   1.000  C
  C1248    1.0000 0.16863  0.68370  0.74801  Biso   1.000  C
  C1249    1.0000 0.26873  0.75725  0.69662  Biso   1.000  C
  C1250    1.0000 0.24906  0.73844  0.68970  Biso   1.000  C
  C1251    1.0000 0.41651  0.03733  0.02616  Biso   1.000  C
  C1252    1.0000 0.40934  0.05645  0.11440  Biso   1.000  C
  C1253    1.0000 0.38217  0.05040  0.11734  Biso   1.000  C
  C1254    1.0000 0.37941  0.06558  0.12251  Biso   1.000  C
  C1255    1.0000 0.83112  0.07503  0.58870  Biso   1.000  C
  C1256    1.0000 0.84062  0.08430  0.59799  Biso   1.000  C
  C1257    1.0000 0.36074  0.02010  0.06127  Biso   1.000  C
  C1258    1.0000 0.33278  0.00781  0.07233  Biso   1.000  C
  C1259    1.0000 0.34685  0.00131  0.07689  Biso   1.000  C
  C1260    1.0000 0.16709  0.18932  0.22920  Biso   1.000  C
  C1261    1.0000 0.26784  0.25437  0.20728  Biso   1.000  C
  C1262    1.0000 0.25359  0.24229  0.18632  Biso   1.000  C
  C1263    1.0000 0.41393  0.53701  0.52534  Biso   1.000  C
  C1264    1.0000 0.41040  0.55667  0.61489  Biso   1.000  C
  C1265    1.0000 0.38305  0.55078  0.61588  Biso   1.000  C
  C1266    1.0000 0.38004  0.56581  0.62128  Biso   1.000  C
  C1267    1.0000 0.82181  0.57544  0.09688  Biso   1.000  C
  C1268    1.0000 0.36112  0.52008  0.56132  Biso   1.000  C
  C1269    1.0000 0.33353  0.50704  0.57226  Biso   1.000  C
  C1270    1.0000 0.34772  0.50077  0.57672  Biso   1.000  C
  C1271    1.0000 0.12712  0.63963  0.58006  Biso   1.000  C
  C1272    1.0000 0.57760  0.05749  0.74366  Biso   1.000  C
  C1273    1.0000 0.49505  0.00777  0.70826  Biso   1.000  C
  C1274    1.0000 0.48278  0.99640  0.68573  Biso   1.000  C
  C1275    1.0000 0.32223  0.69771  0.04038  Biso   1.000  C
  C1276    1.0000 0.33920  0.71351  0.02462  Biso   1.000  C
  C1277    1.0000 0.34520  0.67380  0.11270  Biso   1.000  C
  C1278    1.0000 0.36292  0.69948  0.12130  Biso   1.000  C
  C1279    1.0000 0.36717  0.68468  0.12624  Biso   1.000  C
  C1280    1.0000 0.92132  0.66136  0.60574  Biso   1.000  C
  C1281    1.0000 0.40385  0.73174  0.05278  Biso   1.000  C
  C1282    1.0000 0.39014  0.73823  0.05846  Biso   1.000  C
  C1283    1.0000 0.41662  0.73768  0.07713  Biso   1.000  C
  C1284    1.0000 0.12463  0.13538  0.08000  Biso   1.000  C
  C1285    1.0000 0.58593  0.56681  0.23121  Biso   1.000  C
  C1286    1.0000 0.48879  0.49789  0.21194  Biso   1.000  C
  C1287    1.0000 0.49044  0.50101  0.18406  Biso   1.000  C
  C1288    1.0000 0.31773  0.20355  0.53500  Biso   1.000  C
  C1289    1.0000 0.34538  0.20680  0.53197  Biso   1.000  C
  C1290    1.0000 0.34767  0.17474  0.60653  Biso   1.000  C
  C1291    1.0000 0.35720  0.20016  0.62403  Biso   1.000  C
  C1292    1.0000 0.36042  0.18511  0.62920  Biso   1.000  C
  C1293    1.0000 0.92574  0.15422  0.10498  Biso   1.000  C
  C1294    1.0000 0.40360  0.23192  0.55283  Biso   1.000  C
  C1295    1.0000 0.39001  0.23870  0.55840  Biso   1.000  C
  C1296    1.0000 0.41636  0.23762  0.57721  Biso   1.000  C
  C1297    1.0000 0.62659  0.63639  0.08118  Biso   1.000  C
  C1298    1.0000 0.08084  0.07543  0.24986  Biso   1.000  C
  C1299    1.0000 0.99406  0.00546  0.20969  Biso   1.000  C
  C1300    1.0000 0.82069  0.69690  0.54182  Biso   1.000  C
  C1301    1.0000 0.83760  0.71321  0.52655  Biso   1.000  C
  C1302    1.0000 0.84507  0.67559  0.61809  Biso   1.000  C
  C1303    1.0000 0.86665  0.69972  0.61827  Biso   1.000  C
  C1304    1.0000 0.87083  0.68499  0.62360  Biso   1.000  C
  C1305    1.0000 0.42114  0.66133  0.10595  Biso   1.000  C
  C1306    1.0000 0.90170  0.72617  0.55300  Biso   1.000  C
  C1307    1.0000 0.88780  0.73270  0.55804  Biso   1.000  C
  C1308    1.0000 0.91567  0.74083  0.57245  Biso   1.000  C
  C1309    1.0000 0.62588  0.13706  0.57981  Biso   1.000  C
  C1310    1.0000 0.07938  0.55754  0.74357  Biso   1.000  C
  C1311    1.0000 0.98066  0.49127  0.70240  Biso   1.000  C
  C1312    1.0000 0.99992  0.51071  0.69623  Biso   1.000  C
  C1313    1.0000 0.81846  0.20385  0.03343  Biso   1.000  C
  C1314    1.0000 0.84597  0.20781  0.03005  Biso   1.000  C
  C1315    1.0000 0.84286  0.17553  0.11609  Biso   1.000  C
  C1316    1.0000 0.86409  0.19994  0.11740  Biso   1.000  C
  C1317    1.0000 0.86844  0.18508  0.12224  Biso   1.000  C
  C1318    1.0000 0.40616  0.16597  0.59584  Biso   1.000  C
  C1319    1.0000 0.90703  0.23691  0.05483  Biso   1.000  C
  C1320    1.0000 0.89312  0.24339  0.05999  Biso   1.000  C
  C1321    1.0000 0.91538  0.23374  0.08150  Biso   1.000  C
  C1322    1.0000 0.63050  0.60735  0.18190  Biso   1.000  C
  C1323    1.0000 0.07632  0.19141  0.00608  Biso   1.000  C
  C1324    1.0000 0.99393  0.24222  0.06453  Biso   1.000  C
  C1325    1.0000 0.82002  0.55217  0.70978  Biso   1.000  C
  C1326    1.0000 0.84016  0.53780  0.72292  Biso   1.000  C
  C1327    1.0000 0.84043  0.55597  0.63051  Biso   1.000  C
  C1328    1.0000 0.86635  0.55264  0.64049  Biso   1.000  C
  C1329    1.0000 0.87005  0.56762  0.63561  Biso   1.000  C
  C1330    1.0000 0.43169  0.57829  0.15270  Biso   1.000  C
  C1331    1.0000 0.88846  0.52028  0.68765  Biso   1.000  C
  C1332    1.0000 0.91610  0.50725  0.67668  Biso   1.000  C
  C1333    1.0000 0.90186  0.50113  0.67208  Biso   1.000  C
  C1334    1.0000 0.62845  0.11053  0.67645  Biso   1.000  C
  C1335    1.0000 0.08426  0.68044  0.50327  Biso   1.000  C
  C1336    1.0000 0.97985  0.75581  0.54378  Biso   1.000  C
  C1337    1.0000 0.99398  0.74289  0.56434  Biso   1.000  C
  C1338    1.0000 0.84057  0.03854  0.22398  Biso   1.000  C
  C1339    1.0000 0.83810  0.05916  0.14063  Biso   1.000  C
  C1340    1.0000 0.86137  0.04932  0.12868  Biso   1.000  C
  C1341    1.0000 0.86517  0.06431  0.12377  Biso   1.000  C
  C1342    1.0000 0.43313  0.08298  0.65339  Biso   1.000  C
  C1343    1.0000 0.89557  0.00348  0.18785  Biso   1.000  C
  C1344    1.0000 0.91269  0.02326  0.16882  Biso   1.000  C
  C1345    1.0000 0.89863  0.01754  0.16376  Biso   1.000  C
  C1346    1.0000 0.58181  0.17640  0.50198  Biso   1.000  C
  C1347    1.0000 0.48078  0.25524  0.54378  Biso   1.000  C
  C1348    1.0000 0.49680  0.24064  0.56161  Biso   1.000  C
  C1349    1.0000 0.33339  0.55627  0.20544  Biso   1.000  C
  C1350    1.0000 0.32799  0.53712  0.22517  Biso   1.000  C
  C1351    1.0000 0.34082  0.55516  0.13070  Biso   1.000  C
  C1352    1.0000 0.36737  0.55104  0.13846  Biso   1.000  C
  C1353    1.0000 0.37107  0.56602  0.13351  Biso   1.000  C
  C1354    1.0000 0.92757  0.57459  0.65320  Biso   1.000  C
  C1355    1.0000 0.39109  0.51182  0.19245  Biso   1.000  C
  C1356    1.0000 0.41622  0.51176  0.17198  Biso   1.000  C
  C1357    1.0000 0.40190  0.50618  0.16713  Biso   1.000  C
  C1358    1.0000 0.12488  0.11395  0.16948  Biso   1.000  C
  C1359    1.0000 0.58430  0.67871  0.00260  Biso   1.000  C
  C1360    1.0000 0.48165  0.75580  0.04411  Biso   1.000  C
  C1361    1.0000 0.49224  0.74555  0.06798  Biso   1.000  C
  C1362    1.0000 0.32077  0.05317  0.70836  Biso   1.000  C
  C1363    1.0000 0.33542  0.03657  0.72554  Biso   1.000  C
  C1364    1.0000 0.34240  0.05978  0.64589  Biso   1.000  C
  C1365    1.0000 0.34623  0.07487  0.64130  Biso   1.000  C
  C1366    1.0000 0.36204  0.04964  0.62875  Biso   1.000  C
  C1367    1.0000 0.93509  0.08523  0.15318  Biso   1.000  C
  C1368    1.0000 0.92520  0.09398  0.14372  Biso   1.000  C
  C1369    1.0000 0.41128  0.00699  0.69211  Biso   1.000  C
  C1370    1.0000 0.39682  0.00112  0.68778  Biso   1.000  C
  C1371    1.0000 0.40390  0.03225  0.68228  Biso   1.000  C
  C1372    1.0000 0.62147  0.13972  0.68853  Biso   1.000  C
  C1373    1.0000 0.16972  0.55948  0.50509  Biso   1.000  C
  C1374    1.0000 0.16605  0.56313  0.52032  Biso   1.000  C
  C1375    1.0000 0.26140  0.49969  0.53880  Biso   1.000  C
  C1376    1.0000 0.26002  0.50209  0.56672  Biso   1.000  C
  C1377    1.0000 0.42950  0.19568  0.20719  Biso   1.000  C
  C1378    1.0000 0.41325  0.21208  0.22310  Biso   1.000  C
  C1379    1.0000 0.39606  0.17483  0.14412  Biso   1.000  C
  C1380    1.0000 0.39240  0.19886  0.12275  Biso   1.000  C
  C1381    1.0000 0.38967  0.18350  0.11818  Biso   1.000  C
  C1382    1.0000 0.83667  0.16638  0.64579  Biso   1.000  C
  C1383    1.0000 0.34704  0.22308  0.19297  Biso   1.000  C
  C1384    1.0000 0.36105  0.22947  0.18816  Biso   1.000  C
  C1385    1.0000 0.33308  0.24183  0.17734  Biso   1.000  C
  C1386    1.0000 0.62282  0.63840  0.18670  Biso   1.000  C
  C1387    1.0000 0.16671  0.06039  0.00495  Biso   1.000  C
  C1388    1.0000 0.26871  0.99293  0.04574  Biso   1.000  C
  C1389    1.0000 0.24983  0.01142  0.05516  Biso   1.000  C
  C1390    1.0000 0.40867  0.71120  0.72250  Biso   1.000  C
  C1391    1.0000 0.39921  0.69044  0.64933  Biso   1.000  C
  C1392    1.0000 0.39720  0.69810  0.62240  Biso   1.000  C
  C1393    1.0000 0.39364  0.68280  0.61828  Biso   1.000  C
  C1394    1.0000 0.83078  0.67434  0.15972  Biso   1.000  C
  C1395    1.0000 0.35357  0.74850  0.68670  Biso   1.000  C
  C1396    1.0000 0.33594  0.72765  0.66929  Biso   1.000  C
  C1397    1.0000 0.35034  0.73233  0.66394  Biso   1.000  C
  C1398    1.0000 0.12558  0.13668  0.19258  Biso   1.000  C
  C1399    1.0000 0.66764  0.56084  0.00469  Biso   1.000  C
  C1400    1.0000 0.76137  0.49804  0.03901  Biso   1.000  C
  C1401    1.0000 0.76125  0.50033  0.06699  Biso   1.000  C
  C1402    1.0000 0.92952  0.19746  0.70792  Biso   1.000  C
  C1403    1.0000 0.91231  0.21336  0.72334  Biso   1.000  C
  C1404    1.0000 0.89650  0.17541  0.64419  Biso   1.000  C
  C1405    1.0000 0.89259  0.19936  0.62276  Biso   1.000  C
  C1406    1.0000 0.88998  0.18396  0.61823  Biso   1.000  C
  C1407    1.0000 0.33651  0.16614  0.14530  Biso   1.000  C
  C1408    1.0000 0.84653  0.22362  0.69254  Biso   1.000  C
  C1409    1.0000 0.86047  0.23000  0.68761  Biso   1.000  C
  C1410    1.0000 0.83242  0.24203  0.67667  Biso   1.000  C
  C1411    1.0000 0.12446  0.63594  0.68899  Biso   1.000  C
  C1412    1.0000 0.66835  0.06005  0.50448  Biso   1.000  C
  C1413    1.0000 0.76602  0.99691  0.54093  Biso   1.000  C
  C1414    1.0000 0.75364  0.00817  0.56347  Biso   1.000  C
  C1415    1.0000 0.93028  0.69631  0.20839  Biso   1.000  C
  C1416    1.0000 0.91223  0.71179  0.22324  Biso   1.000  C
  C1417    1.0000 0.89747  0.67426  0.14446  Biso   1.000  C
  C1418    1.0000 0.89189  0.69855  0.12384  Biso   1.000  C
  C1419    1.0000 0.88918  0.68320  0.11918  Biso   1.000  C
  C1420    1.0000 0.34265  0.66535  0.65260  Biso   1.000  C
  C1421    1.0000 0.84757  0.72356  0.19381  Biso   1.000  C
  C1422    1.0000 0.86154  0.73012  0.18914  Biso   1.000  C
  C1423    1.0000 0.83357  0.74124  0.17707  Biso   1.000  C
  C1424    1.0000 0.24731  0.66495  0.68547  Biso   1.000  C
  C1425    1.0000 0.23173  0.66214  0.68239  Biso   1.000  C
  C1426    1.0000 0.18918  0.75036  0.73833  Biso   1.000  C
  C1427    1.0000 0.52678  0.91057  0.03754  Biso   1.000  C
  C1428    1.0000 0.60266  0.90457  0.05982  Biso   1.000  C
  C1429    1.0000 0.62465  0.88991  0.05074  Biso   1.000  C
  C1430    1.0000 0.62915  0.88713  0.06614  Biso   1.000  C
  C1431    1.0000 0.09599  0.31897  0.07819  Biso   1.000  C
  C1432    1.0000 0.55298  0.84374  0.01815  Biso   1.000  C
  C1433    1.0000 0.57824  0.83221  0.01406  Biso   1.000  C
  C1434    1.0000 0.58358  0.84620  0.00804  Biso   1.000  C
  C1435    1.0000 0.06613  0.61986  0.60882  Biso   1.000  C
  C1436    1.0000 0.24649  0.16579  0.18145  Biso   1.000  C
  C1437    1.0000 0.23084  0.16322  0.17853  Biso   1.000  C
  C1438    1.0000 0.19136  0.25106  0.23989  Biso   1.000  C
  C1439    1.0000 0.53820  0.42726  0.55203  Biso   1.000  C
  C1440    1.0000 0.52637  0.40526  0.53943  Biso   1.000  C
  C1441    1.0000 0.60773  0.40716  0.55979  Biso   1.000  C
  C1442    1.0000 0.61336  0.40320  0.57458  Biso   1.000  C
  C1443    1.0000 0.62340  0.38688  0.54847  Biso   1.000  C
  C1444    1.0000 0.09409  0.82313  0.57739  Biso   1.000  C
  C1445    1.0000 0.10322  0.83219  0.58729  Biso   1.000  C
  C1446    1.0000 0.55406  0.34252  0.51384  Biso   1.000  C
  C1447    1.0000 0.55957  0.35644  0.50773  Biso   1.000  C
  C1448    1.0000 0.58591  0.34731  0.51091  Biso   1.000  C
  C1449    1.0000 0.74752  0.66470  0.18168  Biso   1.000  C
  C1450    1.0000 0.73187  0.66191  0.17889  Biso   1.000  C
  C1451    1.0000 0.68971  0.75038  0.23928  Biso   1.000  C
  C1452    1.0000 0.02676  0.90997  0.53797  Biso   1.000  C
  C1453    1.0000 0.11024  0.90846  0.55912  Biso   1.000  C
  C1454    1.0000 0.11594  0.90457  0.57393  Biso   1.000  C
  C1455    1.0000 0.11947  0.88396  0.54918  Biso   1.000  C
  C1456    1.0000 0.58514  0.33224  0.57570  Biso   1.000  C
  C1457    1.0000 0.05234  0.84486  0.51758  Biso   1.000  C
  C1458    1.0000 0.05820  0.85845  0.51111  Biso   1.000  C
  C1459    1.0000 0.07663  0.83180  0.51222  Biso   1.000  C
  C1460    1.0000 0.74525  0.16711  0.68291  Biso   1.000  C
  C1461    1.0000 0.72992  0.16462  0.67869  Biso   1.000  C
  C1462    1.0000 0.69136  0.25062  0.73887  Biso   1.000  C
  C1463    1.0000 0.04012  0.42847  0.05257  Biso   1.000  C
  C1464    1.0000 0.02803  0.40666  0.03993  Biso   1.000  C
  C1465    1.0000 0.10790  0.40682  0.06015  Biso   1.000  C
  C1466    1.0000 0.11313  0.40304  0.07511  Biso   1.000  C
  C1467    1.0000 0.12662  0.38911  0.04916  Biso   1.000  C
  C1468    1.0000 0.58700  0.83196  0.07604  Biso   1.000  C
  C1469    1.0000 0.05587  0.33988  0.01108  Biso   1.000  C
  C1470    1.0000 0.06109  0.35422  0.00564  Biso   1.000  C
  C1471    1.0000 0.08724  0.34758  0.01341  Biso   1.000  C
  C1472    1.0000 0.56753  0.12936  0.64081  Biso   1.000  C
  C1473    1.0000 0.74835  0.57947  0.07378  Biso   1.000  C
  C1474    1.0000 0.73290  0.58322  0.07631  Biso   1.000  C
  C1475    1.0000 0.70800  0.48363  0.99565  Biso   1.000  C
  C1476    1.0000 0.03790  0.31975  0.69895  Biso   1.000  C
  C1477    1.0000 0.02694  0.34219  0.71159  Biso   1.000  C
  C1478    1.0000 0.11375  0.34018  0.69201  Biso   1.000  C
  C1479    1.0000 0.11899  0.34426  0.67709  Biso   1.000  C
  C1480    1.0000 0.11692  0.36669  0.70040  Biso   1.000  C
  C1481    1.0000 0.59442  0.92566  0.67402  Biso   1.000  C
  C1482    1.0000 0.60413  0.91720  0.66415  Biso   1.000  C
  C1483    1.0000 0.06091  0.41182  0.74599  Biso   1.000  C
  C1484    1.0000 0.06475  0.39714  0.75153  Biso   1.000  C
  C1485    1.0000 0.06973  0.40430  0.72031  Biso   1.000  C
  C1486    1.0000 0.56992  0.62918  0.14047  Biso   1.000  C
  C1487    1.0000 0.74298  0.07864  0.55791  Biso   1.000  C
  C1488    1.0000 0.72751  0.08087  0.56143  Biso   1.000  C
  C1489    1.0000 0.70191  0.98171  0.49252  Biso   1.000  C
  C1490    1.0000 0.03971  0.82017  0.19930  Biso   1.000  C
  C1491    1.0000 0.02903  0.84354  0.21027  Biso   1.000  C
  C1492    1.0000 0.11395  0.83995  0.19096  Biso   1.000  C
  C1493    1.0000 0.11871  0.84355  0.17576  Biso   1.000  C
  C1494    1.0000 0.12292  0.86499  0.19973  Biso   1.000  C
  C1495    1.0000 0.60705  0.42048  0.16376  Biso   1.000  C
  C1496    1.0000 0.05461  0.90740  0.23614  Biso   1.000  C
  C1497    1.0000 0.06039  0.89348  0.24195  Biso   1.000  C
  C1498    1.0000 0.08078  0.91640  0.23166  Biso   1.000  C
  C1499    1.0000 0.07011  0.12898  0.13919  Biso   1.000  C
  C1500    1.0000 0.23004  0.58343  0.56231  Biso   1.000  C
  C1501    1.0000 0.20997  0.48687  0.50014  Biso   1.000  C
  C1502    1.0000 0.53956  0.31959  0.19785  Biso   1.000  C
  C1503    1.0000 0.52754  0.34143  0.21053  Biso   1.000  C
  C1504    1.0000 0.60689  0.35085  0.17685  Biso   1.000  C
  C1505    1.0000 0.62659  0.35748  0.20169  Biso   1.000  C
  C1506    1.0000 0.63130  0.36078  0.18645  Biso   1.000  C
  C1507    1.0000 0.09526  0.92553  0.17251  Biso   1.000  C
  C1508    1.0000 0.10487  0.91676  0.16285  Biso   1.000  C
  C1509    1.0000 0.55446  0.40662  0.23876  Biso   1.000  C
  C1510    1.0000 0.55897  0.39198  0.24409  Biso   1.000  C
  C1511    1.0000 0.58035  0.41085  0.22877  Biso   1.000  C
  C1512    1.0000 0.06801  0.62798  0.64009  Biso   1.000  C
  C1513    1.0000 0.24267  0.07830  0.05809  Biso   1.000  C
  C1514    1.0000 0.22731  0.08076  0.06199  Biso   1.000  C
  C1515    1.0000 0.54448  0.82574  0.69521  Biso   1.000  C
  C1516    1.0000 0.61387  0.84164  0.69189  Biso   1.000  C
  C1517    1.0000 0.61865  0.84567  0.67682  Biso   1.000  C
  C1518    1.0000 0.62004  0.86743  0.70076  Biso   1.000  C
  C1519    1.0000 0.10569  0.42078  0.66267  Biso   1.000  C
  C1520    1.0000 0.55405  0.90272  0.72638  Biso   1.000  C
  C1521    1.0000 0.55914  0.88891  0.73296  Biso   1.000  C
  C1522    1.0000 0.57280  0.91701  0.74167  Biso   1.000  C
  C1523    1.0000 0.17991  0.62745  0.61008  Biso   1.000  C
  C1524    1.0000 0.00505  0.08014  0.18943  Biso   1.000  C
  C1525    1.0000 0.02043  0.08360  0.18607  Biso   1.000  C
  C1526    1.0000 0.04569  0.98335  0.25311  Biso   1.000  C
  C1527    1.0000 0.70901  0.82316  0.55318  Biso   1.000  C
  C1528    1.0000 0.72365  0.84217  0.53882  Biso   1.000  C
  C1529    1.0000 0.63227  0.84415  0.57530  Biso   1.000  C
  C1530    1.0000 0.63050  0.86487  0.55045  Biso   1.000  C
  C1531    1.0000 0.62531  0.86930  0.56513  Biso   1.000  C
  C1532    1.0000 0.15327  0.42545  0.57585  Biso   1.000  C
  C1533    1.0000 0.14387  0.41661  0.58570  Biso   1.000  C
  C1534    1.0000 0.69649  0.90509  0.51515  Biso   1.000  C
  C1535    1.0000 0.69054  0.89134  0.50904  Biso   1.000  C
  C1536    1.0000 0.67110  0.91692  0.51313  Biso   1.000  C
  C1537    1.0000 0.17790  0.12673  0.11024  Biso   1.000  C
  C1538    1.0000 0.00830  0.57392  0.69323  Biso   1.000  C
  C1539    1.0000 0.02345  0.57714  0.68897  Biso   1.000  C
  C1540    1.0000 0.04229  0.49451  0.74544  Biso   1.000  C
  C1541    1.0000 0.71000  0.32084  0.05134  Biso   1.000  C
  C1542    1.0000 0.64520  0.35174  0.07587  Biso   1.000  C
  C1543    1.0000 0.62449  0.35605  0.05140  Biso   1.000  C
  C1544    1.0000 0.61989  0.35941  0.06663  Biso   1.000  C
  C1545    1.0000 0.15545  0.93642  0.08552  Biso   1.000  C
  C1546    1.0000 0.69466  0.40595  0.01574  Biso   1.000  C
  C1547    1.0000 0.68946  0.39199  0.00935  Biso   1.000  C
  C1548    1.0000 0.66862  0.41635  0.01419  Biso   1.000  C
  C1549    1.0000 0.67976  0.62672  0.11028  Biso   1.000  C
  C1550    1.0000 0.50449  0.07863  0.69025  Biso   1.000  C
  C1551    1.0000 0.51991  0.08194  0.68695  Biso   1.000  C
  C1552    1.0000 0.53884  0.98594  0.75080  Biso   1.000  C
  C1553    1.0000 0.20816  0.82453  0.05513  Biso   1.000  C
  C1554    1.0000 0.22570  0.83626  0.03680  Biso   1.000  C
  C1555    1.0000 0.13115  0.84326  0.07256  Biso   1.000  C
  C1556    1.0000 0.13248  0.86558  0.04911  Biso   1.000  C
  C1557    1.0000 0.12756  0.86965  0.06402  Biso   1.000  C
  C1558    1.0000 0.65330  0.43058  0.07983  Biso   1.000  C
  C1559    1.0000 0.17089  0.90937  0.02453  Biso   1.000  C
  C1560    1.0000 0.16661  0.89515  0.01840  Biso   1.000  C
  C1561    1.0000 0.19378  0.90952  0.00821  Biso   1.000  C
  C1562    1.0000 0.68235  0.12750  0.60961  Biso   1.000  C
  C1563    1.0000 0.50373  0.58013  0.18746  Biso   1.000  C
  C1564    1.0000 0.51925  0.58343  0.18458  Biso   1.000  C
  C1565    1.0000 0.53885  0.49179  0.24654  Biso   1.000  C
  C1566    1.0000 0.20779  0.32452  0.55606  Biso   1.000  C
  C1567    1.0000 0.13028  0.34311  0.57447  Biso   1.000  C
  C1568    1.0000 0.13108  0.36511  0.55070  Biso   1.000  C
  C1569    1.0000 0.12594  0.36924  0.56548  Biso   1.000  C
  C1570    1.0000 0.65472  0.92576  0.57516  Biso   1.000  C
  C1571    1.0000 0.64526  0.91714  0.58515  Biso   1.000  C
  C1572    1.0000 0.19465  0.40277  0.52463  Biso   1.000  C
  C1573    1.0000 0.18982  0.38866  0.51850  Biso   1.000  C
  C1574    1.0000 0.17558  0.41621  0.50897  Biso   1.000  C
  C1575    1.0000 0.69059  0.62139  0.14040  Biso   1.000  C
  C1576    1.0000 0.50368  0.16736  0.56125  Biso   1.000  C
  C1577    1.0000 0.51902  0.16413  0.56506  Biso   1.000  C
  C1578    1.0000 0.56464  0.25225  0.50824  Biso   1.000  C
  C1579    1.0000 0.22426  0.41049  0.21180  Biso   1.000  C
  C1580    1.0000 0.14096  0.40821  0.19039  Biso   1.000  C
  C1581    1.0000 0.13554  0.40414  0.17555  Biso   1.000  C
  C1582    1.0000 0.13077  0.38427  0.20068  Biso   1.000  C
  C1583    1.0000 0.66118  0.83022  0.17484  Biso   1.000  C
  C1584    1.0000 0.65160  0.83945  0.16564  Biso   1.000  C
  C1585    1.0000 0.19688  0.34562  0.23254  Biso   1.000  C
  C1586    1.0000 0.19144  0.35935  0.23902  Biso   1.000  C
  C1587    1.0000 0.17358  0.33236  0.24093  Biso   1.000  C
  C1588    1.0000 0.68519  0.12048  0.64112  Biso   1.000  C
  C1589    1.0000 0.50364  0.66651  0.06493  Biso   1.000  C
  C1590    1.0000 0.51900  0.66286  0.06845  Biso   1.000  C
  C1591    1.0000 0.56559  0.75376  0.00868  Biso   1.000  C
  C1592    1.0000 0.20661  0.92751  0.69529  Biso   1.000  C
  C1593    1.0000 0.22407  0.91397  0.71252  Biso   1.000  C
  C1594    1.0000 0.13739  0.91031  0.69200  Biso   1.000  C
  C1595    1.0000 0.12938  0.88469  0.69988  Biso   1.000  C
  C1596    1.0000 0.12427  0.88176  0.68476  Biso   1.000  C
  C1597    1.0000 0.65516  0.32615  0.67448  Biso   1.000  C
  C1598    1.0000 0.64544  0.33451  0.66449  Biso   1.000  C
  C1599    1.0000 0.19448  0.84567  0.72541  Biso   1.000  C
  C1600    1.0000 0.18957  0.85969  0.73168  Biso   1.000  C
  C1601    1.0000 0.17646  0.83185  0.74196  Biso   1.000  C
  C1602    1.0000 0.19056  0.62140  0.64010  Biso   1.000  C
  C1603    1.0000 0.00208  0.16706  0.06460  Biso   1.000  C
  C1604    1.0000 0.01762  0.16354  0.06725  Biso   1.000  C
  C1605    1.0000 0.03694  0.25947  0.00081  Biso   1.000  C
  C1606    1.0000 0.06494  0.26002  0.00077  Biso   1.000  C
  C1607    1.0000 0.72388  0.41010  0.71081  Biso   1.000  C
  C1608    1.0000 0.64008  0.40896  0.68952  Biso   1.000  C
  C1609    1.0000 0.63460  0.40486  0.67469  Biso   1.000  C
  C1610    1.0000 0.62977  0.38510  0.69990  Biso   1.000  C
  C1611    1.0000 0.15320  0.82514  0.67534  Biso   1.000  C
  C1612    1.0000 0.69603  0.34571  0.73135  Biso   1.000  C
  C1613    1.0000 0.69055  0.35953  0.73764  Biso   1.000  C
  C1614    1.0000 0.67285  0.33248  0.74015  Biso   1.000  C
  C1615    1.0000 0.18741  0.12197  0.14087  Biso   1.000  C
  C1616    1.0000 0.00782  0.67466  0.55702  Biso   1.000  C
  C1617    1.0000 0.02286  0.67139  0.56158  Biso   1.000  C
  C1618    1.0000 0.06433  0.75426  0.50886  Biso   1.000  C
  C1619    1.0000 0.70911  0.92695  0.19734  Biso   1.000  C
  C1620    1.0000 0.72549  0.91104  0.21357  Biso   1.000  C
  C1621    1.0000 0.64967  0.89717  0.19181  Biso   1.000  C
  C1622    1.0000 0.62318  0.89471  0.20057  Biso   1.000  C
  C1623    1.0000 0.61850  0.89098  0.18541  Biso   1.000  C
  C1624    1.0000 0.15577  0.32603  0.17467  Biso   1.000  C
  C1625    1.0000 0.14625  0.33444  0.16453  Biso   1.000  C
  C1626    1.0000 0.69721  0.84427  0.23233  Biso   1.000  C
  C1627    1.0000 0.69167  0.85804  0.23874  Biso   1.000  C
  C1628    1.0000 0.67285  0.83168  0.23839  Biso   1.000  C
  C1629    1.0000 0.10854  0.06789  0.12287  Biso   1.000  C
  C1630    1.0000 0.68772  0.24507  0.66869  Biso   1.000  C
  C1631    1.0000 0.68399  0.22971  0.66558  Biso   1.000  C
  C1632    1.0000 0.75368  0.18566  0.76543  Biso   1.000  C
  C1633    1.0000 0.03903  0.52699  0.91287  Biso   1.000  C
  C1634    1.0000 0.05857  0.61384  0.91356  Biso   1.000  C
  C1635    1.0000 0.05121  0.61782  0.88680  Biso   1.000  C
  C1636    1.0000 0.06622  0.62296  0.88342  Biso   1.000  C
  C1637    1.0000 0.07938  0.09594  0.31825  Biso   1.000  C
  C1638    1.0000 0.08886  0.10556  0.32722  Biso   1.000  C
  C1639    1.0000 0.01144  0.55369  0.84240  Biso   1.000  C
  C1640    1.0000 0.01948  0.57981  0.83602  Biso   1.000  C
  C1641    1.0000 0.01407  0.58490  0.85029  Biso   1.000  C
  C1642    1.0000 0.69028  0.74350  0.16941  Biso   1.000  C
  C1643    1.0000 0.68667  0.72836  0.16562  Biso   1.000  C
  C1644    1.0000 0.74050  0.70797  0.25135  Biso   1.000  C
  C1645    1.0000 0.75293  0.68658  0.26463  Biso   1.000  C
  C1646    1.0000 0.05371  0.04119  0.42656  Biso   1.000  C
  C1647    1.0000 0.07532  0.10956  0.40344  Biso   1.000  C
  C1648    1.0000 0.04978  0.12300  0.38903  Biso   1.000  C
  C1649    1.0000 0.06477  0.12808  0.38533  Biso   1.000  C
  C1650    1.0000 0.07504  0.58914  0.83167  Biso   1.000  C
  C1651    1.0000 0.08416  0.59863  0.84111  Biso   1.000  C
  C1652    1.0000 0.00895  0.05720  0.35847  Biso   1.000  C
  C1653    1.0000 0.01195  0.07710  0.33311  Biso   1.000  C
  C1654    1.0000 0.00646  0.08276  0.34714  Biso   1.000  C
  C1655    1.0000 0.60819  0.07107  0.62194  Biso   1.000  C
  C1656    1.0000 0.19082  0.24479  0.16997  Biso   1.000  C
  C1657    1.0000 0.18688  0.22982  0.16571  Biso   1.000  C
  C1658    1.0000 0.25283  0.18461  0.26432  Biso   1.000  C
  C1659    1.0000 0.54974  0.53907  0.43161  Biso   1.000  C
  C1660    1.0000 0.56022  0.60872  0.41019  Biso   1.000  C
  C1661    1.0000 0.57526  0.61383  0.40691  Biso   1.000  C
  C1662    1.0000 0.55087  0.62171  0.38722  Biso   1.000  C
  C1663    1.0000 0.57539  0.09375  0.82642  Biso   1.000  C
  C1664    1.0000 0.58511  0.10361  0.83491  Biso   1.000  C
  C1665    1.0000 0.51773  0.55363  0.34627  Biso   1.000  C
  C1666    1.0000 0.51142  0.55943  0.35997  Biso   1.000  C
  C1667    1.0000 0.51213  0.57798  0.33336  Biso   1.000  C
  C1668    1.0000 0.18968  0.74355  0.66937  Biso   1.000  C
  C1669    1.0000 0.18647  0.72815  0.66626  Biso   1.000  C
  C1670    1.0000 0.24083  0.70729  0.75162  Biso   1.000  C
  C1671    1.0000 0.25523  0.68793  0.76593  Biso   1.000  C
  C1672    1.0000 0.55458  0.04087  0.92608  Biso   1.000  C
  C1673    1.0000 0.55652  0.11411  0.90936  Biso   1.000  C
  C1674    1.0000 0.54963  0.11504  0.88225  Biso   1.000  C
  C1675    1.0000 0.56461  0.12009  0.87865  Biso   1.000  C
  C1676    1.0000 0.57588  0.59524  0.32551  Biso   1.000  C
  C1677    1.0000 0.58550  0.60469  0.33452  Biso   1.000  C
  C1678    1.0000 0.52030  0.06141  0.86190  Biso   1.000  C
  C1679    1.0000 0.50894  0.07308  0.83385  Biso   1.000  C
  C1680    1.0000 0.50235  0.07779  0.84779  Biso   1.000  C
  C1681    1.0000 0.63596  0.55800  0.12602  Biso   1.000  C
  C1682    1.0000 0.06253  0.73008  0.58680  Biso   1.000  C
  C1683    1.0000 0.99791  0.68615  0.48432  Biso   1.000  C
  C1684    1.0000 0.69912  0.03978  0.31973  Biso   1.000  C
  C1685    1.0000 0.71092  0.02832  0.34240  Biso   1.000  C
  C1686    1.0000 0.69045  0.10917  0.34115  Biso   1.000  C
  C1687    1.0000 0.67573  0.11501  0.34483  Biso   1.000  C
  C1688    1.0000 0.70086  0.12130  0.36424  Biso   1.000  C
  C1689    1.0000 0.66235  0.59484  0.93677  Biso   1.000  C
  C1690    1.0000 0.74346  0.06095  0.41298  Biso   1.000  C
  C1691    1.0000 0.74941  0.06540  0.39857  Biso   1.000  C
  C1692    1.0000 0.71819  0.07068  0.40544  Biso   1.000  C
  C1693    1.0000 0.63863  0.06258  0.62887  Biso   1.000  C
  C1694    1.0000 0.06526  0.22827  0.08406  Biso   1.000  C
  C1695    1.0000 0.00583  0.18212  0.99479  Biso   1.000  C
  C1696    1.0000 0.69842  0.53975  0.81941  Biso   1.000  C
  C1697    1.0000 0.71061  0.52765  0.84153  Biso   1.000  C
  C1698    1.0000 0.69068  0.60909  0.84065  Biso   1.000  C
  C1699    1.0000 0.67588  0.61480  0.84430  Biso   1.000  C
  C1700    1.0000 0.70097  0.62142  0.86367  Biso   1.000  C
  C1701    1.0000 0.66176  0.09521  0.43647  Biso   1.000  C
  C1702    1.0000 0.74304  0.55983  0.91295  Biso   1.000  C
  C1703    1.0000 0.74887  0.56417  0.89847  Biso   1.000  C
  C1704    1.0000 0.71781  0.56988  0.90571  Biso   1.000  C
  C1705    1.0000 0.13584  0.55744  0.62355  Biso   1.000  C
  C1706    1.0000 0.56735  0.72954  0.08741  Biso   1.000  C
  C1707    1.0000 0.49775  0.68670  0.98458  Biso   1.000  C
  C1708    1.0000 0.19532  0.04424  0.82310  Biso   1.000  C
  C1709    1.0000 0.21215  0.02581  0.83581  Biso   1.000  C
  C1710    1.0000 0.19092  0.10194  0.84907  Biso   1.000  C
  C1711    1.0000 0.17572  0.10692  0.85175  Biso   1.000  C
  C1712    1.0000 0.20045  0.12709  0.85680  Biso   1.000  C
  C1713    1.0000 0.17557  0.59365  0.42184  Biso   1.000  C
  C1714    1.0000 0.24270  0.06040  0.91366  Biso   1.000  C
  C1715    1.0000 0.24878  0.06421  0.89915  Biso   1.000  C
  C1716    1.0000 0.21753  0.07000  0.90562  Biso   1.000  C
  C1717    1.0000 0.13948  0.06203  0.13025  Biso   1.000  C
  C1718    1.0000 0.56603  0.22958  0.58595  Biso   1.000  C
  C1719    1.0000 0.50898  0.20558  0.49759  Biso   1.000  C
  C1720    1.0000 0.49457  0.18618  0.48326  Biso   1.000  C
  C1721    1.0000 0.19965  0.53929  0.32027  Biso   1.000  C
  C1722    1.0000 0.21091  0.52851  0.34354  Biso   1.000  C
  C1723    1.0000 0.19040  0.60748  0.34142  Biso   1.000  C
  C1724    1.0000 0.17548  0.61294  0.34492  Biso   1.000  C
  C1725    1.0000 0.20112  0.62530  0.36026  Biso   1.000  C
  C1726    1.0000 0.16844  0.09681  0.93154  Biso   1.000  C
  C1727    1.0000 0.24552  0.56566  0.41507  Biso   1.000  C
  C1728    1.0000 0.25096  0.57092  0.40077  Biso   1.000  C
  C1729    1.0000 0.21926  0.56612  0.40509  Biso   1.000  C
  C1730    1.0000 0.60822  0.17787  0.63008  Biso   1.000  C
  C1731    1.0000 0.18668  0.00183  0.08315  Biso   1.000  C
  C1732    1.0000 0.25301  0.04117  0.98336  Biso   1.000  C
  C1733    1.0000 0.24437  0.06611  0.99289  Biso   1.000  C
  C1734    1.0000 0.55450  0.70686  0.82312  Biso   1.000  C
  C1735    1.0000 0.53808  0.72480  0.83705  Biso   1.000  C
  C1736    1.0000 0.55988  0.64952  0.84929  Biso   1.000  C
  C1737    1.0000 0.55137  0.62283  0.85016  Biso   1.000  C
  C1738    1.0000 0.56642  0.61814  0.85413  Biso   1.000  C
  C1739    1.0000 0.58341  0.15184  0.43448  Biso   1.000  C
  C1740    1.0000 0.59296  0.14267  0.42503  Biso   1.000  C
  C1741    1.0000 0.50555  0.68844  0.89495  Biso   1.000  C
  C1742    1.0000 0.52348  0.66885  0.91341  Biso   1.000  C
  C1743    1.0000 0.51755  0.66350  0.89951  Biso   1.000  C
  C1744    1.0000 0.61189  0.66909  0.12719  Biso   1.000  C
  C1745    1.0000 0.18874  0.50613  0.57991  Biso   1.000  C
  C1746    1.0000 0.18532  0.52158  0.58262  Biso   1.000  C
  C1747    1.0000 0.25711  0.55050  0.48092  Biso   1.000  C
  C1748    1.0000 0.23922  0.56211  0.49915  Biso   1.000  C
  C1749    1.0000 0.54292  0.21817  0.34649  Biso   1.000  C
  C1750    1.0000 0.56036  0.14622  0.34258  Biso   1.000  C
  C1751    1.0000 0.55012  0.12439  0.35679  Biso   1.000  C
  C1752    1.0000 0.56522  0.11944  0.36011  Biso   1.000  C
  C1753    1.0000 0.58575  0.65333  0.93576  Biso   1.000  C
  C1754    1.0000 0.59488  0.64375  0.92628  Biso   1.000  C
  C1755    1.0000 0.49795  0.18207  0.39904  Biso   1.000  C
  C1756    1.0000 0.52958  0.17957  0.40545  Biso   1.000  C
  C1757    1.0000 0.52399  0.17510  0.39111  Biso   1.000  C
  C1758    1.0000 0.10789  0.17581  0.12905  Biso   1.000  C
  C1759    1.0000 0.68659  0.00315  0.58363  Biso   1.000  C
  C1760    1.0000 0.74083  0.04376  0.49721  Biso   1.000  C
  C1761    1.0000 0.75279  0.06582  0.48466  Biso   1.000  C
  C1762    1.0000 0.05376  0.70684  0.32269  Biso   1.000  C
  C1763    1.0000 0.03733  0.72449  0.33695  Biso   1.000  C
  C1764    1.0000 0.05981  0.64922  0.34980  Biso   1.000  C
  C1765    1.0000 0.05122  0.62260  0.35172  Biso   1.000  C
  C1766    1.0000 0.06630  0.61800  0.35564  Biso   1.000  C
  C1767    1.0000 0.07399  0.15479  0.92295  Biso   1.000  C
  C1768    1.0000 0.08312  0.14503  0.91382  Biso   1.000  C
  C1769    1.0000 0.00491  0.68849  0.39538  Biso   1.000  C
  C1770    1.0000 0.02292  0.66885  0.41378  Biso   1.000  C
  C1771    1.0000 0.01675  0.66348  0.39997  Biso   1.000  C
  C1772    1.0000 0.11156  0.67044  0.62833  Biso   1.000  C
  C1773    1.0000 0.68498  0.50232  0.08403  Biso   1.000  C
  C1774    1.0000 0.74021  0.54314  0.99789  Biso   1.000  C
  C1775    1.0000 0.75219  0.56546  0.98581  Biso   1.000  C
  C1776    1.0000 0.04207  0.21941  0.84649  Biso   1.000  C
  C1777    1.0000 0.05943  0.14844  0.84541  Biso   1.000  C
  C1778    1.0000 0.07463  0.14406  0.84896  Biso   1.000  C
  C1779    1.0000 0.06577  0.11831  0.85543  Biso   1.000  C
  C1780    1.0000 0.08582  0.65401  0.43527  Biso   1.000  C
  C1781    1.0000 0.09498  0.64451  0.42574  Biso   1.000  C
  C1782    1.0000 0.01490  0.19519  0.90458  Biso   1.000  C
  C1783    1.0000 0.00876  0.18952  0.89075  Biso   1.000  C
  C1784    1.0000 0.01261  0.16966  0.91608  Biso   1.000  C
  C1785    1.0000 0.56268  0.50317  0.17010  Biso   1.000  C
  C1786    1.0000 0.50842  0.56524  0.25427  Biso   1.000  C
  C1787    1.0000 0.21117  0.22278  0.41017  Biso   1.000  C
  C1788    1.0000 0.19081  0.14932  0.39826  Biso   1.000  C
  C1789    1.0000 0.19893  0.12257  0.39596  Biso   1.000  C
  C1790    1.0000 0.18376  0.11827  0.39204  Biso   1.000  C
  C1791    1.0000 0.17126  0.65299  0.81984  Biso   1.000  C
  C1792    1.0000 0.16153  0.64363  0.82896  Biso   1.000  C
  C1793    1.0000 0.24086  0.19285  0.33937  Biso   1.000  C
  C1794    1.0000 0.24628  0.18806  0.35390  Biso   1.000  C
  C1795    1.0000 0.23684  0.16213  0.34867  Biso   1.000  C
  C1796    1.0000 0.13811  0.18474  0.12169  Biso   1.000  C
  C1797    1.0000 0.55476  0.01014  0.68512  Biso   1.000  C
  C1798    1.0000 0.50795  0.06482  0.75439  Biso   1.000  C
  C1799    1.0000 0.20747  0.71768  0.90355  Biso   1.000  C
  C1800    1.0000 0.17570  0.64521  0.89536  Biso   1.000  C
  C1801    1.0000 0.19978  0.62378  0.89285  Biso   1.000  C
  C1802    1.0000 0.18446  0.61913  0.88998  Biso   1.000  C
  C1803    1.0000 0.17398  0.15540  0.32376  Biso   1.000  C
  C1804    1.0000 0.16508  0.14534  0.33284  Biso   1.000  C
  C1805    1.0000 0.24291  0.69145  0.85828  Biso   1.000  C
  C1806    1.0000 0.23907  0.67196  0.83272  Biso   1.000  C
  C1807    1.0000 0.24488  0.66606  0.84654  Biso   1.000  C
  C1808    1.0000 0.07252  0.50005  0.66901  Biso   1.000  C
  C1809    1.0000 0.00369  0.56577  0.75821  Biso   1.000  C
  C1810    1.0000 0.70623  0.21749  0.90399  Biso   1.000  C
  C1811    1.0000 0.68917  0.14519  0.90552  Biso   1.000  C
  C1812    1.0000 0.69938  0.12339  0.89121  Biso   1.000  C
  C1813    1.0000 0.68423  0.11868  0.88759  Biso   1.000  C
  C1814    1.0000 0.67508  0.65517  0.32478  Biso   1.000  C
  C1815    1.0000 0.66631  0.64528  0.33418  Biso   1.000  C
  C1816    1.0000 0.73942  0.19448  0.84124  Biso   1.000  C
  C1817    1.0000 0.74500  0.18925  0.85553  Biso   1.000  C
  C1818    1.0000 0.73905  0.16281  0.84799  Biso   1.000  C
  C1819    1.0000 0.05483  0.00973  0.18393  Biso   1.000  C
  C1820    1.0000 0.00682  0.06411  0.25558  Biso   1.000  C
  C1821    1.0000 0.69802  0.70955  0.42854  Biso   1.000  C
  C1822    1.0000 0.69220  0.64017  0.41028  Biso   1.000  C
  C1823    1.0000 0.67716  0.63470  0.40754  Biso   1.000  C
  C1824    1.0000 0.68499  0.62575  0.38219  Biso   1.000  C
  C1825    1.0000 0.66530  0.15396  0.81454  Biso   1.000  C
  C1826    1.0000 0.65571  0.14471  0.82383  Biso   1.000  C
  C1827    1.0000 0.74011  0.69662  0.34009  Biso   1.000  C
  C1828    1.0000 0.73493  0.66973  0.33390  Biso   1.000  C
  C1829    1.0000 0.74074  0.66533  0.34819  Biso   1.000  C
  C1830    1.0000 0.92828  0.41959  0.25259  Biso   1.000  C
  C1831    1.0000 0.92544  0.41632  0.26815  Biso   1.000  C
  C1832    1.0000 0.00021  0.51037  0.28842  Biso   1.000  C
  C1833    1.0000 0.29328  0.65319  0.96837  Biso   1.000  C
  C1834    1.0000 0.31003  0.64768  0.89965  Biso   1.000  C
  C1835    1.0000 0.30183  0.64546  0.87292  Biso   1.000  C
  C1836    1.0000 0.31698  0.64162  0.86853  Biso   1.000  C
  C1837    1.0000 0.32916  0.06800  0.40257  Biso   1.000  C
  C1838    1.0000 0.26366  0.59260  0.94396  Biso   1.000  C
  C1839    1.0000 0.25736  0.60649  0.93856  Biso   1.000  C
  C1840    1.0000 0.26442  0.58273  0.91763  Biso   1.000  C
  C1841    1.0000 0.94057  0.92092  0.75506  Biso   1.000  C
  C1842    1.0000 0.93758  0.91796  0.77066  Biso   1.000  C
  C1843    1.0000 0.30095  0.17898  0.46064  Biso   1.000  C
  C1844    1.0000 0.28797  0.15751  0.47297  Biso   1.000  C
  C1845    1.0000 0.30945  0.15389  0.39646  Biso   1.000  C
  C1846    1.0000 0.32458  0.15052  0.39179  Biso   1.000  C
  C1847    1.0000 0.29970  0.14237  0.37284  Biso   1.000  C
  C1848    1.0000 0.32660  0.57313  0.90506  Biso   1.000  C
  C1849    1.0000 0.33560  0.58273  0.89558  Biso   1.000  C
  C1850    1.0000 0.26442  0.09261  0.44477  Biso   1.000  C
  C1851    1.0000 0.25819  0.10664  0.43963  Biso   1.000  C
  C1852    1.0000 0.26399  0.08280  0.41841  Biso   1.000  C
  C1853    1.0000 0.42914  0.41663  0.76940  Biso   1.000  C
  C1854    1.0000 0.50107  0.51130  0.78744  Biso   1.000  C
  C1855    1.0000 0.78776  0.65905  0.47336  Biso   1.000  C
  C1856    1.0000 0.82546  0.65809  0.38156  Biso   1.000  C
  C1857    1.0000 0.80136  0.63661  0.38381  Biso   1.000  C
  C1858    1.0000 0.81610  0.63182  0.37915  Biso   1.000  C
  C1859    1.0000 0.82874  0.06831  0.90304  Biso   1.000  C
  C1860    1.0000 0.76004  0.59045  0.44149  Biso   1.000  C
  C1861    1.0000 0.77325  0.58778  0.41685  Biso   1.000  C
  C1862    1.0000 0.76787  0.60221  0.41239  Biso   1.000  C
  C1863    1.0000 0.86038  0.37056  0.43389  Biso   1.000  C
  C1864    1.0000 0.44532  0.93302  0.25848  Biso   1.000  C
  C1865    1.0000 0.44142  0.93043  0.27388  Biso   1.000  C
  C1866    1.0000 0.49983  0.01017  0.28788  Biso   1.000  C
  C1867    1.0000 0.80092  0.17878  0.96001  Biso   1.000  C
  C1868    1.0000 0.78856  0.15693  0.97231  Biso   1.000  C
  C1869    1.0000 0.80928  0.15374  0.89690  Biso   1.000  C
  C1870    1.0000 0.82438  0.15046  0.89207  Biso   1.000  C
  C1871    1.0000 0.79936  0.14256  0.87318  Biso   1.000  C
  C1872    1.0000 0.83513  0.56343  0.40261  Biso   1.000  C
  C1873    1.0000 0.84441  0.57318  0.39350  Biso   1.000  C
  C1874    1.0000 0.76423  0.09281  0.94497  Biso   1.000  C
  C1875    1.0000 0.75777  0.10670  0.93980  Biso   1.000  C
  C1876    1.0000 0.76389  0.08286  0.91866  Biso   1.000  C
  C1877    1.0000 0.88793  0.87618  0.92060  Biso   1.000  C
  C1878    1.0000 0.31304  0.32978  0.75318  Biso   1.000  C
  C1879    1.0000 0.31582  0.33404  0.76851  Biso   1.000  C
  C1880    1.0000 0.25806  0.24714  0.79334  Biso   1.000  C
  C1881    1.0000 0.24576  0.23562  0.81585  Biso   1.000  C
  C1882    1.0000 0.94901  0.07040  0.46092  Biso   1.000  C
  C1883    1.0000 0.96183  0.09240  0.47253  Biso   1.000  C
  C1884    1.0000 0.93998  0.08929  0.39096  Biso   1.000  C
  C1885    1.0000 0.92515  0.09338  0.38559  Biso   1.000  C
  C1886    1.0000 0.95067  0.11188  0.37829  Biso   1.000  C
  C1887    1.0000 0.92084  0.68066  0.90313  Biso   1.000  C
  C1888    1.0000 0.99530  0.14333  0.43832  Biso   1.000  C
  C1889    1.0000 0.97855  0.16260  0.41842  Biso   1.000  C
  C1890    1.0000 0.98475  0.14885  0.41291  Biso   1.000  C
  C1891    1.0000 0.89128  0.38019  0.43320  Biso   1.000  C
  C1892    1.0000 0.31693  0.83161  0.25361  Biso   1.000  C
  C1893    1.0000 0.32041  0.83490  0.26902  Biso   1.000  C
  C1894    1.0000 0.24741  0.73242  0.29319  Biso   1.000  C
  C1895    1.0000 0.25913  0.74677  0.31431  Biso   1.000  C
  C1896    1.0000 0.96026  0.59159  0.97297  Biso   1.000  C
  C1897    1.0000 0.94004  0.59108  0.89272  Biso   1.000  C
  C1898    1.0000 0.92515  0.59482  0.88730  Biso   1.000  C
  C1899    1.0000 0.95099  0.61033  0.87561  Biso   1.000  C
  C1900    1.0000 0.91436  0.18586  0.40471  Biso   1.000  C
  C1901    1.0000 0.90496  0.17625  0.39562  Biso   1.000  C
  C1902    1.0000 0.98775  0.65861  0.94480  Biso   1.000  C
  C1903    1.0000 0.99348  0.64438  0.93966  Biso   1.000  C
  C1904    1.0000 0.98776  0.65170  0.91310  Biso   1.000  C
  C1905    1.0000 0.38801  0.87590  0.41978  Biso   1.000  C
  C1906    1.0000 0.81372  0.32876  0.25460  Biso   1.000  C
  C1907    1.0000 0.81747  0.33266  0.26980  Biso   1.000  C
  C1908    1.0000 0.75930  0.24763  0.29257  Biso   1.000  C
  C1909    1.0000 0.74716  0.23609  0.31516  Biso   1.000  C
  C1910    1.0000 0.44527  0.07326  0.95824  Biso   1.000  C
  C1911    1.0000 0.44206  0.08885  0.88319  Biso   1.000  C
  C1912    1.0000 0.42713  0.09318  0.87825  Biso   1.000  C
  C1913    1.0000 0.44849  0.11576  0.88722  Biso   1.000  C
  C1914    1.0000 0.42404  0.67675  0.40675  Biso   1.000  C
  C1915    1.0000 0.48660  0.13934  0.94148  Biso   1.000  C
  C1916    1.0000 0.48515  0.16418  0.92073  Biso   1.000  C
  C1917    1.0000 0.49098  0.14998  0.91586  Biso   1.000  C
  C1918    1.0000 0.39098  0.37977  0.93084  Biso   1.000  C
  C1919    1.0000 0.81294  0.83052  0.75511  Biso   1.000  C
  C1920    1.0000 0.81568  0.83330  0.77080  Biso   1.000  C
  C1921    1.0000 0.74704  0.73285  0.79183  Biso   1.000  C
  C1922    1.0000 0.75755  0.74634  0.81411  Biso   1.000  C
  C1923    1.0000 0.46087  0.59360  0.47242  Biso   1.000  C
  C1924    1.0000 0.43993  0.59275  0.39381  Biso   1.000  C
  C1925    1.0000 0.42501  0.59608  0.38827  Biso   1.000  C
  C1926    1.0000 0.45087  0.60971  0.37431  Biso   1.000  C
  C1927    1.0000 0.41486  0.18520  0.90329  Biso   1.000  C
  C1928    1.0000 0.40514  0.17584  0.89427  Biso   1.000  C
  C1929    1.0000 0.48924  0.65825  0.44606  Biso   1.000  C
  C1930    1.0000 0.49527  0.64429  0.44044  Biso   1.000  C
  C1931    1.0000 0.48841  0.65194  0.41425  Biso   1.000  C
  C1932    1.0000 0.86075  0.37938  0.31876  Biso   1.000  C
  C1933    1.0000 0.44257  0.83180  0.49455  Biso   1.000  C
  C1934    1.0000 0.43868  0.83476  0.47919  Biso   1.000  C
  C1935    1.0000 0.50563  0.73334  0.46094  Biso   1.000  C
  C1936    1.0000 0.49402  0.74305  0.43729  Biso   1.000  C
  C1937    1.0000 0.80167  0.57003  0.78984  Biso   1.000  C
  C1938    1.0000 0.78873  0.59163  0.77763  Biso   1.000  C
  C1939    1.0000 0.81000  0.58957  0.86007  Biso   1.000  C
  C1940    1.0000 0.82488  0.59366  0.86530  Biso   1.000  C
  C1941    1.0000 0.79938  0.61203  0.87301  Biso   1.000  C
  C1942    1.0000 0.83770  0.16938  0.35831  Biso   1.000  C
  C1943    1.0000 0.76023  0.65942  0.80760  Biso   1.000  C
  C1944    1.0000 0.75429  0.64531  0.81292  Biso   1.000  C
  C1945    1.0000 0.76941  0.64801  0.83641  Biso   1.000  C
  C1946    1.0000 0.86242  0.87683  0.83228  Biso   1.000  C
  C1947    1.0000 0.42977  0.33101  0.99669  Biso   1.000  C
  C1948    1.0000 0.42713  0.33446  0.98113  Biso   1.000  C
  C1949    1.0000 0.49948  0.23838  0.96081  Biso   1.000  C
  C1950    1.0000 0.78972  0.09330  0.27823  Biso   1.000  C
  C1951    1.0000 0.81001  0.09003  0.36054  Biso   1.000  C
  C1952    1.0000 0.82485  0.09386  0.36605  Biso   1.000  C
  C1953    1.0000 0.79974  0.11331  0.37224  Biso   1.000  C
  C1954    1.0000 0.82822  0.67815  0.84722  Biso   1.000  C
  C1955    1.0000 0.83773  0.66851  0.85617  Biso   1.000  C
  C1956    1.0000 0.76175  0.15865  0.30619  Biso   1.000  C
  C1957    1.0000 0.75669  0.14411  0.31111  Biso   1.000  C
  C1958    1.0000 0.75809  0.15276  0.33788  Biso   1.000  C
  C1959    1.0000 0.35906  0.37832  0.81463  Biso   1.000  C
  C1960    1.0000 0.93815  0.83139  0.99700  Biso   1.000  C
  C1961    1.0000 0.93494  0.83505  0.98156  Biso   1.000  C
  C1962    1.0000 0.99082  0.74703  0.95780  Biso   1.000  C
  C1963    1.0000 0.00316  0.73419  0.93608  Biso   1.000  C
  C1964    1.0000 0.30624  0.57637  0.29516  Biso   1.000  C
  C1965    1.0000 0.28771  0.58467  0.27590  Biso   1.000  C
  C1966    1.0000 0.30973  0.59046  0.36164  Biso   1.000  C
  C1967    1.0000 0.32466  0.59466  0.36662  Biso   1.000  C
  C1968    1.0000 0.29982  0.61495  0.37086  Biso   1.000  C
  C1969    1.0000 0.33825  0.17164  0.85819  Biso   1.000  C
  C1970    1.0000 0.26640  0.65667  0.30487  Biso   1.000  C
  C1971    1.0000 0.25994  0.64280  0.31011  Biso   1.000  C
  C1972    1.0000 0.26191  0.65201  0.33657  Biso   1.000  C
  C1973    1.0000 0.36462  0.87573  0.33131  Biso   1.000  C
  C1974    1.0000 0.93063  0.33154  0.49777  Biso   1.000  C
  C1975    1.0000 0.92777  0.33523  0.48230  Biso   1.000  C
  C1976    1.0000 0.00089  0.23752  0.46078  Biso   1.000  C
  C1977    1.0000 0.30059  0.07036  0.79019  Biso   1.000  C
  C1978    1.0000 0.28740  0.09133  0.77714  Biso   1.000  C
  C1979    1.0000 0.30623  0.08843  0.87225  Biso   1.000  C
  C1980    1.0000 0.32126  0.09269  0.87688  Biso   1.000  C
  C1981    1.0000 0.31901  0.11626  0.86185  Biso   1.000  C
  C1982    1.0000 0.32770  0.67503  0.34526  Biso   1.000  C
  C1983    1.0000 0.33736  0.66625  0.35490  Biso   1.000  C
  C1984    1.0000 0.26298  0.15752  0.80745  Biso   1.000  C
  C1985    1.0000 0.25804  0.14299  0.81254  Biso   1.000  C
  C1986    1.0000 0.26046  0.15159  0.83926  Biso   1.000  C
  C1987    1.0000 0.38954  0.37162  0.82303  Biso   1.000  C
  C1988    1.0000 0.81479  0.91758  0.99661  Biso   1.000  C
  C1989    1.0000 0.81741  0.91382  0.98108  Biso   1.000  C
  C1990    1.0000 0.74848  0.01283  0.96199  Biso   1.000  C
  C1991    1.0000 0.45982  0.15892  0.27701  Biso   1.000  C
  C1992    1.0000 0.42542  0.15698  0.36448  Biso   1.000  C
  C1993    1.0000 0.44967  0.13649  0.37065  Biso   1.000  C
  C1994    1.0000 0.43457  0.13297  0.37564  Biso   1.000  C
  C1995    1.0000 0.42436  0.57185  0.84494  Biso   1.000  C
  C1996    1.0000 0.48654  0.09302  0.30371  Biso   1.000  C
  C1997    1.0000 0.49241  0.10724  0.30877  Biso   1.000  C
  C1998    1.0000 0.48805  0.08313  0.32999  Biso   1.000  C
  C1999    1.0000 0.38574  0.87722  0.30671  Biso   1.000  C
  C2000    1.0000 0.81394  0.41799  0.49672  Biso   1.000  C
  C2001    1.0000 0.81672  0.41381  0.48135  Biso   1.000  C
  C2002    1.0000 0.74772  0.51341  0.46029  Biso   1.000  C
  C2003    1.0000 0.44761  0.68136  0.79148  Biso   1.000  C
  C2004    1.0000 0.46124  0.66190  0.77667  Biso   1.000  C
  C2005    1.0000 0.42712  0.65800  0.86862  Biso   1.000  C
  C2006    1.0000 0.45050  0.63562  0.86846  Biso   1.000  C
  C2007    1.0000 0.43543  0.63161  0.87308  Biso   1.000  C
  C2008    1.0000 0.42476  0.07298  0.34652  Biso   1.000  C
  C2009    1.0000 0.49058  0.59072  0.80507  Biso   1.000  C
  C2010    1.0000 0.48076  0.58640  0.83105  Biso   1.000  C
  C2011    1.0000 0.48617  0.60080  0.83549  Biso   1.000  C
  C2012    1.0000 0.89182  0.37051  0.31734  Biso   1.000  C
  C2013    1.0000 0.31456  0.91680  0.49647  Biso   1.000  C
  C2014    1.0000 0.31728  0.91303  0.48093  Biso   1.000  C
  C2015    1.0000 0.24954  0.01153  0.46218  Biso   1.000  C
  C2016    1.0000 0.95925  0.16022  0.77734  Biso   1.000  C
  C2017    1.0000 0.92489  0.15671  0.86311  Biso   1.000  C
  C2018    1.0000 0.94917  0.13616  0.86892  Biso   1.000  C
  C2019    1.0000 0.93411  0.13251  0.87383  Biso   1.000  C
  C2020    1.0000 0.91531  0.56364  0.34707  Biso   1.000  C
  C2021    1.0000 0.90598  0.57310  0.35645  Biso   1.000  C
  C2022    1.0000 0.99487  0.08811  0.80945  Biso   1.000  C
  C2023    1.0000 0.96915  0.09582  0.81779  Biso   1.000  C
  C2024    1.0000 0.88505  0.87713  0.80908  Biso   1.000  C
  C2025    1.0000 0.31360  0.41795  0.99738  Biso   1.000  C
  C2026    1.0000 0.31705  0.41413  0.98204  Biso   1.000  C
  C2027    1.0000 0.25616  0.50580  0.96066  Biso   1.000  C
  C2028    1.0000 0.94723  0.68005  0.29201  Biso   1.000  C
  C2029    1.0000 0.96123  0.66109  0.27692  Biso   1.000  C
  C2030    1.0000 0.92725  0.65689  0.37158  Biso   1.000  C
  C2031    1.0000 0.94981  0.63431  0.36606  Biso   1.000  C
  C2032    1.0000 0.93492  0.62996  0.37072  Biso   1.000  C
  C2033    1.0000 0.92255  0.07140  0.84581  Biso   1.000  C
  C2034    1.0000 0.98655  0.59190  0.30546  Biso   1.000  C
  C2035    1.0000 0.99243  0.60623  0.31029  Biso   1.000  C
  C2036    1.0000 0.98646  0.58297  0.33213  Biso   1.000  C
  C2037    1.0000 0.37585  0.83155  0.38728  Biso   1.000  C
  C2038    1.0000 0.92198  0.99569  0.80852  Biso   1.000  C
  C2039    1.0000 0.91919  0.98002  0.81125  Biso   1.000  C
  C2040    1.0000 0.00424  0.93564  0.75687  Biso   1.000  C
  C2041    1.0000 0.17872  0.29230  0.44682  Biso   1.000  C
  C2042    1.0000 0.16311  0.27556  0.46295  Biso   1.000  C
  C2043    1.0000 0.16142  0.36709  0.44466  Biso   1.000  C
  C2044    1.0000 0.13398  0.36724  0.45020  Biso   1.000  C
  C2045    1.0000 0.13104  0.37247  0.43507  Biso   1.000  C
  C2046    1.0000 0.57695  0.84402  0.42544  Biso   1.000  C
  C2047    1.0000 0.09743  0.30401  0.47706  Biso   1.000  C
  C2048    1.0000 0.11127  0.30884  0.48373  Biso   1.000  C
  C2049    1.0000 0.08349  0.32357  0.49158  Biso   1.000  C
  C2050    1.0000 0.36972  0.32003  0.89097  Biso   1.000  C
  C2051    1.0000 0.92118  0.49471  0.30974  Biso   1.000  C
  C2052    1.0000 0.91712  0.47957  0.31363  Biso   1.000  C
  C2053    1.0000 0.01886  0.44759  0.24303  Biso   1.000  C
  C2054    1.0000 0.99958  0.44095  0.26232  Biso   1.000  C
  C2055    1.0000 0.18185  0.78877  0.94819  Biso   1.000  C
  C2056    1.0000 0.16120  0.77641  0.96255  Biso   1.000  C
  C2057    1.0000 0.16160  0.86464  0.94179  Biso   1.000  C
  C2058    1.0000 0.13444  0.86730  0.94806  Biso   1.000  C
  C2059    1.0000 0.13161  0.87299  0.93304  Biso   1.000  C
  C2060    1.0000 0.58426  0.33509  0.92390  Biso   1.000  C
  C2061    1.0000 0.09756  0.80307  0.97616  Biso   1.000  C
  C2062    1.0000 0.11167  0.80796  0.98232  Biso   1.000  C
  C2063    1.0000 0.08404  0.82220  0.99165  Biso   1.000  C
  C2064    1.0000 0.87558  0.83203  0.88726  Biso   1.000  C
  C2065    1.0000 0.41782  0.99778  0.31565  Biso   1.000  C
  C2066    1.0000 0.51708  0.95801  0.24555  Biso   1.000  C
  C2067    1.0000 0.50443  0.93510  0.25566  Biso   1.000  C
  C2068    1.0000 0.67849  0.28975  0.94868  Biso   1.000  C
  C2069    1.0000 0.65908  0.27529  0.96266  Biso   1.000  C
  C2070    1.0000 0.66190  0.36332  0.94212  Biso   1.000  C
  C2071    1.0000 0.63548  0.36897  0.94948  Biso   1.000  C
  C2072    1.0000 0.63254  0.37455  0.93452  Biso   1.000  C
  C2073    1.0000 0.07585  0.84449  0.92594  Biso   1.000  C
  C2074    1.0000 0.59518  0.30276  0.98385  Biso   1.000  C
  C2075    1.0000 0.60876  0.30842  0.99057  Biso   1.000  C
  C2076    1.0000 0.58258  0.32739  0.98864  Biso   1.000  C
  C2077    1.0000 0.41247  0.48392  0.82393  Biso   1.000  C
  C2078    1.0000 0.50102  0.43704  0.76058  Biso   1.000  C
  C2079    1.0000 0.67843  0.79023  0.44968  Biso   1.000  C
  C2080    1.0000 0.65903  0.77582  0.46376  Biso   1.000  C
  C2081    1.0000 0.65670  0.86644  0.42581  Biso   1.000  C
  C2082    1.0000 0.63642  0.87083  0.45067  Biso   1.000  C
  C2083    1.0000 0.63254  0.87631  0.43592  Biso   1.000  C
  C2084    1.0000 0.08452  0.33414  0.42304  Biso   1.000  C
  C2085    1.0000 0.59573  0.80321  0.48363  Biso   1.000  C
  C2086    1.0000 0.60928  0.80896  0.49039  Biso   1.000  C
  C2087    1.0000 0.58321  0.82800  0.48782  Biso   1.000  C
  C2088    1.0000 0.37639  0.31369  0.85994  Biso   1.000  C
  C2089    1.0000 0.83271  0.49706  0.42989  Biso   1.000  C
  C2090    1.0000 0.83661  0.48158  0.42742  Biso   1.000  C
  C2091    1.0000 0.74588  0.43512  0.49316  Biso   1.000  C
  C2092    1.0000 0.57376  0.79371  0.80556  Biso   1.000  C
  C2093    1.0000 0.58631  0.77618  0.78769  Biso   1.000  C
  C2094    1.0000 0.59273  0.86037  0.80913  Biso   1.000  C
  C2095    1.0000 0.59638  0.86503  0.82431  Biso   1.000  C
  C2096    1.0000 0.61364  0.87619  0.79919  Biso   1.000  C
  C2097    1.0000 0.17543  0.34662  0.82422  Biso   1.000  C
  C2098    1.0000 0.65503  0.80854  0.77433  Biso   1.000  C
  C2099    1.0000 0.64079  0.81364  0.76892  Biso   1.000  C
  C2100    1.0000 0.65386  0.83228  0.75247  Biso   1.000  C
  C2101    1.0000 0.37401  0.80694  0.36628  Biso   1.000  C
  C2102    1.0000 0.83264  0.99787  0.93034  Biso   1.000  C
  C2103    1.0000 0.83635  0.98249  0.92715  Biso   1.000  C
  C2104    1.0000 0.74692  0.93474  0.99247  Biso   1.000  C
  C2105    1.0000 0.56974  0.28880  0.30298  Biso   1.000  C
  C2106    1.0000 0.58975  0.27579  0.28829  Biso   1.000  C
  C2107    1.0000 0.59039  0.36293  0.30885  Biso   1.000  C
  C2108    1.0000 0.59450  0.36884  0.32349  Biso   1.000  C
  C2109    1.0000 0.61629  0.36803  0.29957  Biso   1.000  C
  C2110    1.0000 0.17427  0.84262  0.32517  Biso   1.000  C
  C2111    1.0000 0.65281  0.30369  0.27371  Biso   1.000  C
  C2112    1.0000 0.63870  0.30798  0.26719  Biso   1.000  C
  C2113    1.0000 0.66606  0.32277  0.25793  Biso   1.000  C
  C2114    1.0000 0.87820  0.31341  0.36152  Biso   1.000  C
  C2115    1.0000 0.33015  0.49523  0.93885  Biso   1.000  C
  C2116    1.0000 0.33307  0.47955  0.93626  Biso   1.000  C
  C2117    1.0000 0.23104  0.44795  0.00783  Biso   1.000  C
  C2118    1.0000 0.25035  0.43973  0.98916  Biso   1.000  C
  C2119    1.0000 0.07383  0.79499  0.30558  Biso   1.000  C
  C2120    1.0000 0.08433  0.77694  0.28697  Biso   1.000  C
  C2121    1.0000 0.09447  0.86029  0.30827  Biso   1.000  C
  C2122    1.0000 0.09780  0.86523  0.32342  Biso   1.000  C
  C2123    1.0000 0.11609  0.87525  0.29856  Biso   1.000  C
  C2124    1.0000 0.67533  0.34588  0.32637  Biso   1.000  C
  C2125    1.0000 0.66648  0.35514  0.33636  Biso   1.000  C
  C2126    1.0000 0.15421  0.80448  0.27292  Biso   1.000  C
  C2127    1.0000 0.14009  0.80955  0.26702  Biso   1.000  C
  C2128    1.0000 0.15360  0.82906  0.25199  Biso   1.000  C
  C2129    1.0000 0.87413  0.80739  0.86626  Biso   1.000  C
  C2130    1.0000 0.33225  0.99737  0.42962  Biso   1.000  C
  C2131    1.0000 0.33586  0.98193  0.42667  Biso   1.000  C
  C2132    1.0000 0.23147  0.94859  0.50895  Biso   1.000  C
  C2133    1.0000 0.25071  0.94192  0.48959  Biso   1.000  C
  C2134    1.0000 0.06936  0.28880  0.80203  Biso   1.000  C
  C2135    1.0000 0.09025  0.27633  0.78811  Biso   1.000  C
  C2136    1.0000 0.08825  0.36611  0.80727  Biso   1.000  C
  C2137    1.0000 0.11548  0.36739  0.80091  Biso   1.000  C
  C2138    1.0000 0.11862  0.37326  0.81579  Biso   1.000  C
  C2139    1.0000 0.67323  0.84239  0.82468  Biso   1.000  C
  C2140    1.0000 0.15252  0.30296  0.77139  Biso   1.000  C
  C2141    1.0000 0.13836  0.30826  0.76580  Biso   1.000  C
  C2142    1.0000 0.15146  0.32944  0.75286  Biso   1.000  C
  C2143    1.0000 0.32709  0.75857  0.30635  Biso   1.000  C
  C2144    1.0000 0.33037  0.77371  0.31062  Biso   1.000  C
  C2145    1.0000 0.23560  0.79134  0.24630  Biso   1.000  C
  C2146    1.0000 0.24404  0.81671  0.25477  Biso   1.000  C
  C2147    1.0000 0.07552  0.45564  0.94554  Biso   1.000  C
  C2148    1.0000 0.08389  0.47446  0.96447  Biso   1.000  C
  C2149    1.0000 0.08891  0.38936  0.94050  Biso   1.000  C
  C2150    1.0000 0.09273  0.38500  0.92528  Biso   1.000  C
  C2151    1.0000 0.11313  0.37871  0.94958  Biso   1.000  C
  C2152    1.0000 0.68665  0.90226  0.91657  Biso   1.000  C
  C2153    1.0000 0.67747  0.89319  0.90670  Biso   1.000  C
  C2154    1.0000 0.14577  0.43772  0.99730  Biso   1.000  C
  C2155    1.0000 0.16342  0.42031  0.97637  Biso   1.000  C
  C2156    1.0000 0.14910  0.41488  0.98125  Biso   1.000  C
  C2157    1.0000 0.33078  0.25266  0.82126  Biso   1.000  C
  C2158    1.0000 0.33447  0.26814  0.82381  Biso   1.000  C
  C2159    1.0000 0.23276  0.29115  0.74572  Biso   1.000  C
  C2160    1.0000 0.24517  0.31353  0.75707  Biso   1.000  C
  C2161    1.0000 0.06970  0.96278  0.45055  Biso   1.000  C
  C2162    1.0000 0.09602  0.96898  0.45772  Biso   1.000  C
  C2163    1.0000 0.09025  0.88775  0.43923  Biso   1.000  C
  C2164    1.0000 0.09441  0.88231  0.42444  Biso   1.000  C
  C2165    1.0000 0.11265  0.87496  0.45013  Biso   1.000  C
  C2166    1.0000 0.67432  0.40415  0.42550  Biso   1.000  C
  C2167    1.0000 0.66553  0.39496  0.41536  Biso   1.000  C
  C2168    1.0000 0.14615  0.93549  0.49860  Biso   1.000  C
  C2169    1.0000 0.16263  0.92004  0.47535  Biso   1.000  C
  C2170    1.0000 0.14838  0.91438  0.48018  Biso   1.000  C
  C2171    1.0000 0.37812  0.92933  0.39053  Biso   1.000  C
  C2172    1.0000 0.82693  0.75835  0.80636  Biso   1.000  C
  C2173    1.0000 0.83048  0.77347  0.81065  Biso   1.000  C
  C2174    1.0000 0.73306  0.80062  0.74239  Biso   1.000  C
  C2175    1.0000 0.75123  0.81019  0.76148  Biso   1.000  C
  C2176    1.0000 0.57217  0.45633  0.44679  Biso   1.000  C
  C2177    1.0000 0.58959  0.39141  0.43920  Biso   1.000  C
  C2178    1.0000 0.59358  0.38601  0.42430  Biso   1.000  C
  C2179    1.0000 0.61192  0.37826  0.44984  Biso   1.000  C
  C2180    1.0000 0.18830  0.90354  0.41387  Biso   1.000  C
  C2181    1.0000 0.17909  0.89447  0.40402  Biso   1.000  C
  C2182    1.0000 0.65679  0.44627  0.48937  Biso   1.000  C
  C2183    1.0000 0.66415  0.42002  0.48269  Biso   1.000  C
  C2184    1.0000 0.64972  0.41480  0.48755  Biso   1.000  C
  C2185    1.0000 0.82833  0.25486  0.31147  Biso   1.000  C
  C2186    1.0000 0.83161  0.27038  0.31451  Biso   1.000  C
  C2187    1.0000 0.73485  0.29086  0.24762  Biso   1.000  C
  C2188    1.0000 0.74530  0.31515  0.25685  Biso   1.000  C
  C2189    1.0000 0.56973  0.96271  0.95140  Biso   1.000  C
  C2190    1.0000 0.59644  0.96838  0.95756  Biso   1.000  C
  C2191    1.0000 0.59111  0.88754  0.94009  Biso   1.000  C
  C2192    1.0000 0.59536  0.88231  0.92527  Biso   1.000  C
  C2193    1.0000 0.61381  0.87523  0.95090  Biso   1.000  C
  C2194    1.0000 0.16882  0.41205  0.92430  Biso   1.000  C
  C2195    1.0000 0.15924  0.40288  0.91498  Biso   1.000  C
  C2196    1.0000 0.64674  0.93488  0.99882  Biso   1.000  C
  C2197    1.0000 0.66237  0.92034  0.97439  Biso   1.000  C
  C2198    1.0000 0.64825  0.91452  0.97949  Biso   1.000  C
  C2199    1.0000 0.87283  0.42080  0.36279  Biso   1.000  C
  C2200    1.0000 0.41839  0.25234  0.92814  Biso   1.000  C
  C2201    1.0000 0.50115  0.30958  0.98784  Biso   1.000  C
  C2202    1.0000 0.67758  0.95757  0.30359  Biso   1.000  C
  C2203    1.0000 0.65568  0.88672  0.32634  Biso   1.000  C
  C2204    1.0000 0.64023  0.87544  0.30025  Biso   1.000  C
  C2205    1.0000 0.63561  0.87081  0.31508  Biso   1.000  C
  C2206    1.0000 0.07839  0.40608  0.32491  Biso   1.000  C
  C2207    1.0000 0.08797  0.39709  0.33436  Biso   1.000  C
  C2208    1.0000 0.60540  0.93690  0.25255  Biso   1.000  C
  C2209    1.0000 0.58779  0.91955  0.27355  Biso   1.000  C
  C2210    1.0000 0.60210  0.91413  0.26868  Biso   1.000  C
  C2211    1.0000 0.87283  0.93720  0.86039  Biso   1.000  C
  C2212    1.0000 0.41896  0.75240  0.42871  Biso   1.000  C
  C2213    1.0000 0.51640  0.79265  0.50320  Biso   1.000  C
  C2214    1.0000 0.67768  0.45888  0.80194  Biso   1.000  C
  C2215    1.0000 0.65343  0.39226  0.82553  Biso   1.000  C
  C2216    1.0000 0.64192  0.37562  0.80032  Biso   1.000  C
  C2217    1.0000 0.63842  0.37088  0.81550  Biso   1.000  C
  C2218    1.0000 0.07619  0.90575  0.82466  Biso   1.000  C
  C2219    1.0000 0.08561  0.89648  0.83407  Biso   1.000  C
  C2220    1.0000 0.59271  0.44458  0.76283  Biso   1.000  C
  C2221    1.0000 0.60676  0.43964  0.75652  Biso   1.000  C
  C2222    1.0000 0.59837  0.41300  0.75909  Biso   1.000  C
  C2223    1.0000 0.36943  0.43363  0.86140  Biso   1.000  C
  C2224    1.0000 0.91845  0.25261  0.42832  Biso   1.000  C
  C2225    1.0000 0.00213  0.30956  0.48828  Biso   1.000  C
  C2226    1.0000 0.16568  0.97326  0.78705  Biso   1.000  C
  C2227    1.0000 0.16092  0.87991  0.80628  Biso   1.000  C
  C2228    1.0000 0.13357  0.88345  0.80138  Biso   1.000  C
  C2229    1.0000 0.13026  0.87867  0.81656  Biso   1.000  C
  C2230    1.0000 0.57695  0.40525  0.82517  Biso   1.000  C
  C2231    1.0000 0.58664  0.39632  0.83457  Biso   1.000  C
  C2232    1.0000 0.09567  0.94625  0.76894  Biso   1.000  C
  C2233    1.0000 0.10984  0.94120  0.76308  Biso   1.000  C
  C2234    1.0000 0.09931  0.91536  0.76032  Biso   1.000  C
  C2235    1.0000 0.37228  0.93890  0.36007  Biso   1.000  C
  C2236    1.0000 0.91765  0.75244  0.92779  Biso   1.000  C
  C2237    1.0000 0.17784  0.45896  0.30257  Biso   1.000  C
  C2238    1.0000 0.15416  0.39169  0.32654  Biso   1.000  C
  C2239    1.0000 0.14262  0.37512  0.30128  Biso   1.000  C
  C2240    1.0000 0.13921  0.37029  0.31646  Biso   1.000  C
  C2241    1.0000 0.57676  0.90493  0.32519  Biso   1.000  C
  C2242    1.0000 0.58593  0.89586  0.33507  Biso   1.000  C
  C2243    1.0000 0.09220  0.44372  0.26116  Biso   1.000  C
  C2244    1.0000 0.10639  0.43860  0.25538  Biso   1.000  C
  C2245    1.0000 0.09844  0.41208  0.25985  Biso   1.000  C
  C2246    1.0000 0.31526  0.85871  0.37938  Biso   1.000  C
  C2247    1.0000 0.49434  0.43819  0.83102  Biso   1.000  C
  C2248    1.0000 0.47869  0.43546  0.83368  Biso   1.000  C
  C2249    1.0000 0.46202  0.50276  0.73684  Biso   1.000  C
  C2250    1.0000 0.43416  0.49988  0.73830  Biso   1.000  C
  C2251    1.0000 0.79091  0.80442  0.57455  Biso   1.000  C
  C2252    1.0000 0.86543  0.80674  0.58979  Biso   1.000  C
  C2253    1.0000 0.86766  0.79981  0.61683  Biso   1.000  C
  C2254    1.0000 0.87237  0.81494  0.62025  Biso   1.000  C
  C2255    1.0000 0.34814  0.82583  0.17623  Biso   1.000  C
  C2256    1.0000 0.35717  0.83587  0.16716  Biso   1.000  C
  C2257    1.0000 0.80546  0.76416  0.65868  Biso   1.000  C
  C2258    1.0000 0.80959  0.75858  0.64401  Biso   1.000  C
  C2259    1.0000 0.83670  0.76089  0.65094  Biso   1.000  C
  C2260    1.0000 0.30677  0.36365  0.87511  Biso   1.000  C
  C2261    1.0000 0.49092  0.94486  0.31602  Biso   1.000  C
  C2262    1.0000 0.45399  0.00498  0.23380  Biso   1.000  C
  C2263    1.0000 0.77491  0.28661  0.08827  Biso   1.000  C
  C2264    1.0000 0.85958  0.30978  0.08971  Biso   1.000  C
  C2265    1.0000 0.86994  0.29980  0.11372  Biso   1.000  C
  C2266    1.0000 0.87507  0.31465  0.11769  Biso   1.000  C
  C2267    1.0000 0.35497  0.33765  0.67095  Biso   1.000  C
  C2268    1.0000 0.81080  0.25079  0.14529  Biso   1.000  C
  C2269    1.0000 0.83086  0.26855  0.16350  Biso   1.000  C
  C2270    1.0000 0.83565  0.26315  0.14921  Biso   1.000  C
  C2271    1.0000 0.81524  0.85870  0.88040  Biso   1.000  C
  C2272    1.0000 0.99436  0.44333  0.32914  Biso   1.000  C
  C2273    1.0000 0.95982  0.50314  0.23739  Biso   1.000  C
  C2274    1.0000 0.93244  0.49827  0.24097  Biso   1.000  C
  C2275    1.0000 0.28786  0.79916  0.07124  Biso   1.000  C
  C2276    1.0000 0.35500  0.80968  0.09387  Biso   1.000  C
  C2277    1.0000 0.37589  0.79893  0.10907  Biso   1.000  C
  C2278    1.0000 0.38110  0.81394  0.11252  Biso   1.000  C
  C2279    1.0000 0.84816  0.83527  0.68621  Biso   1.000  C
  C2280    1.0000 0.85752  0.84442  0.67659  Biso   1.000  C
  C2281    1.0000 0.30418  0.76701  0.15393  Biso   1.000  C
  C2282    1.0000 0.30981  0.76035  0.14028  Biso   1.000  C
  C2283    1.0000 0.32829  0.76071  0.16690  Biso   1.000  C
  C2284    1.0000 0.81807  0.35926  0.37874  Biso   1.000  C
  C2285    1.0000 0.99008  0.94382  0.81322  Biso   1.000  C
  C2286    1.0000 0.95882  0.00330  0.73643  Biso   1.000  C
  C2287    1.0000 0.28900  0.30248  0.57163  Biso   1.000  C
  C2288    1.0000 0.35371  0.31061  0.59485  Biso   1.000  C
  C2289    1.0000 0.37515  0.30006  0.60948  Biso   1.000  C
  C2290    1.0000 0.37977  0.31512  0.61352  Biso   1.000  C
  C2291    1.0000 0.84529  0.32560  0.17661  Biso   1.000  C
  C2292    1.0000 0.85463  0.33547  0.16766  Biso   1.000  C
  C2293    1.0000 0.30465  0.26124  0.65724  Biso   1.000  C
  C2294    1.0000 0.30966  0.25605  0.64275  Biso   1.000  C
  C2295    1.0000 0.33629  0.25753  0.65162  Biso   1.000  C
  C2296    1.0000 0.99571  0.81132  0.91802  Biso   1.000  C
  C2297    1.0000 0.98033  0.81542  0.91534  Biso   1.000  C
  C2298    1.0000 0.93555  0.75821  0.00506  Biso   1.000  C
  C2299    1.0000 0.29262  0.44584  0.17930  Biso   1.000  C
  C2300    1.0000 0.27600  0.46194  0.16351  Biso   1.000  C
  C2301    1.0000 0.36772  0.42561  0.15625  Biso   1.000  C
  C2302    1.0000 0.36726  0.44935  0.13421  Biso   1.000  C
  C2303    1.0000 0.37234  0.43455  0.13009  Biso   1.000  C
  C2304    1.0000 0.84782  0.41733  0.56350  Biso   1.000  C
  C2305    1.0000 0.30767  0.49058  0.10818  Biso   1.000  C
  C2306    1.0000 0.32977  0.48426  0.08529  Biso   1.000  C
  C2307    1.0000 0.33446  0.48912  0.09986  Biso   1.000  C
  C2308    1.0000 0.81559  0.88975  0.87109  Biso   1.000  C
  C2309    1.0000 0.99532  0.31032  0.41798  Biso   1.000  C
  C2310    1.0000 0.93817  0.25847  0.50457  Biso   1.000  C
  C2311    1.0000 0.27730  0.95937  0.65866  Biso   1.000  C
  C2312    1.0000 0.35575  0.94016  0.66075  Biso   1.000  C
  C2313    1.0000 0.37331  0.94973  0.64120  Biso   1.000  C
  C2314    1.0000 0.37765  0.93445  0.63762  Biso   1.000  C
  C2315    1.0000 0.84758  0.91976  0.06884  Biso   1.000  C
  C2316    1.0000 0.85697  0.91055  0.07844  Biso   1.000  C
  C2317    1.0000 0.31344  0.99739  0.60446  Biso   1.000  C
  C2318    1.0000 0.33287  0.97885  0.58652  Biso   1.000  C
  C2319    1.0000 0.33781  0.98407  0.60089  Biso   1.000  C
  C2320    1.0000 0.32684  0.38899  0.87310  Biso   1.000  C
  C2321    1.0000 0.48197  0.81930  0.41253  Biso   1.000  C
  C2322    1.0000 0.44106  0.76236  0.50170  Biso   1.000  C
  C2323    1.0000 0.79456  0.44325  0.66611  Biso   1.000  C
  C2324    1.0000 0.77464  0.46232  0.67092  Biso   1.000  C
  C2325    1.0000 0.86792  0.42653  0.65529  Biso   1.000  C
  C2326    1.0000 0.86592  0.44991  0.63294  Biso   1.000  C
  C2327    1.0000 0.87075  0.43502  0.62874  Biso   1.000  C
  C2328    1.0000 0.34706  0.41720  0.06523  Biso   1.000  C
  C2329    1.0000 0.80841  0.49151  0.60737  Biso   1.000  C
  C2330    1.0000 0.83082  0.48393  0.58521  Biso   1.000  C
  C2331    1.0000 0.83533  0.48922  0.59973  Biso   1.000  C
  C2332    1.0000 0.31545  0.88992  0.37069  Biso   1.000  C
  C2333    1.0000 0.49588  0.31078  0.91730  Biso   1.000  C
  C2334    1.0000 0.43591  0.25802  0.00404  Biso   1.000  C
  C2335    1.0000 0.79230  0.94611  0.17841  Biso   1.000  C
  C2336    1.0000 0.77525  0.96284  0.16375  Biso   1.000  C
  C2337    1.0000 0.85542  0.94003  0.15880  Biso   1.000  C
  C2338    1.0000 0.87444  0.94986  0.14087  Biso   1.000  C
  C2339    1.0000 0.87901  0.93464  0.13740  Biso   1.000  C
  C2340    1.0000 0.34868  0.91555  0.59120  Biso   1.000  C
  C2341    1.0000 0.81996  0.96903  0.09445  Biso   1.000  C
  C2342    1.0000 0.82398  0.97440  0.10901  Biso   1.000  C
  C2343    1.0000 0.43152  0.36113  0.86949  Biso   1.000  C
  C2344    1.0000 0.25400  0.93656  0.41740  Biso   1.000  C
  C2345    1.0000 0.29020  0.00083  0.51146  Biso   1.000  C
  C2346    1.0000 0.31803  0.99789  0.50938  Biso   1.000  C
  C2347    1.0000 0.97345  0.28680  0.66346  Biso   1.000  C
  C2348    1.0000 0.88406  0.30719  0.65908  Biso   1.000  C
  C2349    1.0000 0.88151  0.29994  0.63218  Biso   1.000  C
  C2350    1.0000 0.87728  0.31515  0.62852  Biso   1.000  C
  C2351    1.0000 0.40375  0.32926  0.06774  Biso   1.000  C
  C2352    1.0000 0.94095  0.26188  0.60943  Biso   1.000  C
  C2353    1.0000 0.92199  0.26292  0.58325  Biso   1.000  C
  C2354    1.0000 0.91623  0.25698  0.59715  Biso   1.000  C
  C2355    1.0000 0.42020  0.86329  0.37372  Biso   1.000  C
  C2356    1.0000 0.26008  0.44338  0.93554  Biso   1.000  C
  C2357    1.0000 0.28951  0.50215  0.01175  Biso   1.000  C
  C2358    1.0000 0.31691  0.49713  0.00848  Biso   1.000  C
  C2359    1.0000 0.97417  0.78645  0.16047  Biso   1.000  C
  C2360    1.0000 0.88429  0.80574  0.15985  Biso   1.000  C
  C2361    1.0000 0.88528  0.79966  0.13253  Biso   1.000  C
  C2362    1.0000 0.88103  0.81489  0.12903  Biso   1.000  C
  C2363    1.0000 0.41422  0.82700  0.58323  Biso   1.000  C
  C2364    1.0000 0.40452  0.83607  0.59246  Biso   1.000  C
  C2365    1.0000 0.94090  0.76057  0.10936  Biso   1.000  C
  C2366    1.0000 0.92096  0.76292  0.08401  Biso   1.000  C
  C2367    1.0000 0.91564  0.75658  0.09789  Biso   1.000  C
  C2368    1.0000 0.92569  0.36218  0.37086  Biso   1.000  C
  C2369    1.0000 0.75455  0.93890  0.91703  Biso   1.000  C
  C2370    1.0000 0.81790  0.99881  0.01069  Biso   1.000  C
  C2371    1.0000 0.47420  0.28574  0.16133  Biso   1.000  C
  C2372    1.0000 0.38487  0.30658  0.15979  Biso   1.000  C
  C2373    1.0000 0.38187  0.29939  0.13290  Biso   1.000  C
  C2374    1.0000 0.37756  0.31458  0.12935  Biso   1.000  C
  C2375    1.0000 0.90490  0.32963  0.56769  Biso   1.000  C
  C2376    1.0000 0.44041  0.26144  0.10885  Biso   1.000  C
  C2377    1.0000 0.42076  0.26277  0.08318  Biso   1.000  C
  C2378    1.0000 0.41537  0.25671  0.09717  Biso   1.000  C
  C2379    1.0000 0.92778  0.85984  0.87083  Biso   1.000  C
  C2380    1.0000 0.75356  0.43935  0.41842  Biso   1.000  C
  C2381    1.0000 0.78858  0.50121  0.51005  Biso   1.000  C
  C2382    1.0000 0.81655  0.49917  0.50932  Biso   1.000  C
  C2383    1.0000 0.47286  0.78901  0.65971  Biso   1.000  C
  C2384    1.0000 0.39891  0.80826  0.64846  Biso   1.000  C
  C2385    1.0000 0.37266  0.79987  0.64347  Biso   1.000  C
  C2386    1.0000 0.36839  0.81520  0.64017  Biso   1.000  C
  C2387    1.0000 0.90598  0.83671  0.06488  Biso   1.000  C
  C2388    1.0000 0.89649  0.84597  0.07424  Biso   1.000  C
  C2389    1.0000 0.44153  0.76053  0.60932  Biso   1.000  C
  C2390    1.0000 0.42309  0.76408  0.58297  Biso   1.000  C
  C2391    1.0000 0.41673  0.75807  0.59654  Biso   1.000  C
  C2392    1.0000 0.75978  0.30673  0.31574  Biso   1.000  C
  C2393    1.0000 0.79312  0.24360  0.23547  Biso   1.000  C
  C2394    1.0000 0.45653  0.94530  0.07293  Biso   1.000  C
  C2395    1.0000 0.47473  0.96331  0.08417  Biso   1.000  C
  C2396    1.0000 0.39050  0.94067  0.09074  Biso   1.000  C
  C2397    1.0000 0.38600  0.92553  0.09451  Biso   1.000  C
  C2398    1.0000 0.37532  0.95044  0.11224  Biso   1.000  C
  C2399    1.0000 0.90385  0.91568  0.68521  Biso   1.000  C
  C2400    1.0000 0.44482  0.98899  0.15779  Biso   1.000  C
  C2401    1.0000 0.43941  0.99328  0.14316  Biso   1.000  C
  C2402    1.0000 0.41891  0.98129  0.16525  Biso   1.000  C
  C2403    1.0000 0.75975  0.80391  0.81750  Biso   1.000  C
  C2404    1.0000 0.78910  0.75038  0.73903  Biso   1.000  C
  C2405    1.0000 0.45675  0.44393  0.57595  Biso   1.000  C
  C2406    1.0000 0.47463  0.46249  0.58678  Biso   1.000  C
  C2407    1.0000 0.38034  0.42668  0.59426  Biso   1.000  C
  C2408    1.0000 0.38402  0.44987  0.61654  Biso   1.000  C
  C2409    1.0000 0.37894  0.43516  0.62094  Biso   1.000  C
  C2410    1.0000 0.90266  0.42090  0.18175  Biso   1.000  C
  C2411    1.0000 0.44131  0.48714  0.63970  Biso   1.000  C
  C2412    1.0000 0.42171  0.48740  0.66546  Biso   1.000  C
  C2413    1.0000 0.41641  0.49292  0.65126  Biso   1.000  C
  C2414    1.0000 0.25223  0.31421  0.83344  Biso   1.000  C
  C2415    1.0000 0.28858  0.24679  0.73876  Biso   1.000  C
  C2416    1.0000 0.31640  0.25010  0.74053  Biso   1.000  C
  C2417    1.0000 0.95632  0.94582  0.57237  Biso   1.000  C
  C2418    1.0000 0.97487  0.96431  0.58221  Biso   1.000  C
  C2419    1.0000 0.88884  0.94085  0.59048  Biso   1.000  C
  C2420    1.0000 0.88410  0.92567  0.59408  Biso   1.000  C
  C2421    1.0000 0.87754  0.95003  0.61443  Biso   1.000  C
  C2422    1.0000 0.40354  0.92179  0.17893  Biso   1.000  C
  C2423    1.0000 0.94016  0.99364  0.66202  Biso   1.000  C
  C2424    1.0000 0.93618  0.99901  0.64725  Biso   1.000  C
  C2425    1.0000 0.92636  0.96970  0.65680  Biso   1.000  C
  C2426    1.0000 0.26059  0.80453  0.31598  Biso   1.000  C
  C2427    1.0000 0.31769  0.75068  0.23889  Biso   1.000  C
  C2428    1.0000 0.95903  0.44539  0.07276  Biso   1.000  C
  C2429    1.0000 0.97370  0.46183  0.09007  Biso   1.000  C
  C2430    1.0000 0.88528  0.44184  0.08996  Biso   1.000  C
  C2431    1.0000 0.88335  0.44932  0.11687  Biso   1.000  C
  C2432    1.0000 0.87845  0.43436  0.12066  Biso   1.000  C
  C2433    1.0000 0.40217  0.42131  0.68203  Biso   1.000  C
  C2434    1.0000 0.93862  0.47931  0.13867  Biso   1.000  C
  C2435    1.0000 0.92790  0.49326  0.16595  Biso   1.000  C
  C2436    1.0000 0.92315  0.49893  0.15162  Biso   1.000  C
  C2437    1.0000 0.22213  0.27002  0.80271  Biso   1.000  C
  C2438    1.0000 0.08328  0.93499  0.48272  Biso   1.000  C
  C2439    1.0000 0.09706  0.96897  0.39248  Biso   1.000  C
  C2440    1.0000 0.11314  0.90570  0.37454  Biso   1.000  C
  C2441    1.0000 0.18309  0.97242  0.44020  Biso   1.000  C
  C2442    1.0000 0.12528  0.99734  0.41799  Biso   1.000  C
  C2443    1.0000 0.22298  0.76781  0.30151  Biso   1.000  C
  C2444    1.0000 0.08213  0.43487  0.98404  Biso   1.000  C
  C2445    1.0000 0.09797  0.47101  0.89397  Biso   1.000  C
  C2446    1.0000 0.11393  0.40861  0.87291  Biso   1.000  C
  C2447    1.0000 0.18221  0.47281  0.94108  Biso   1.000  C
  C2448    1.0000 0.12369  0.49849  0.92376  Biso   1.000  C
  C2449    1.0000 0.72341  0.27053  0.30242  Biso   1.000  C
  C2450    1.0000 0.58386  0.93477  0.98304  Biso   1.000  C
  C2451    1.0000 0.59670  0.96825  0.89290  Biso   1.000  C
  C2452    1.0000 0.61293  0.90520  0.87507  Biso   1.000  C
  C2453    1.0000 0.68218  0.97265  0.94019  Biso   1.000  C
  C2454    1.0000 0.62513  0.99780  0.91735  Biso   1.000  C
  C2455    1.0000 0.72243  0.76831  0.79992  Biso   1.000  C
  C2456    1.0000 0.58025  0.43547  0.48460  Biso   1.000  C
  C2457    1.0000 0.59909  0.46951  0.39426  Biso   1.000  C
  C2458    1.0000 0.61207  0.40662  0.37380  Biso   1.000  C
  C2459    1.0000 0.68067  0.47210  0.44116  Biso   1.000  C
  C2460    1.0000 0.62252  0.49777  0.42346  Biso   1.000  C
  C2461    1.0000 0.52944  0.98057  0.30085  Biso   1.000  C
  C2462    1.0000 0.66677  0.31316  0.98447  Biso   1.000  C
  C2463    1.0000 0.65430  0.28126  0.89280  Biso   1.000  C
  C2464    1.0000 0.63882  0.34402  0.87360  Biso   1.000  C
  C2465    1.0000 0.56706  0.27501  0.93859  Biso   1.000  C
  C2466    1.0000 0.62523  0.25194  0.91807  Biso   1.000  C
  C2467    1.0000 0.52849  0.47991  0.80101  Biso   1.000  C
  C2468    1.0000 0.66712  0.81344  0.48555  Biso   1.000  C
  C2469    1.0000 0.65426  0.78134  0.39422  Biso   1.000  C
  C2470    1.0000 0.63885  0.84424  0.37569  Biso   1.000  C
  C2471    1.0000 0.56661  0.77474  0.43893  Biso   1.000  C
  C2472    1.0000 0.62536  0.75171  0.41884  Biso   1.000  C
  C2473    1.0000 0.02840  0.98142  0.80159  Biso   1.000  C
  C2474    1.0000 0.16939  0.31434  0.48362  Biso   1.000  C
  C2475    1.0000 0.15342  0.27959  0.39191  Biso   1.000  C
  C2476    1.0000 0.13801  0.34338  0.37461  Biso   1.000  C
  C2477    1.0000 0.06769  0.27556  0.43812  Biso   1.000  C
  C2478    1.0000 0.12698  0.25124  0.42024  Biso   1.000  C
  C2479    1.0000 0.02957  0.48042  0.30097  Biso   1.000  C
  C2480    1.0000 0.17095  0.81412  0.98256  Biso   1.000  C
  C2481    1.0000 0.15488  0.78163  0.89371  Biso   1.000  C
  C2482    1.0000 0.13672  0.84335  0.87416  Biso   1.000  C
  C2483    1.0000 0.06695  0.77387  0.93886  Biso   1.000  C
  C2484    1.0000 0.12613  0.75221  0.91897  Biso   1.000  C
  C2485    1.0000 0.02706  0.76910  0.94750  Biso   1.000  C
  C2486    1.0000 0.16748  0.43634  0.26603  Biso   1.000  C
  C2487    1.0000 0.15503  0.46886  0.35759  Biso   1.000  C
  C2488    1.0000 0.13751  0.40698  0.37817  Biso   1.000  C
  C2489    1.0000 0.06891  0.47269  0.30942  Biso   1.000  C
  C2490    1.0000 0.12604  0.49792  0.33217  Biso   1.000  C
  C2491    1.0000 0.02870  0.26841  0.44730  Biso   1.000  C
  C2492    1.0000 0.16991  0.93358  0.76805  Biso   1.000  C
  C2493    1.0000 0.15148  0.97047  0.85664  Biso   1.000  C
  C2494    1.0000 0.13664  0.90698  0.87522  Biso   1.000  C
  C2495    1.0000 0.06780  0.97250  0.81056  Biso   1.000  C
  C2496    1.0000 0.12739  0.99617  0.82514  Biso   1.000  C
  C2497    1.0000 0.52742  0.76933  0.44876  Biso   1.000  C
  C2498    1.0000 0.66765  0.43656  0.76513  Biso   1.000  C
  C2499    1.0000 0.65429  0.46932  0.85736  Biso   1.000  C
  C2500    1.0000 0.63691  0.40737  0.87751  Biso   1.000  C
  C2501    1.0000 0.56728  0.47171  0.81053  Biso   1.000  C
  C2502    1.0000 0.62572  0.49604  0.83046  Biso   1.000  C
  C2503    1.0000 0.52831  0.26851  0.94763  Biso   1.000  C
  C2504    1.0000 0.66834  0.93519  0.26666  Biso   1.000  C
  C2505    1.0000 0.65422  0.96931  0.35660  Biso   1.000  C
  C2506    1.0000 0.63880  0.90624  0.37578  Biso   1.000  C
  C2507    1.0000 0.56908  0.97142  0.30931  Biso   1.000  C
  C2508    1.0000 0.62709  0.99568  0.32914  Biso   1.000  C
  C2509    1.0000 0.72021  0.48146  0.44861  Biso   1.000  C
  C2510    1.0000 0.58226  0.81570  0.76826  Biso   1.000  C
  C2511    1.0000 0.59934  0.77977  0.85816  Biso   1.000  C
  C2512    1.0000 0.61299  0.84329  0.87630  Biso   1.000  C
  C2513    1.0000 0.68271  0.77545  0.80747  Biso   1.000  C
  C2514    1.0000 0.62466  0.75133  0.82895  Biso   1.000  C
  C2515    1.0000 0.72122  0.98100  0.94910  Biso   1.000  C
  C2516    1.0000 0.57984  0.31326  0.26770  Biso   1.000  C
  C2517    1.0000 0.59601  0.28147  0.35786  Biso   1.000  C
  C2518    1.0000 0.61148  0.34482  0.37485  Biso   1.000  C
  C2519    1.0000 0.68353  0.27621  0.31202  Biso   1.000  C
  C2520    1.0000 0.62494  0.25296  0.33313  Biso   1.000  C
  C2521    1.0000 0.22217  0.48080  0.94911  Biso   1.000  C
  C2522    1.0000 0.08135  0.81677  0.26777  Biso   1.000  C
  C2523    1.0000 0.09814  0.78013  0.35767  Biso   1.000  C
  C2524    1.0000 0.11259  0.84363  0.37541  Biso   1.000  C
  C2525    1.0000 0.18332  0.77520  0.31010  Biso   1.000  C
  C2526    1.0000 0.12359  0.75231  0.32894  Biso   1.000  C
  C2527    1.0000 0.22184  0.98002  0.44956  Biso   1.000  C
  C2528    1.0000 0.08030  0.31365  0.76741  Biso   1.000  C
  C2529    1.0000 0.09552  0.28226  0.85727  Biso   1.000  C
  C2530    1.0000 0.11290  0.34486  0.87523  Biso   1.000  C
  C2531    1.0000 0.18251  0.27557  0.81150  Biso   1.000  C
  C2532    1.0000 0.12440  0.25247  0.83284  Biso   1.000  C
  C2533    1.0000 0.80451  0.22139  0.27157  Biso   1.000  C
  C2534    1.0000 0.48224  0.07936  0.93528  Biso   1.000  C
  C2535    1.0000 0.39261  0.09527  0.96979  Biso   1.000  C
  C2536    1.0000 0.37387  0.10998  0.90620  Biso   1.000  C
  C2537    1.0000 0.43984  0.18328  0.97330  Biso   1.000  C
  C2538    1.0000 0.41823  0.12498  0.99630  Biso   1.000  C
  C2539    1.0000 0.80160  0.72108  0.76921  Biso   1.000  C
  C2540    1.0000 0.48444  0.58359  0.43671  Biso   1.000  C
  C2541    1.0000 0.39270  0.59546  0.46938  Biso   1.000  C
  C2542    1.0000 0.37392  0.61064  0.40596  Biso   1.000  C
  C2543    1.0000 0.43969  0.68353  0.47564  Biso   1.000  C
  C2544    1.0000 0.41717  0.62515  0.49795  Biso   1.000  C
  C2545    1.0000 0.30290  0.22144  0.77116  Biso   1.000  C
  C2546    1.0000 0.98390  0.08198  0.43600  Biso   1.000  C
  C2547    1.0000 0.89303  0.09514  0.46953  Biso   1.000  C
  C2548    1.0000 0.87389  0.10938  0.40639  Biso   1.000  C
  C2549    1.0000 0.94048  0.18324  0.47387  Biso   1.000  C
  C2550    1.0000 0.91824  0.12508  0.49678  Biso   1.000  C
  C2551    1.0000 0.30310  0.72189  0.26910  Biso   1.000  C
  C2552    1.0000 0.98363  0.58264  0.93695  Biso   1.000  C
  C2553    1.0000 0.89152  0.59534  0.96997  Biso   1.000  C
  C2554    1.0000 0.87347  0.61070  0.90659  Biso   1.000  C
  C2555    1.0000 0.93994  0.68270  0.97385  Biso   1.000  C
  C2556    1.0000 0.91770  0.62468  0.99755  Biso   1.000  C
  C2557    1.0000 0.30447  0.52862  0.98038  Biso   1.000  C
  C2558    1.0000 0.98326  0.66753  0.31458  Biso   1.000  C
  C2559    1.0000 0.89358  0.65123  0.28092  Biso   1.000  C
  C2560    1.0000 0.87534  0.63840  0.34443  Biso   1.000  C
  C2561    1.0000 0.94362  0.56887  0.27758  Biso   1.000  C
  C2562    1.0000 0.92252  0.62631  0.25217  Biso   1.000  C
  C2563    1.0000 0.30431  0.02810  0.48046  Biso   1.000  C
  C2564    1.0000 0.98354  0.16886  0.81300  Biso   1.000  C
  C2565    1.0000 0.89199  0.15400  0.78087  Biso   1.000  C
  C2566    1.0000 0.87135  0.13610  0.84283  Biso   1.000  C
  C2567    1.0000 0.94277  0.06971  0.77592  Biso   1.000  C
  C2568    1.0000 0.92089  0.12783  0.75206  Biso   1.000  C
  C2569    1.0000 0.80333  0.52839  0.47925  Biso   1.000  C
  C2570    1.0000 0.48345  0.66855  0.81420  Biso   1.000  C
  C2571    1.0000 0.39314  0.65362  0.78100  Biso   1.000  C
  C2572    1.0000 0.37391  0.63619  0.84367  Biso   1.000  C
  C2573    1.0000 0.44366  0.56976  0.77621  Biso   1.000  C
  C2574    1.0000 0.42135  0.62809  0.75308  Biso   1.000  C
  C2575    1.0000 0.80428  0.02866  0.98122  Biso   1.000  C
  C2576    1.0000 0.48378  0.16772  0.31296  Biso   1.000  C
  C2577    1.0000 0.39218  0.15320  0.28095  Biso   1.000  C
  C2578    1.0000 0.37223  0.13610  0.34341  Biso   1.000  C
  C2579    1.0000 0.44225  0.06828  0.27656  Biso   1.000  C
  C2580    1.0000 0.42042  0.12633  0.25213  Biso   1.000  C
  C2581    1.0000 0.94595  0.02962  0.76875  Biso   1.000  C
  C2582    1.0000 0.26614  0.16654  0.43577  Biso   1.000  C
  C2583    1.0000 0.35606  0.15334  0.46906  Biso   1.000  C
  C2584    1.0000 0.37717  0.13642  0.40703  Biso   1.000  C
  C2585    1.0000 0.30806  0.06800  0.47398  Biso   1.000  C
  C2586    1.0000 0.33051  0.12477  0.49947  Biso   1.000  C
  C2587    1.0000 0.94590  0.52879  0.26996  Biso   1.000  C
  C2588    1.0000 0.26610  0.66571  0.93607  Biso   1.000  C
  C2589    1.0000 0.35760  0.65364  0.96901  Biso   1.000  C
  C2590    1.0000 0.37848  0.63561  0.90721  Biso   1.000  C
  C2591    1.0000 0.30901  0.56856  0.97379  Biso   1.000  C
  C2592    1.0000 0.33256  0.62505  0.99922  Biso   1.000  C
  C2593    1.0000 0.44559  0.02737  0.27070  Biso   1.000  C
  C2594    1.0000 0.76553  0.16645  0.93592  Biso   1.000  C
  C2595    1.0000 0.85650  0.15279  0.96804  Biso   1.000  C
  C2596    1.0000 0.87744  0.13614  0.90613  Biso   1.000  C
  C2597    1.0000 0.80799  0.06850  0.97463  Biso   1.000  C
  C2598    1.0000 0.83092  0.12521  0.99987  Biso   1.000  C
  C2599    1.0000 0.44719  0.52978  0.76784  Biso   1.000  C
  C2600    1.0000 0.76642  0.66846  0.43616  Biso   1.000  C
  C2601    1.0000 0.85541  0.65386  0.46948  Biso   1.000  C
  C2602    1.0000 0.87571  0.63835  0.40656  Biso   1.000  C
  C2603    1.0000 0.80760  0.56807  0.47252  Biso   1.000  C
  C2604    1.0000 0.82952  0.62545  0.49788  Biso   1.000  C
  C2605    1.0000 0.44621  0.72381  0.48128  Biso   1.000  C
  C2606    1.0000 0.76689  0.58238  0.81464  Biso   1.000  C
  C2607    1.0000 0.85746  0.59466  0.78153  Biso   1.000  C
  C2608    1.0000 0.87631  0.60935  0.84467  Biso   1.000  C
  C2609    1.0000 0.81154  0.68253  0.77693  Biso   1.000  C
  C2610    1.0000 0.83235  0.62438  0.75354  Biso   1.000  C
  C2611    1.0000 0.44556  0.22346  0.97837  Biso   1.000  C
  C2612    1.0000 0.76634  0.08331  0.31411  Biso   1.000  C
  C2613    1.0000 0.85770  0.09605  0.28132  Biso   1.000  C
  C2614    1.0000 0.87655  0.11136  0.34450  Biso   1.000  C
  C2615    1.0000 0.80743  0.18104  0.27847  Biso   1.000  C
  C2616    1.0000 0.83250  0.12490  0.25302  Biso   1.000  C
  C2617    1.0000 0.94498  0.72300  0.98020  Biso   1.000  C
  C2618    1.0000 0.26733  0.58251  0.31494  Biso   1.000  C
  C2619    1.0000 0.35931  0.59695  0.28026  Biso   1.000  C
  C2620    1.0000 0.37656  0.61211  0.34390  Biso   1.000  C
  C2621    1.0000 0.31257  0.68281  0.27664  Biso   1.000  C
  C2622    1.0000 0.33124  0.62395  0.25258  Biso   1.000  C
  C2623    1.0000 0.94690  0.22338  0.47937  Biso   1.000  C
  C2624    1.0000 0.26597  0.08255  0.81464  Biso   1.000  C
  C2625    1.0000 0.35684  0.09523  0.78102  Biso   1.000  C
  C2626    1.0000 0.37611  0.11085  0.84413  Biso   1.000  C
  C2627    1.0000 0.30687  0.18187  0.77804  Biso   1.000  C
  C2628    1.0000 0.33052  0.12450  0.75414  Biso   1.000  C
  C2629    1.0000 0.27040  0.80282  0.22216  Biso   1.000  C
  C2630    1.0000 0.93543  0.48168  0.08047  Biso   1.000  C
  C2631    1.0000 0.96888  0.39298  0.09764  Biso   1.000  C
  C2632    1.0000 0.90542  0.37431  0.11180  Biso   1.000  C
  C2633    1.0000 0.97513  0.44227  0.18371  Biso   1.000  C
  C2634    1.0000 0.99795  0.41826  0.12588  Biso   1.000  C
  C2635    1.0000 0.26938  0.30081  0.72258  Biso   1.000  C
  C2636    1.0000 0.93446  0.98293  0.58032  Biso   1.000  C
  C2637    1.0000 0.97013  0.89437  0.59844  Biso   1.000  C
  C2638    1.0000 0.90711  0.87368  0.61097  Biso   1.000  C
  C2639    1.0000 0.97328  0.94453  0.68098  Biso   1.000  C
  C2640    1.0000 0.99874  0.92360  0.62265  Biso   1.000  C
  C2641    1.0000 0.77217  0.80536  0.72299  Biso   1.000  C
  C2642    1.0000 0.43499  0.48191  0.58105  Biso   1.000  C
  C2643    1.0000 0.46814  0.39225  0.59865  Biso   1.000  C
  C2644    1.0000 0.40476  0.37421  0.61303  Biso   1.000  C
  C2645    1.0000 0.47469  0.44028  0.68339  Biso   1.000  C
  C2646    1.0000 0.49839  0.41757  0.62583  Biso   1.000  C
  C2647    1.0000 0.77067  0.30125  0.22365  Biso   1.000  C
  C2648    1.0000 0.43446  0.98230  0.08138  Biso   1.000  C
  C2649    1.0000 0.47066  0.89337  0.09843  Biso   1.000  C
  C2650    1.0000 0.40726  0.87348  0.11063  Biso   1.000  C
  C2651    1.0000 0.47451  0.94227  0.18116  Biso   1.000  C
  C2652    1.0000 0.49952  0.92231  0.12281  Biso   1.000  C
  C2653    1.0000 0.98170  0.30410  0.52670  Biso   1.000  C
  C2654    1.0000 0.31311  0.98348  0.66781  Biso   1.000  C
  C2655    1.0000 0.28076  0.89134  0.65361  Biso   1.000  C
  C2656    1.0000 0.34359  0.87286  0.63725  Biso   1.000  C
  C2657    1.0000 0.27727  0.94224  0.56831  Biso   1.000  C
  C2658    1.0000 0.25331  0.91952  0.62638  Biso   1.000  C
  C2659    1.0000 0.98025  0.80380  0.02686  Biso   1.000  C
  C2660    1.0000 0.31464  0.48260  0.17017  Biso   1.000  C
  C2661    1.0000 0.28072  0.39185  0.15163  Biso   1.000  C
  C2662    1.0000 0.34391  0.37244  0.13746  Biso   1.000  C
  C2663    1.0000 0.27655  0.44306  0.06860  Biso   1.000  C
  C2664    1.0000 0.25304  0.42110  0.12681  Biso   1.000  C
  C2665    1.0000 0.48015  0.30365  0.02592  Biso   1.000  C
  C2666    1.0000 0.81354  0.98357  0.16951  Biso   1.000  C
  C2667    1.0000 0.78079  0.89046  0.15455  Biso   1.000  C
  C2668    1.0000 0.84365  0.87113  0.13882  Biso   1.000  C
  C2669    1.0000 0.77656  0.94151  0.06769  Biso   1.000  C
  C2670    1.0000 0.75366  0.91762  0.12560  Biso   1.000  C
  C2671    1.0000 0.48258  0.80380  0.52850  Biso   1.000  C
  C2672    1.0000 0.81453  0.48206  0.66865  Biso   1.000  C
  C2673    1.0000 0.78003  0.39120  0.65044  Biso   1.000  C
  C2674    1.0000 0.84336  0.37276  0.63580  Biso   1.000  C
  C2675    1.0000 0.77769  0.44292  0.56852  Biso   1.000  C
  C2676    1.0000 0.75274  0.42049  0.62597  Biso   1.000  C
  C2677    1.0000 0.77105  0.94546  0.02750  Biso   1.000  C
  C2678    1.0000 0.43472  0.26653  0.16745  Biso   1.000  C
  C2679    1.0000 0.46892  0.35634  0.15308  Biso   1.000  C
  C2680    1.0000 0.40595  0.37642  0.13861  Biso   1.000  C
  C2681    1.0000 0.47565  0.30849  0.06614  Biso   1.000  C
  C2682    1.0000 0.49933  0.33125  0.12370  Biso   1.000  C
  C2683    1.0000 0.77037  0.44605  0.52798  Biso   1.000  C
  C2684    1.0000 0.43590  0.76587  0.66674  Biso   1.000  C
  C2685    1.0000 0.46932  0.85879  0.65538  Biso   1.000  C
  C2686    1.0000 0.40676  0.87793  0.63895  Biso   1.000  C
  C2687    1.0000 0.47572  0.81250  0.56774  Biso   1.000  C
  C2688    1.0000 0.49777  0.83124  0.62745  Biso   1.000  C
  C2689    1.0000 0.27102  0.94551  0.52815  Biso   1.000  C
  C2690    1.0000 0.93377  0.26760  0.66774  Biso   1.000  C
  C2691    1.0000 0.96781  0.35791  0.65457  Biso   1.000  C
  C2692    1.0000 0.90524  0.37736  0.63844  Biso   1.000  C
  C2693    1.0000 0.97673  0.30919  0.56704  Biso   1.000  C
  C2694    1.0000 0.99819  0.33288  0.62516  Biso   1.000  C
  C2695    1.0000 0.27007  0.44488  0.02800  Biso   1.000  C
  C2696    1.0000 0.93531  0.76652  0.16793  Biso   1.000  C
  C2697    1.0000 0.96885  0.85592  0.15360  Biso   1.000  C
  C2698    1.0000 0.90555  0.87605  0.14048  Biso   1.000  C
  C2699    1.0000 0.97638  0.80809  0.06734  Biso   1.000  C
  C2700    1.0000 0.99973  0.83098  0.12472  Biso   1.000  C
  C2701    1.0000 0.47931  0.44556  0.72343  Biso   1.000  C
  C2702    1.0000 0.81433  0.76793  0.58266  Biso   1.000  C
  C2703    1.0000 0.78138  0.85648  0.59796  Biso   1.000  C
  C2704    1.0000 0.84507  0.87506  0.61129  Biso   1.000  C
  C2705    1.0000 0.77793  0.80868  0.68221  Biso   1.000  C
  C2706    1.0000 0.75117  0.83198  0.62606  Biso   1.000  C
  C2707    1.0000 0.48172  0.94937  0.22099  Biso   1.000  C
  C2708    1.0000 0.81309  0.26579  0.08128  Biso   1.000  C
  C2709    1.0000 0.78042  0.35620  0.09733  Biso   1.000  C
  C2710    1.0000 0.84348  0.37604  0.11207  Biso   1.000  C
  C2711    1.0000 0.77638  0.30542  0.18286  Biso   1.000  C
  C2712    1.0000 0.75228  0.32815  0.12513  Biso   1.000  C
  C2713    1.0000 0.97936  0.44599  0.22375  Biso   1.000  C
  C2714    1.0000 0.31341  0.76510  0.08345  Biso   1.000  C
  C2715    1.0000 0.28237  0.85744  0.09551  Biso   1.000  C
  C2716    1.0000 0.34518  0.87684  0.10952  Biso   1.000  C
  C2717    1.0000 0.27744  0.81238  0.18290  Biso   1.000  C
  C2718    1.0000 0.25184  0.83422  0.12577  Biso   1.000  C
  C2719    1.0000 0.98023  0.94688  0.72169  Biso   1.000  C
  C2720    1.0000 0.31316  0.26686  0.58222  Biso   1.000  C
  C2721    1.0000 0.28068  0.35790  0.59739  Biso   1.000  C
  C2722    1.0000 0.34293  0.37821  0.61178  Biso   1.000  C
  C2723    1.0000 0.27546  0.30586  0.68216  Biso   1.000  C
  C2724    1.0000 0.25086  0.33177  0.62628  Biso   1.000  C
  C2725    1.0000 0.01992  0.47179  0.69931  Biso   1.000  C
  C2726    1.0000 0.68574  0.33272  0.01621  Biso   1.000  C
  C2727    1.0000 0.71862  0.34383  0.10905  Biso   1.000  C
  C2728    1.0000 0.65716  0.36277  0.12903  Biso   1.000  C
  C2729    1.0000 0.72338  0.43119  0.05895  Biso   1.000  C
  C2730    1.0000 0.74616  0.37390  0.08478  Biso   1.000  C
  C2731    1.0000 0.01850  0.97149  0.19732  Biso   1.000  C
  C2732    1.0000 0.68629  0.83349  0.51660  Biso   1.000  C
  C2733    1.0000 0.71848  0.84783  0.60734  Biso   1.000  C
  C2734    1.0000 0.65507  0.86256  0.62580  Biso   1.000  C
  C2735    1.0000 0.72461  0.93288  0.56011  Biso   1.000  C
  C2736    1.0000 0.74914  0.87584  0.58272  Biso   1.000  C
  C2737    1.0000 0.51922  0.47032  0.19697  Biso   1.000  C
  C2738    1.0000 0.18488  0.33060  0.51889  Biso   1.000  C
  C2739    1.0000 0.21827  0.34726  0.60755  Biso   1.000  C
  C2740    1.0000 0.15516  0.36225  0.62609  Biso   1.000  C
  C2741    1.0000 0.22315  0.43355  0.56238  Biso   1.000  C
  C2742    1.0000 0.24799  0.37605  0.58352  Biso   1.000  C
  C2743    1.0000 0.51771  0.97201  0.69773  Biso   1.000  C
  C2744    1.0000 0.18584  0.83137  0.01745  Biso   1.000  C
  C2745    1.0000 0.21958  0.84866  0.10606  Biso   1.000  C
  C2746    1.0000 0.15629  0.86146  0.12516  Biso   1.000  C
  C2747    1.0000 0.22504  0.93145  0.05574  Biso   1.000  C
  C2748    1.0000 0.25005  0.87503  0.07953  Biso   1.000  C
  C2749    1.0000 0.73139  0.77643  0.19760  Biso   1.000  C
  C2750    1.0000 0.06360  0.91697  0.51461  Biso   1.000  C
  C2751    1.0000 0.03074  0.90396  0.60655  Biso   1.000  C
  C2752    1.0000 0.09438  0.89064  0.62522  Biso   1.000  C
  C2753    1.0000 0.02430  0.81781  0.56161  Biso   1.000  C
  C2754    1.0000 0.00195  0.87757  0.57971  Biso   1.000  C
  C2755    1.0000 0.73096  0.27784  0.69838  Biso   1.000  C
  C2756    1.0000 0.06464  0.41613  0.01736  Biso   1.000  C
  C2757    1.0000 0.03141  0.40343  0.10835  Biso   1.000  C
  C2758    1.0000 0.09492  0.38808  0.12660  Biso   1.000  C
  C2759    1.0000 0.02601  0.31722  0.05914  Biso   1.000  C
  C2760    1.0000 0.00186  0.37425  0.08309  Biso   1.000  C
  C2761    1.0000 0.22993  0.77725  0.69470  Biso   1.000  C
  C2762    1.0000 0.56403  0.91721  0.01485  Biso   1.000  C
  C2763    1.0000 0.53133  0.90315  0.10634  Biso   1.000  C
  C2764    1.0000 0.59324  0.88616  0.12774  Biso   1.000  C
  C2765    1.0000 0.52725  0.81740  0.06262  Biso   1.000  C
  C2766    1.0000 0.50276  0.87693  0.07936  Biso   1.000  C
  C2767    1.0000 0.23172  0.27801  0.19897  Biso   1.000  C
  C2768    1.0000 0.56281  0.41551  0.51690  Biso   1.000  C
  C2769    1.0000 0.53083  0.40264  0.60742  Biso   1.000  C
  C2770    1.0000 0.59441  0.38859  0.62581  Biso   1.000  C
  C2771    1.0000 0.52556  0.31633  0.56113  Biso   1.000  C
  C2772    1.0000 0.50056  0.37331  0.58338  Biso   1.000  C
  C2773    1.0000 0.51771  0.27763  0.55153  Biso   1.000  C
  C2774    1.0000 0.18686  0.41718  0.23429  Biso   1.000  C
  C2775    1.0000 0.22022  0.40182  0.14210  Biso   1.000  C
  C2776    1.0000 0.15693  0.38691  0.12389  Biso   1.000  C
  C2777    1.0000 0.22451  0.31695  0.18977  Biso   1.000  C
  C2778    1.0000 0.24857  0.37564  0.17020  Biso   1.000  C
  C2779    1.0000 0.51756  0.77860  0.05454  Biso   1.000  C
  C2780    1.0000 0.18510  0.91863  0.73267  Biso   1.000  C
  C2781    1.0000 0.22039  0.90055  0.64123  Biso   1.000  C
  C2782    1.0000 0.15652  0.88634  0.62305  Biso   1.000  C
  C2783    1.0000 0.22174  0.81701  0.68743  Biso   1.000  C
  C2784    1.0000 0.24714  0.87619  0.67194  Biso   1.000  C
  C2785    1.0000 0.01882  0.27710  0.05452  Biso   1.000  C
  C2786    1.0000 0.68661  0.41725  0.73331  Biso   1.000  C
  C2787    1.0000 0.71957  0.40138  0.64115  Biso   1.000  C
  C2788    1.0000 0.65629  0.38613  0.62307  Biso   1.000  C
  C2789    1.0000 0.72382  0.31669  0.68918  Biso   1.000  C
  C2790    1.0000 0.74799  0.37514  0.66930  Biso   1.000  C
  C2791    1.0000 0.01600  0.77882  0.55300  Biso   1.000  C
  C2792    1.0000 0.68726  0.91665  0.23453  Biso   1.000  C
  C2793    1.0000 0.71914  0.90450  0.14267  Biso   1.000  C
  C2794    1.0000 0.65639  0.88738  0.12368  Biso   1.000  C
  C2795    1.0000 0.72444  0.81533  0.18804  Biso   1.000  C
  C2796    1.0000 0.74657  0.87486  0.16900  Biso   1.000  C
  C2797    1.0000 0.23026  0.97229  0.05119  Biso   1.000  C
  C2798    1.0000 0.56626  0.83067  0.73312  Biso   1.000  C
  C2799    1.0000 0.52984  0.84927  0.64433  Biso   1.000  C
  C2800    1.0000 0.59300  0.86388  0.62472  Biso   1.000  C
  C2801    1.0000 0.52605  0.93254  0.68852  Biso   1.000  C
  C2802    1.0000 0.50254  0.87252  0.67498  Biso   1.000  C
  C2803    1.0000 0.22975  0.47283  0.55270  Biso   1.000  C
  C2804    1.0000 0.56406  0.33023  0.23289  Biso   1.000  C
  C2805    1.0000 0.53153  0.34508  0.14236  Biso   1.000  C
  C2806    1.0000 0.59392  0.36277  0.12347  Biso   1.000  C
  C2807    1.0000 0.52627  0.43043  0.19226  Biso   1.000  C
  C2808    1.0000 0.50165  0.37386  0.16802  Biso   1.000  C
  C2809    1.0000 0.73110  0.97254  0.55100  Biso   1.000  C
  C2810    1.0000 0.06589  0.83296  0.23250  Biso   1.000  C
  C2811    1.0000 0.03167  0.84594  0.14310  Biso   1.000  C
  C2812    1.0000 0.09457  0.86158  0.12326  Biso   1.000  C
  C2813    1.0000 0.02559  0.93250  0.18828  Biso   1.000  C
  C2814    1.0000 0.00104  0.87459  0.16821  Biso   1.000  C
  C2815    1.0000 0.73048  0.47135  0.05436  Biso   1.000  C
  C2816    1.0000 0.06375  0.33036  0.73298  Biso   1.000  C
  C2817    1.0000 0.03031  0.34675  0.64420  Biso   1.000  C
  C2818    1.0000 0.09334  0.36176  0.62494  Biso   1.000  C
  C2819    1.0000 0.02581  0.43127  0.69425  Biso   1.000  C
  C2820    1.0000 0.00046  0.37511  0.66999  Biso   1.000  C
  C2821    1.0000 0.97241  0.05473  0.22964  Biso   1.000  C
  C2822    1.0000 0.82933  0.73308  0.56523  Biso   1.000  C
  C2823    1.0000 0.84402  0.64183  0.53169  Biso   1.000  C
  C2824    1.0000 0.86105  0.62363  0.59464  Biso   1.000  C
  C2825    1.0000 0.93331  0.68733  0.52442  Biso   1.000  C
  C2826    1.0000 0.87344  0.66797  0.50308  Biso   1.000  C
  C2827    1.0000 0.97198  0.55090  0.73146  Biso   1.000  C
  C2828    1.0000 0.83261  0.23469  0.06202  Biso   1.000  C
  C2829    1.0000 0.84656  0.14490  0.03146  Biso   1.000  C
  C2830    1.0000 0.85937  0.12344  0.09385  Biso   1.000  C
  C2831    1.0000 0.93195  0.19119  0.02493  Biso   1.000  C
  C2832    1.0000 0.87522  0.16811  0.99976  Biso   1.000  C
  C2833    1.0000 0.47224  0.05495  0.73056  Biso   1.000  C
  C2834    1.0000 0.33232  0.73408  0.06312  Biso   1.000  C
  C2835    1.0000 0.34689  0.64421  0.03195  Biso   1.000  C
  C2836    1.0000 0.36112  0.62240  0.09406  Biso   1.000  C
  C2837    1.0000 0.43408  0.68854  0.02500  Biso   1.000  C
  C2838    1.0000 0.37477  0.66935  0.00188  Biso   1.000  C
  C2839    1.0000 0.47291  0.55455  0.23034  Biso   1.000  C
  C2840    1.0000 0.33212  0.23541  0.56239  Biso   1.000  C
  C2841    1.0000 0.34530  0.14286  0.53202  Biso   1.000  C
  C2842    1.0000 0.36221  0.12206  0.59418  Biso   1.000  C
  C2843    1.0000 0.43243  0.18830  0.52477  Biso   1.000  C
  C2844    1.0000 0.37419  0.16778  0.50177  Biso   1.000  C
  C2845    1.0000 0.27723  0.55528  0.51979  Biso   1.000  C
  C2846    1.0000 0.41967  0.23183  0.18429  Biso   1.000  C
  C2847    1.0000 0.40082  0.14160  0.22044  Biso   1.000  C
  C2848    1.0000 0.38520  0.12241  0.15719  Biso   1.000  C
  C2849    1.0000 0.31731  0.18780  0.22202  Biso   1.000  C
  C2850    1.0000 0.37633  0.17160  0.24796  Biso   1.000  C
  C2851    1.0000 0.27834  0.05264  0.01723  Biso   1.000  C
  C2852    1.0000 0.41694  0.73405  0.68572  Biso   1.000  C
  C2853    1.0000 0.40190  0.64309  0.72031  Biso   1.000  C
  C2854    1.0000 0.38617  0.62225  0.65759  Biso   1.000  C
  C2855    1.0000 0.31840  0.69202  0.72310  Biso   1.000  C
  C2856    1.0000 0.37655  0.67206  0.74834  Biso   1.000  C
  C2857    1.0000 0.77525  0.55438  0.02143  Biso   1.000  C
  C2858    1.0000 0.91890  0.23299  0.68455  Biso   1.000  C
  C2859    1.0000 0.90125  0.14286  0.72044  Biso   1.000  C
  C2860    1.0000 0.88596  0.12292  0.65740  Biso   1.000  C
  C2861    1.0000 0.81710  0.18830  0.72198  Biso   1.000  C
  C2862    1.0000 0.87612  0.17240  0.74794  Biso   1.000  C
  C2863    1.0000 0.77747  0.05355  0.51901  Biso   1.000  C
  C2864    1.0000 0.92018  0.73197  0.18505  Biso   1.000  C
  C2865    1.0000 0.90267  0.64117  0.22053  Biso   1.000  C
  C2866    1.0000 0.88686  0.62159  0.15763  Biso   1.000  C
  C2867    1.0000 0.81701  0.68792  0.22428  Biso   1.000  C
  C2868    1.0000 0.87617  0.66908  0.24854  Biso   1.000  C
  C2869    1.0000 0.77681  0.19659  0.72968  Biso   1.000  C
  C2870    1.0000 0.91949  0.51700  0.06471  Biso   1.000  C
  C2871    1.0000 0.90474  0.60755  0.03159  Biso   1.000  C
  C2872    1.0000 0.88798  0.62577  0.09412  Biso   1.000  C
  C2873    1.0000 0.81579  0.55949  0.02498  Biso   1.000  C
  C2874    1.0000 0.87485  0.58151  0.00422  Biso   1.000  C
  C2875    1.0000 0.77670  0.69701  0.22946  Biso   1.000  C
  C2876    1.0000 0.91822  0.01820  0.56555  Biso   1.000  C
  C2877    1.0000 0.90486  0.10822  0.53117  Biso   1.000  C
  C2878    1.0000 0.88798  0.12677  0.59374  Biso   1.000  C
  C2879    1.0000 0.81778  0.06200  0.52695  Biso   1.000  C
  C2880    1.0000 0.87718  0.08068  0.50465  Biso   1.000  C
  C2881    1.0000 0.27682  0.19612  0.22937  Biso   1.000  C
  C2882    1.0000 0.41981  0.51716  0.56429  Biso   1.000  C
  C2883    1.0000 0.40436  0.60719  0.53163  Biso   1.000  C
  C2884    1.0000 0.38846  0.62664  0.59411  Biso   1.000  C
  C2885    1.0000 0.31715  0.55855  0.52458  Biso   1.000  C
  C2886    1.0000 0.37586  0.58026  0.50292  Biso   1.000  C
  C2887    1.0000 0.27777  0.69862  0.72969  Biso   1.000  C
  C2888    1.0000 0.41907  0.01782  0.06580  Biso   1.000  C
  C2889    1.0000 0.40552  0.10859  0.03106  Biso   1.000  C
  C2890    1.0000 0.38787  0.12644  0.09354  Biso   1.000  C
  C2891    1.0000 0.31738  0.06178  0.02667  Biso   1.000  C
  C2892    1.0000 0.37697  0.08094  0.00528  Biso   1.000  C
  C2893    1.0000 0.47346  0.69873  0.01922  Biso   1.000  C
  C2894    1.0000 0.33037  0.01586  0.68708  Biso   1.000  C
  C2895    1.0000 0.34439  0.10838  0.71937  Biso   1.000  C
  C2896    1.0000 0.36252  0.12841  0.65747  Biso   1.000  C
  C2897    1.0000 0.43196  0.05910  0.72511  Biso   1.000  C
  C2898    1.0000 0.37327  0.08156  0.74648  Biso   1.000  C
  C2899    1.0000 0.47190  0.19719  0.51911  Biso   1.000  C
  C2900    1.0000 0.33091  0.51755  0.18530  Biso   1.000  C
  C2901    1.0000 0.34903  0.60771  0.21988  Biso   1.000  C
  C2902    1.0000 0.36278  0.62614  0.15619  Biso   1.000  C
  C2903    1.0000 0.43218  0.55766  0.22399  Biso   1.000  C
  C2904    1.0000 0.37365  0.57765  0.24682  Biso   1.000  C
  C2905    1.0000 0.97266  0.69800  0.51829  Biso   1.000  C
  C2906    1.0000 0.83204  0.01589  0.18726  Biso   1.000  C
  C2907    1.0000 0.84656  0.10741  0.21918  Biso   1.000  C
  C2908    1.0000 0.86058  0.12685  0.15583  Biso   1.000  C
  C2909    1.0000 0.93208  0.05860  0.22345  Biso   1.000  C
  C2910    1.0000 0.87464  0.08090  0.24771  Biso   1.000  C
  C2911    1.0000 0.97262  0.19604  0.02016  Biso   1.000  C
  C2912    1.0000 0.82994  0.51694  0.68539  Biso   1.000  C
  C2913    1.0000 0.84671  0.60745  0.71972  Biso   1.000  C
  C2914    1.0000 0.86375  0.62574  0.65672  Biso   1.000  C
  C2915    1.0000 0.93249  0.56027  0.72321  Biso   1.000  C
  C2916    1.0000 0.87378  0.58014  0.74655  Biso   1.000  C
  C2917    1.0000 0.55177  0.51877  0.27851  Biso   1.000  C
  C2918    1.0000 0.23404  0.18577  0.41727  Biso   1.000  C
  C2919    1.0000 0.14289  0.21923  0.40198  Biso   1.000  C
  C2920    1.0000 0.12243  0.15694  0.38517  Biso   1.000  C
  C2921    1.0000 0.19400  0.22337  0.31877  Biso   1.000  C
  C2922    1.0000 0.17330  0.24807  0.37686  Biso   1.000  C
  C2923    1.0000 0.55139  0.01794  0.77811  Biso   1.000  C
  C2924    1.0000 0.23461  0.68551  0.91630  Biso   1.000  C
  C2925    1.0000 0.14279  0.71937  0.90429  Biso   1.000  C
  C2926    1.0000 0.12230  0.65750  0.88783  Biso   1.000  C
  C2927    1.0000 0.19181  0.72529  0.81736  Biso   1.000  C
  C2928    1.0000 0.16855  0.74893  0.87487  Biso   1.000  C
  C2929    1.0000 0.05365  0.51899  0.77964  Biso   1.000  C
  C2930    1.0000 0.73331  0.18541  0.91670  Biso   1.000  C
  C2931    1.0000 0.64213  0.21900  0.90358  Biso   1.000  C
  C2932    1.0000 0.62190  0.15648  0.88882  Biso   1.000  C
  C2933    1.0000 0.69166  0.22336  0.81766  Biso   1.000  C
  C2934    1.0000 0.66834  0.24820  0.87479  Biso   1.000  C
  C2935    1.0000 0.05446  0.01989  0.27579  Biso   1.000  C
  C2936    1.0000 0.73477  0.68757  0.41765  Biso   1.000  C
  C2937    1.0000 0.64359  0.71889  0.40481  Biso   1.000  C
  C2938    1.0000 0.62425  0.65650  0.38752  Biso   1.000  C
  C2939    1.0000 0.69256  0.72432  0.31872  Biso   1.000  C
  C2940    1.0000 0.66939  0.74846  0.37623  Biso   1.000  C
  C2941    1.0000 0.05059  0.22963  0.97173  Biso   1.000  C
  C2942    1.0000 0.73361  0.56395  0.83244  Biso   1.000  C
  C2943    1.0000 0.64193  0.53085  0.84459  Biso   1.000  C
  C2944    1.0000 0.62355  0.59438  0.85917  Biso   1.000  C
  C2945    1.0000 0.69189  0.52546  0.93225  Biso   1.000  C
  C2946    1.0000 0.66808  0.50349  0.87392  Biso   1.000  C
  C2947    1.0000 0.05532  0.73014  0.47316  Biso   1.000  C
  C2948    1.0000 0.73384  0.06449  0.33268  Biso   1.000  C
  C2949    1.0000 0.64270  0.03096  0.34393  Biso   1.000  C
  C2950    1.0000 0.62421  0.09462  0.35832  Biso   1.000  C
  C2951    1.0000 0.69165  0.02616  0.43210  Biso   1.000  C
  C2952    1.0000 0.66814  0.00366  0.37384  Biso   1.000  C
  C2953    1.0000 0.55432  0.22795  0.47293  Biso   1.000  C
  C2954    1.0000 0.23408  0.56448  0.33332  Biso   1.000  C
  C2955    1.0000 0.14374  0.53122  0.34622  Biso   1.000  C
  C2956    1.0000 0.12395  0.59461  0.35968  Biso   1.000  C
  C2957    1.0000 0.19045  0.52522  0.43303  Biso   1.000  C
  C2958    1.0000 0.16956  0.50179  0.37502  Biso   1.000  C
  C2959    1.0000 0.55576  0.72967  0.97320  Biso   1.000  C
  C2960    1.0000 0.23355  0.06406  0.83259  Biso   1.000  C
  C2961    1.0000 0.14015  0.03030  0.84385  Biso   1.000  C
  C2962    1.0000 0.12243  0.09367  0.86019  Biso   1.000  C
  C2963    1.0000 0.19069  0.02689  0.93149  Biso   1.000  C
  C2964    1.0000 0.16859  0.00419  0.87238  Biso   1.000  C
  C2965    1.0000 0.69603  0.02035  0.47257  Biso   1.000  C
  C2966    1.0000 0.01602  0.68610  0.33254  Biso   1.000  C
  C2967    1.0000 0.10753  0.71972  0.34711  Biso   1.000  C
  C2968    1.0000 0.12735  0.65662  0.36005  Biso   1.000  C
  C2969    1.0000 0.05994  0.72467  0.43271  Biso   1.000  C
  C2970    1.0000 0.07940  0.74766  0.37365  Biso   1.000  C
  C2971    1.0000 0.69603  0.51916  0.97256  Biso   1.000  C
  C2972    1.0000 0.01527  0.18731  0.83312  Biso   1.000  C
  C2973    1.0000 0.10722  0.21964  0.84747  Biso   1.000  C
  C2974    1.0000 0.12783  0.15722  0.86337  Biso   1.000  C
  C2975    1.0000 0.05928  0.22342  0.93223  Biso   1.000  C
  C2976    1.0000 0.08106  0.24974  0.87595  Biso   1.000  C
  C2977    1.0000 0.19461  0.01946  0.97173  Biso   1.000  C
  C2978    1.0000 0.51630  0.68685  0.83215  Biso   1.000  C
  C2979    1.0000 0.60878  0.71930  0.84784  Biso   1.000  C
  C2980    1.0000 0.62795  0.65616  0.86104  Biso   1.000  C
  C2981    1.0000 0.56040  0.72416  0.93280  Biso   1.000  C
  C2982    1.0000 0.58067  0.74733  0.87414  Biso   1.000  C
  C2983    1.0000 0.19850  0.51935  0.47279  Biso   1.000  C
  C2984    1.0000 0.51556  0.18659  0.33282  Biso   1.000  C
  C2985    1.0000 0.60861  0.21953  0.34743  Biso   1.000  C
  C2986    1.0000 0.62772  0.15656  0.36101  Biso   1.000  C
  C2987    1.0000 0.55866  0.22210  0.43242  Biso   1.000  C
  C2988    1.0000 0.58194  0.24827  0.37620  Biso   1.000  C
  C2989    1.0000 0.19541  0.72989  0.77675  Biso   1.000  C
  C2990    1.0000 0.51741  0.06355  0.91924  Biso   1.000  C
  C2991    1.0000 0.60687  0.03084  0.90312  Biso   1.000  C
  C2992    1.0000 0.62549  0.09436  0.88874  Biso   1.000  C
  C2993    1.0000 0.56068  0.02452  0.81722  Biso   1.000  C
  C2994    1.0000 0.58150  0.00046  0.87460  Biso   1.000  C
  C2995    1.0000 0.19666  0.23018  0.27809  Biso   1.000  C
  C2996    1.0000 0.51605  0.56418  0.41783  Biso   1.000  C
  C2997    1.0000 0.60752  0.53005  0.40391  Biso   1.000  C
  C2998    1.0000 0.62751  0.59288  0.38793  Biso   1.000  C
  C2999    1.0000 0.56111  0.52546  0.31791  Biso   1.000  C
  C3000    1.0000 0.58027  0.50125  0.37704  Biso   1.000  C
  C3001    1.0000 0.69489  0.73022  0.27794  Biso   1.000  C
  C3002    1.0000 0.01609  0.06246  0.41750  Biso   1.000  C
  C3003    1.0000 0.10815  0.03136  0.40363  Biso   1.000  C
  C3004    1.0000 0.12776  0.09367  0.38750  Biso   1.000  C
  C3005    1.0000 0.05879  0.02363  0.31645  Biso   1.000  C
  C3006    1.0000 0.08248  0.00155  0.37426  Biso   1.000  C
  C3007    1.0000 0.69625  0.22971  0.77714  Biso   1.000  C
  C3008    1.0000 0.01626  0.56417  0.91928  Biso   1.000  C
  C3009    1.0000 0.10882  0.53119  0.90467  Biso   1.000  C
  C3010    1.0000 0.12728  0.59401  0.88809  Biso   1.000  C
  C3011    1.0000 0.06203  0.52883  0.81932  Biso   1.000  C
  C3012    1.0000 0.08002  0.50430  0.87840  Biso   1.000  C
  C3013    1.0000 0.77820  0.72858  0.19558  Biso   1.000  C
  C3014    1.0000 0.91899  0.06470  0.51703  Biso   1.000  C
  C3015    1.0000 0.90198  0.02961  0.60908  Biso   1.000  C
  C3016    1.0000 0.88885  0.09337  0.62748  Biso   1.000  C
  C3017    1.0000 0.81807  0.02769  0.55754  Biso   1.000  C
  C3018    1.0000 0.87561  0.00233  0.57945  Biso   1.000  C
  C3019    1.0000 0.77727  0.22948  0.69609  Biso   1.000  C
  C3020    1.0000 0.91758  0.56408  0.01683  Biso   1.000  C
  C3021    1.0000 0.90299  0.52938  0.10787  Biso   1.000  C
  C3022    1.0000 0.88948  0.59253  0.12743  Biso   1.000  C
  C3023    1.0000 0.81874  0.52601  0.05796  Biso   1.000  C
  C3024    1.0000 0.87689  0.50157  0.07866  Biso   1.000  C
  C3025    1.0000 0.27628  0.72934  0.69433  Biso   1.000  C
  C3026    1.0000 0.41875  0.06495  0.01757  Biso   1.000  C
  C3027    1.0000 0.40044  0.02941  0.10804  Biso   1.000  C
  C3028    1.0000 0.38802  0.09296  0.12712  Biso   1.000  C
  C3029    1.0000 0.31793  0.02728  0.05694  Biso   1.000  C
  C3030    1.0000 0.37570  0.00180  0.07754  Biso   1.000  C
  C3031    1.0000 0.27774  0.22931  0.19626  Biso   1.000  C
  C3032    1.0000 0.41891  0.56416  0.51625  Biso   1.000  C
  C3033    1.0000 0.40170  0.52989  0.60708  Biso   1.000  C
  C3034    1.0000 0.38852  0.59296  0.62727  Biso   1.000  C
  C3035    1.0000 0.31809  0.52731  0.55933  Biso   1.000  C
  C3036    1.0000 0.37651  0.50188  0.57751  Biso   1.000  C
  C3037    1.0000 0.47112  0.02024  0.69817  Biso   1.000  C
  C3038    1.0000 0.33247  0.68668  0.01527  Biso   1.000  C
  C3039    1.0000 0.34637  0.71784  0.10618  Biso   1.000  C
  C3040    1.0000 0.36385  0.65585  0.12649  Biso   1.000  C
  C3041    1.0000 0.43134  0.72305  0.05702  Biso   1.000  C
  C3042    1.0000 0.37461  0.74801  0.08067  Biso   1.000  C
  C3043    1.0000 0.47262  0.51842  0.19925  Biso   1.000  C
  C3044    1.0000 0.33243  0.18608  0.51646  Biso   1.000  C
  C3045    1.0000 0.34568  0.21907  0.60514  Biso   1.000  C
  C3046    1.0000 0.35947  0.15608  0.62570  Biso   1.000  C
  C3047    1.0000 0.43098  0.22302  0.55688  Biso   1.000  C
  C3048    1.0000 0.37442  0.24880  0.58036  Biso   1.000  C
  C3049    1.0000 0.97241  0.02017  0.19762  Biso   1.000  C
  C3050    1.0000 0.83146  0.68630  0.51691  Biso   1.000  C
  C3051    1.0000 0.84763  0.71879  0.60722  Biso   1.000  C
  C3052    1.0000 0.86528  0.65664  0.62799  Biso   1.000  C
  C3053    1.0000 0.93024  0.72207  0.55586  Biso   1.000  C
  C3054    1.0000 0.87275  0.74789  0.57746  Biso   1.000  C
  C3055    1.0000 0.97215  0.51874  0.69767  Biso   1.000  C
  C3056    1.0000 0.83323  0.18687  0.01457  Biso   1.000  C
  C3057    1.0000 0.84520  0.21878  0.10615  Biso   1.000  C
  C3058    1.0000 0.86298  0.15671  0.12627  Biso   1.000  C
  C3059    1.0000 0.93171  0.22292  0.06064  Biso   1.000  C
  C3060    1.0000 0.87464  0.24852  0.08166  Biso   1.000  C
  C3061    1.0000 0.97042  0.23094  0.05228  Biso   1.000  C
  C3062    1.0000 0.83228  0.56367  0.73378  Biso   1.000  C
  C3063    1.0000 0.84772  0.53037  0.64299  Biso   1.000  C
  C3064    1.0000 0.86405  0.59302  0.62311  Biso   1.000  C
  C3065    1.0000 0.93146  0.52623  0.69227  Biso   1.000  C
  C3066    1.0000 0.87297  0.50203  0.67172  Biso   1.000  C
  C3067    1.0000 0.97043  0.72992  0.55316  Biso   1.000  C
  C3068    1.0000 0.83239  0.06433  0.23418  Biso   1.000  C
  C3069    1.0000 0.84406  0.03056  0.14280  Biso   1.000  C
  C3070    1.0000 0.86093  0.09305  0.12287  Biso   1.000  C
  C3071    1.0000 0.93289  0.02723  0.18869  Biso   1.000  C
  C3072    1.0000 0.87421  0.00313  0.16802  Biso   1.000  C
  C3073    1.0000 0.47154  0.22915  0.55282  Biso   1.000  C
  C3074    1.0000 0.33117  0.56540  0.23270  Biso   1.000  C
  C3075    1.0000 0.34831  0.52931  0.14243  Biso   1.000  C
  C3076    1.0000 0.36431  0.59214  0.12280  Biso   1.000  C
  C3077    1.0000 0.43280  0.52527  0.19104  Biso   1.000  C
  C3078    1.0000 0.37376  0.50122  0.17161  Biso   1.000  C
  C3079    1.0000 0.47112  0.73073  0.05451  Biso   1.000  C
  C3080    1.0000 0.33066  0.06402  0.73372  Biso   1.000  C
  C3081    1.0000 0.34593  0.03079  0.64428  Biso   1.000  C
  C3082    1.0000 0.36175  0.09406  0.62583  Biso   1.000  C
  C3083    1.0000 0.43084  0.02845  0.69127  Biso   1.000  C
  C3084    1.0000 0.37272  0.00410  0.67212  Biso   1.000  C
  C3085    1.0000 0.27826  0.51927  0.55175  Biso   1.000  C
  C3086    1.0000 0.41903  0.18485  0.23205  Biso   1.000  C
  C3087    1.0000 0.40054  0.21856  0.14233  Biso   1.000  C
  C3088    1.0000 0.38860  0.15483  0.12413  Biso   1.000  C
  C3089    1.0000 0.31829  0.22197  0.19229  Biso   1.000  C
  C3090    1.0000 0.37603  0.24725  0.17135  Biso   1.000  C
  C3091    1.0000 0.27728  0.02018  0.05166  Biso   1.000  C
  C3092    1.0000 0.41908  0.68638  0.73278  Biso   1.000  C
  C3093    1.0000 0.40425  0.71825  0.64231  Biso   1.000  C
  C3094    1.0000 0.38942  0.65485  0.62512  Biso   1.000  C
  C3095    1.0000 0.31665  0.72516  0.69003  Biso   1.000  C
  C3096    1.0000 0.37502  0.74674  0.66695  Biso   1.000  C
  C3097    1.0000 0.77894  0.51752  0.05129  Biso   1.000  C
  C3098    1.0000 0.91868  0.18636  0.73243  Biso   1.000  C
  C3099    1.0000 0.90055  0.21918  0.64228  Biso   1.000  C
  C3100    1.0000 0.88904  0.15533  0.62429  Biso   1.000  C
  C3101    1.0000 0.81782  0.22235  0.69200  Biso   1.000  C
  C3102    1.0000 0.87534  0.24776  0.67074  Biso   1.000  C
  C3103    1.0000 0.77743  0.02098  0.55261  Biso   1.000  C
  C3104    1.0000 0.91884  0.68491  0.23252  Biso   1.000  C
  C3105    1.0000 0.90106  0.71810  0.14320  Biso   1.000  C
  C3106    1.0000 0.88917  0.65438  0.12469  Biso   1.000  C
  C3107    1.0000 0.81889  0.72163  0.19246  Biso   1.000  C
  C3108    1.0000 0.87653  0.74730  0.17176  Biso   1.000  C
  C3109    1.0000 0.19562  0.77686  0.72871  Biso   1.000  C
  C3110    1.0000 0.51775  0.91969  0.06354  Biso   1.000  C
  C3111    1.0000 0.60686  0.90227  0.03098  Biso   1.000  C
  C3112    1.0000 0.62507  0.88906  0.09506  Biso   1.000  C
  C3113    1.0000 0.55760  0.81672  0.02730  Biso   1.000  C
  C3114    1.0000 0.58036  0.87411  0.00284  Biso   1.000  C
  C3115    1.0000 0.19616  0.27805  0.23100  Biso   1.000  C
  C3116    1.0000 0.51465  0.41513  0.56426  Biso   1.000  C
  C3117    1.0000 0.60691  0.40311  0.53064  Biso   1.000  C
  C3118    1.0000 0.62776  0.38523  0.59242  Biso   1.000  C
  C3119    1.0000 0.55827  0.31674  0.52612  Biso   1.000  C
  C3120    1.0000 0.58156  0.37431  0.50212  Biso   1.000  C
  C3121    1.0000 0.69572  0.77694  0.22979  Biso   1.000  C
  C3122    1.0000 0.01749  0.92003  0.56352  Biso   1.000  C
  C3123    1.0000 0.10685  0.90231  0.53044  Biso   1.000  C
  C3124    1.0000 0.12733  0.88524  0.59272  Biso   1.000  C
  C3125    1.0000 0.05604  0.81754  0.52667  Biso   1.000  C
  C3126    1.0000 0.08038  0.87378  0.50134  Biso   1.000  C
  C3127    1.0000 0.69534  0.27782  0.73032  Biso   1.000  C
  C3128    1.0000 0.01637  0.41634  0.06482  Biso   1.000  C
  C3129    1.0000 0.10868  0.40339  0.03087  Biso   1.000  C
  C3130    1.0000 0.12856  0.38630  0.09323  Biso   1.000  C
  C3131    1.0000 0.06050  0.31593  0.02663  Biso   1.000  C
  C3132    1.0000 0.08233  0.37397  0.00310  Biso   1.000  C
  C3133    1.0000 0.69794  0.47151  0.01987  Biso   1.000  C
  C3134    1.0000 0.01463  0.33278  0.68683  Biso   1.000  C
  C3135    1.0000 0.10695  0.34736  0.71983  Biso   1.000  C
  C3136    1.0000 0.12706  0.36442  0.65730  Biso   1.000  C
  C3137    1.0000 0.06040  0.43108  0.72446  Biso   1.000  C
  C3138    1.0000 0.07724  0.37175  0.74774  Biso   1.000  C
  C3139    1.0000 0.69718  0.97288  0.51974  Biso   1.000  C
  C3140    1.0000 0.01647  0.83268  0.18631  Biso   1.000  C
  C3141    1.0000 0.10998  0.84752  0.21918  Biso   1.000  C
  C3142    1.0000 0.12806  0.86303  0.15594  Biso   1.000  C
  C3143    1.0000 0.05889  0.93270  0.22263  Biso   1.000  C
  C3144    1.0000 0.08219  0.87522  0.24699  Biso   1.000  C
  C3145    1.0000 0.19554  0.47161  0.51993  Biso   1.000  C
  C3146    1.0000 0.51604  0.33190  0.18543  Biso   1.000  C
  C3147    1.0000 0.60738  0.34675  0.22064  Biso   1.000  C
  C3148    1.0000 0.62615  0.36107  0.15749  Biso   1.000  C
  C3149    1.0000 0.56055  0.43094  0.22393  Biso   1.000  C
  C3150    1.0000 0.57939  0.37181  0.24810  Biso   1.000  C
  C3151    1.0000 0.19698  0.97152  0.01837  Biso   1.000  C
  C3152    1.0000 0.51735  0.83030  0.68629  Biso   1.000  C
  C3153    1.0000 0.60872  0.84886  0.72001  Biso   1.000  C
  C3154    1.0000 0.62728  0.86555  0.65708  Biso   1.000  C
  C3155    1.0000 0.55622  0.93124  0.72265  Biso   1.000  C
  C3156    1.0000 0.57824  0.87420  0.74863  Biso   1.000  C
  C3157    1.0000 0.05458  0.97304  0.22759  Biso   1.000  C
  C3158    1.0000 0.73368  0.83397  0.56491  Biso   1.000  C
  C3159    1.0000 0.64266  0.84629  0.53205  Biso   1.000  C
  C3160    1.0000 0.62162  0.86461  0.59359  Biso   1.000  C
  C3161    1.0000 0.69245  0.93206  0.52533  Biso   1.000  C
  C3162    1.0000 0.66800  0.87502  0.50179  Biso   1.000  C
  C3163    1.0000 0.05215  0.47044  0.73356  Biso   1.000  C
  C3164    1.0000 0.73296  0.33312  0.06458  Biso   1.000  C
  C3165    1.0000 0.64369  0.34607  0.03195  Biso   1.000  C
  C3166    1.0000 0.62537  0.36076  0.09537  Biso   1.000  C
  C3167    1.0000 0.68896  0.43200  0.02703  Biso   1.000  C
  C3168    1.0000 0.66757  0.37472  0.00174  Biso   1.000  C
  C3169    1.0000 0.55257  0.97101  0.73039  Biso   1.000  C
  C3170    1.0000 0.23479  0.83223  0.06428  Biso   1.000  C
  C3171    1.0000 0.14225  0.84664  0.02938  Biso   1.000  C
  C3172    1.0000 0.12298  0.86361  0.09219  Biso   1.000  C
  C3173    1.0000 0.18896  0.93171  0.02649  Biso   1.000  C
  C3174    1.0000 0.17067  0.87286  0.00133  Biso   1.000  C
  C3175    1.0000 0.55095  0.46981  0.23251  Biso   1.000  C
  C3176    1.0000 0.23373  0.33337  0.56507  Biso   1.000  C
  C3177    1.0000 0.14171  0.34636  0.53138  Biso   1.000  C
  C3178    1.0000 0.12151  0.36359  0.59368  Biso   1.000  C
  C3179    1.0000 0.19212  0.43136  0.52735  Biso   1.000  C
  C3180    1.0000 0.17127  0.37302  0.50309  Biso   1.000  C
  C3181    1.0000 0.55296  0.27601  0.52032  Biso   1.000  C
  C3182    1.0000 0.23293  0.41839  0.18523  Biso   1.000  C
  C3183    1.0000 0.14372  0.40266  0.21919  Biso   1.000  C
  C3184    1.0000 0.12381  0.38496  0.15688  Biso   1.000  C
  C3185    1.0000 0.19281  0.31801  0.22472  Biso   1.000  C
  C3186    1.0000 0.16986  0.37480  0.24972  Biso   1.000  C
  C3187    1.0000 0.55267  0.77614  0.02189  Biso   1.000  C
  C3188    1.0000 0.23220  0.91875  0.68471  Biso   1.000  C
  C3189    1.0000 0.14177  0.90195  0.71982  Biso   1.000  C
  C3190    1.0000 0.12260  0.88766  0.65637  Biso   1.000  C
  C3191    1.0000 0.19239  0.81707  0.72266  Biso   1.000  C
  C3192    1.0000 0.17142  0.87506  0.74779  Biso   1.000  C
  C3193    1.0000 0.05034  0.27729  0.01931  Biso   1.000  C
  C3194    1.0000 0.73258  0.41799  0.68426  Biso   1.000  C
  C3195    1.0000 0.64303  0.40337  0.71831  Biso   1.000  C
  C3196    1.0000 0.62303  0.38550  0.65608  Biso   1.000  C
  C3197    1.0000 0.69207  0.31793  0.72409  Biso   1.000  C
  C3198    1.0000 0.66914  0.37504  0.74857  Biso   1.000  C
  C3199    1.0000 0.05125  0.77688  0.52152  Biso   1.000  C
  C3200    1.0000 0.73455  0.91735  0.18661  Biso   1.000  C
  C3201    1.0000 0.64374  0.90236  0.21991  Biso   1.000  C
  C3202    1.0000 0.62435  0.88720  0.15700  Biso   1.000  C
  C3203    1.0000 0.69283  0.81689  0.22354  Biso   1.000  C
  C3204    1.0000 0.66988  0.87393  0.24868  Biso   1.000  C
  C3205    1.0000 0.73036  0.19788  0.77756  Biso   1.000  C
  C3206    1.0000 0.06506  0.51817  0.92170  Biso   1.000  C
  C3207    1.0000 0.03124  0.60750  0.90536  Biso   1.000  C
  C3208    1.0000 0.09394  0.62734  0.89071  Biso   1.000  C
  C3209    1.0000 0.02659  0.55841  0.81824  Biso   1.000  C
  C3210    1.0000 0.00322  0.58043  0.87640  Biso   1.000  C
  C3211    1.0000 0.72970  0.69900  0.27669  Biso   1.000  C
  C3212    1.0000 0.06445  0.01568  0.41740  Biso   1.000  C
  C3213    1.0000 0.03113  0.10571  0.40334  Biso   1.000  C
  C3214    1.0000 0.09392  0.12593  0.38816  Biso   1.000  C
  C3215    1.0000 0.02552  0.05719  0.31797  Biso   1.000  C
  C3216    1.0000 0.00177  0.07929  0.37513  Biso   1.000  C
  C3217    1.0000 0.22963  0.19704  0.27639  Biso   1.000  C
  C3218    1.0000 0.56407  0.51713  0.41909  Biso   1.000  C
  C3219    1.0000 0.53167  0.60743  0.40403  Biso   1.000  C
  C3220    1.0000 0.59496  0.62651  0.38964  Biso   1.000  C
  C3221    1.0000 0.52652  0.55759  0.31887  Biso   1.000  C
  C3222    1.0000 0.50187  0.58158  0.37547  Biso   1.000  C
  C3223    1.0000 0.23103  0.69925  0.77768  Biso   1.000  C
  C3224    1.0000 0.56384  0.01482  0.91751  Biso   1.000  C
  C3225    1.0000 0.52942  0.10650  0.90152  Biso   1.000  C
  C3226    1.0000 0.59201  0.12696  0.88566  Biso   1.000  C
  C3227    1.0000 0.52755  0.05703  0.81904  Biso   1.000  C
  C3228    1.0000 0.50163  0.07744  0.87661  Biso   1.000  C
  C3229    1.0000 0.02157  0.69822  0.47274  Biso   1.000  C
  C3230    1.0000 0.68670  0.01618  0.33205  Biso   1.000  C
  C3231    1.0000 0.71918  0.10716  0.34666  Biso   1.000  C
  C3232    1.0000 0.65730  0.12750  0.36345  Biso   1.000  C
  C3233    1.0000 0.72165  0.06098  0.43219  Biso   1.000  C
  C3234    1.0000 0.74642  0.08052  0.37406  Biso   1.000  C
  C3235    1.0000 0.01953  0.19412  0.97197  Biso   1.000  C
  C3236    1.0000 0.68594  0.51604  0.83168  Biso   1.000  C
  C3237    1.0000 0.71942  0.60702  0.84638  Biso   1.000  C
  C3238    1.0000 0.65729  0.62698  0.86307  Biso   1.000  C
  C3239    1.0000 0.72155  0.56023  0.93248  Biso   1.000  C
  C3240    1.0000 0.74584  0.57944  0.87414  Biso   1.000  C
  C3241    1.0000 0.52155  0.69826  0.97274  Biso   1.000  C
  C3242    1.0000 0.18458  0.01818  0.83003  Biso   1.000  C
  C3243    1.0000 0.21956  0.10677  0.84780  Biso   1.000  C
  C3244    1.0000 0.15619  0.12643  0.86066  Biso   1.000  C
  C3245    1.0000 0.22083  0.06093  0.93266  Biso   1.000  C
  C3246    1.0000 0.24618  0.07896  0.87451  Biso   1.000  C
  C3247    1.0000 0.51904  0.19703  0.47192  Biso   1.000  C
  C3248    1.0000 0.18706  0.51582  0.33282  Biso   1.000  C
  C3249    1.0000 0.21949  0.60797  0.34564  Biso   1.000  C
  C3250    1.0000 0.15728  0.62794  0.36185  Biso   1.000  C
  C3251    1.0000 0.22364  0.55780  0.43203  Biso   1.000  C
  C3252    1.0000 0.24635  0.58157  0.37460  Biso   1.000  C
  C3253    1.0000 0.22900  0.05249  0.97218  Biso   1.000  C
  C3254    1.0000 0.56570  0.73245  0.83122  Biso   1.000  C
  C3255    1.0000 0.53170  0.64348  0.84410  Biso   1.000  C
  C3256    1.0000 0.59376  0.62406  0.86173  Biso   1.000  C
  C3257    1.0000 0.52871  0.68945  0.93262  Biso   1.000  C
  C3258    1.0000 0.50409  0.66779  0.87453  Biso   1.000  C
  C3259    1.0000 0.22963  0.55488  0.47269  Biso   1.000  C
  C3260    1.0000 0.56389  0.23378  0.33408  Biso   1.000  C
  C3261    1.0000 0.53135  0.14326  0.34472  Biso   1.000  C
  C3262    1.0000 0.59389  0.12362  0.36034  Biso   1.000  C
  C3263    1.0000 0.52626  0.18857  0.43217  Biso   1.000  C
  C3264    1.0000 0.50250  0.16875  0.37352  Biso   1.000  C
  C3265    1.0000 0.72942  0.05319  0.47239  Biso   1.000  C
  C3266    1.0000 0.06470  0.73273  0.33050  Biso   1.000  C
  C3267    1.0000 0.03156  0.64308  0.34512  Biso   1.000  C
  C3268    1.0000 0.09383  0.62406  0.36242  Biso   1.000  C
  C3269    1.0000 0.02862  0.68958  0.43271  Biso   1.000  C
  C3270    1.0000 0.00343  0.66783  0.37497  Biso   1.000  C
  C3271    1.0000 0.72944  0.55250  0.97279  Biso   1.000  C
  C3272    1.0000 0.06301  0.23477  0.83388  Biso   1.000  C
  C3273    1.0000 0.03090  0.14313  0.84379  Biso   1.000  C
  C3274    1.0000 0.09417  0.12471  0.85869  Biso   1.000  C
  C3275    1.0000 0.02509  0.19072  0.93140  Biso   1.000  C
  C3276    1.0000 0.00111  0.16748  0.87413  Biso   1.000  C
  C3277    1.0000 0.52054  0.55370  0.27818  Biso   1.000  C
  C3278    1.0000 0.18593  0.23242  0.42031  Biso   1.000  C
  C3279    1.0000 0.21858  0.14264  0.40365  Biso   1.000  C
  C3280    1.0000 0.15573  0.12489  0.38776  Biso   1.000  C
  C3281    1.0000 0.22434  0.18801  0.31608  Biso   1.000  C
  C3282    1.0000 0.24748  0.16764  0.37475  Biso   1.000  C
  C3283    1.0000 0.52004  0.05302  0.77811  Biso   1.000  C
  C3284    1.0000 0.18733  0.73377  0.91670  Biso   1.000  C
  C3285    1.0000 0.21932  0.64352  0.90151  Biso   1.000  C
  C3286    1.0000 0.15580  0.62501  0.88869  Biso   1.000  C
  C3287    1.0000 0.22523  0.69205  0.81800  Biso   1.000  C
  C3288    1.0000 0.24995  0.66891  0.87462  Biso   1.000  C
  C3289    1.0000 0.02033  0.55272  0.77820  Biso   1.000  C
  C3290    1.0000 0.68637  0.23377  0.91708  Biso   1.000  C
  C3291    1.0000 0.71810  0.14210  0.90377  Biso   1.000  C
  C3292    1.0000 0.65554  0.12327  0.88726  Biso   1.000  C
  C3293    1.0000 0.72417  0.18945  0.81721  Biso   1.000  C
  C3294    1.0000 0.74766  0.16771  0.87488  Biso   1.000  C
  C3295    1.0000 0.01840  0.05035  0.27830  Biso   1.000  C
  C3296    1.0000 0.68682  0.73462  0.41880  Biso   1.000  C
  C3297    1.0000 0.71999  0.64426  0.40242  Biso   1.000  C
  C3298    1.0000 0.65699  0.62308  0.38986  Biso   1.000  C
  C3299    1.0000 0.72510  0.69000  0.31624  Biso   1.000  C
  C3300    1.0000 0.74905  0.67110  0.37487  Biso   1.000  C
  C3301    1.0000 0.98090  0.52675  0.30225  Biso   1.000  C
  C3302    1.0000 0.31357  0.66655  0.98416  Biso   1.000  C
  C3303    1.0000 0.28213  0.65303  0.89306  Biso   1.000  C
  C3304    1.0000 0.34513  0.63746  0.87485  Biso   1.000  C
  C3305    1.0000 0.27640  0.56719  0.93860  Biso   1.000  C
  C3306    1.0000 0.25141  0.62416  0.91651  Biso   1.000  C
  C3307    1.0000 0.98081  0.02880  0.80145  Biso   1.000  C
  C3308    1.0000 0.31286  0.16710  0.48467  Biso   1.000  C
  C3309    1.0000 0.28065  0.15324  0.39226  Biso   1.000  C
  C3310    1.0000 0.34389  0.13851  0.37376  Biso   1.000  C
  C3311    1.0000 0.27627  0.06692  0.43885  Biso   1.000  C
  C3312    1.0000 0.25146  0.12433  0.41778  Biso   1.000  C
  C3313    1.0000 0.48140  0.52785  0.80064  Biso   1.000  C
  C3314    1.0000 0.81228  0.66856  0.48520  Biso   1.000  C
  C3315    1.0000 0.78235  0.65653  0.39244  Biso   1.000  C
  C3316    1.0000 0.84415  0.63690  0.37307  Biso   1.000  C
  C3317    1.0000 0.77679  0.56705  0.43652  Biso   1.000  C
  C3318    1.0000 0.75400  0.62685  0.41692  Biso   1.000  C
  C3319    1.0000 0.48124  0.02757  0.30151  Biso   1.000  C
  C3320    1.0000 0.81355  0.16683  0.98359  Biso   1.000  C
  C3321    1.0000 0.78042  0.15302  0.89283  Biso   1.000  C
  C3322    1.0000 0.84348  0.13862  0.87366  Biso   1.000  C
  C3323    1.0000 0.77637  0.06723  0.93919  Biso   1.000  C
  C3324    1.0000 0.75088  0.12420  0.91790  Biso   1.000  C
  C3325    1.0000 0.26839  0.22221  0.80342  Biso   1.000  C
  C3326    1.0000 0.93698  0.08311  0.48430  Biso   1.000  C
  C3327    1.0000 0.96891  0.09433  0.39247  Biso   1.000  C
  C3328    1.0000 0.90693  0.11246  0.37316  Biso   1.000  C
  C3329    1.0000 0.97251  0.18132  0.43932  Biso   1.000  C
  C3330    1.0000 0.99758  0.12351  0.41707  Biso   1.000  C
  C3331    1.0000 0.27226  0.72265  0.30442  Biso   1.000  C
  C3332    1.0000 0.93506  0.58238  0.98363  Biso   1.000  C
  C3333    1.0000 0.96920  0.59517  0.89276  Biso   1.000  C
  C3334    1.0000 0.90689  0.61202  0.87261  Biso   1.000  C
  C3335    1.0000 0.97283  0.68280  0.93960  Biso   1.000  C
  C3336    1.0000 0.99729  0.62505  0.91823  Biso   1.000  C
  C3337    1.0000 0.76990  0.22289  0.30292  Biso   1.000  C
  C3338    1.0000 0.43658  0.08212  0.98426  Biso   1.000  C
  C3339    1.0000 0.46907  0.09609  0.89262  Biso   1.000  C
  C3340    1.0000 0.40657  0.11350  0.87311  Biso   1.000  C
  C3341    1.0000 0.47237  0.18092  0.94002  Biso   1.000  C
  C3342    1.0000 0.49721  0.12219  0.92058  Biso   1.000  C
  C3343    1.0000 0.77093  0.72228  0.80443  Biso   1.000  C
  C3344    1.0000 0.43620  0.58359  0.48373  Biso   1.000  C
  C3345    1.0000 0.46905  0.59642  0.39293  Biso   1.000  C
  C3346    1.0000 0.40707  0.61229  0.37227  Biso   1.000  C
  C3347    1.0000 0.47338  0.68212  0.44176  Biso   1.000  C
  C3348    1.0000 0.49853  0.62541  0.41847  Biso   1.000  C
  C3349    1.0000 0.48179  0.72054  0.45058  Biso   1.000  C
  C3350    1.0000 0.81368  0.58223  0.76610  Biso   1.000  C
  C3351    1.0000 0.78103  0.59454  0.85863  Biso   1.000  C
  C3352    1.0000 0.84327  0.61253  0.87785  Biso   1.000  C
  C3353    1.0000 0.77799  0.68200  0.81039  Biso   1.000  C
  C3354    1.0000 0.75381  0.62413  0.83307  Biso   1.000  C
  C3355    1.0000 0.48100  0.22082  0.94744  Biso   1.000  C
  C3356    1.0000 0.81437  0.08342  0.26675  Biso   1.000  C
  C3357    1.0000 0.78127  0.09574  0.35815  Biso   1.000  C
  C3358    1.0000 0.84348  0.11270  0.37827  Biso   1.000  C
  C3359    1.0000 0.77466  0.18350  0.31234  Biso   1.000  C
  C3360    1.0000 0.75228  0.12519  0.33255  Biso   1.000  C
  C3361    1.0000 0.97995  0.72191  0.94871  Biso   1.000  C
  C3362    1.0000 0.31590  0.58159  0.26825  Biso   1.000  C
  C3363    1.0000 0.28117  0.59634  0.35848  Biso   1.000  C
  C3364    1.0000 0.34366  0.61412  0.37723  Biso   1.000  C
  C3365    1.0000 0.27875  0.68238  0.30957  Biso   1.000  C
  C3366    1.0000 0.25354  0.62496  0.33202  Biso   1.000  C
  C3367    1.0000 0.98154  0.22074  0.44768  Biso   1.000  C
  C3368    1.0000 0.31274  0.08240  0.76632  Biso   1.000  C
  C3369    1.0000 0.28139  0.09396  0.85816  Biso   1.000  C
  C3370    1.0000 0.34330  0.11211  0.87724  Biso   1.000  C
  C3371    1.0000 0.27513  0.18291  0.81314  Biso   1.000  C
  C3372    1.0000 0.25337  0.12433  0.83414  Biso   1.000  C
  C3373    1.0000 0.76911  0.02815  0.94883  Biso   1.000  C
  C3374    1.0000 0.43506  0.16956  0.26685  Biso   1.000  C
  C3375    1.0000 0.46889  0.15351  0.35666  Biso   1.000  C
  C3376    1.0000 0.40588  0.13894  0.37650  Biso   1.000  C
  C3377    1.0000 0.47509  0.06722  0.31010  Biso   1.000  C
  C3378    1.0000 0.49886  0.12509  0.33063  Biso   1.000  C
  C3379    1.0000 0.76849  0.52803  0.44667  Biso   1.000  C
  C3380    1.0000 0.43515  0.67066  0.76752  Biso   1.000  C
  C3381    1.0000 0.47002  0.65453  0.85807  Biso   1.000  C
  C3382    1.0000 0.40719  0.63819  0.87655  Biso   1.000  C
  C3383    1.0000 0.47475  0.56708  0.81082  Biso   1.000  C
  C3384    1.0000 0.49760  0.62634  0.83020  Biso   1.000  C
  C3385    1.0000 0.26916  0.02769  0.44854  Biso   1.000  C
  C3386    1.0000 0.93467  0.17105  0.76719  Biso   1.000  C
  C3387    1.0000 0.96844  0.15357  0.85564  Biso   1.000  C
  C3388    1.0000 0.90546  0.13850  0.87508  Biso   1.000  C
  C3389    1.0000 0.97322  0.06882  0.80950  Biso   1.000  C
  C3390    1.0000 0.99673  0.12724  0.82828  Biso   1.000  C
  C3391    1.0000 0.26902  0.52879  0.94918  Biso   1.000  C
  C3392    1.0000 0.93511  0.66987  0.26763  Biso   1.000  C
  C3393    1.0000 0.96961  0.65393  0.35842  Biso   1.000  C
  C3394    1.0000 0.90736  0.63609  0.37821  Biso   1.000  C
  C3395    1.0000 0.97482  0.56624  0.31202  Biso   1.000  C
  C3396    1.0000 0.99845  0.62474  0.33180  Biso   1.000  C
  C3397    1.0000 0.02788  0.94680  0.76951  Biso   1.000  C
  C3398    1.0000 0.16950  0.26715  0.43564  Biso   1.000  C
  C3399    1.0000 0.15243  0.35821  0.47112  Biso   1.000  C
  C3400    1.0000 0.13941  0.37755  0.40777  Biso   1.000  C
  C3401    1.0000 0.06910  0.30697  0.47264  Biso   1.000  C
  C3402    1.0000 0.12652  0.32779  0.49899  Biso   1.000  C
  C3403    1.0000 0.02710  0.44461  0.27072  Biso   1.000  C
  C3404    1.0000 0.16900  0.76523  0.93669  Biso   1.000  C
  C3405    1.0000 0.15272  0.85711  0.96873  Biso   1.000  C
  C3406    1.0000 0.13980  0.87782  0.90555  Biso   1.000  C
  C3407    1.0000 0.06892  0.80565  0.97321  Biso   1.000  C
  C3408    1.0000 0.12722  0.82684  0.99756  Biso   1.000  C
  C3409    1.0000 0.52805  0.94549  0.26933  Biso   1.000  C
  C3410    1.0000 0.66738  0.26535  0.93650  Biso   1.000  C
  C3411    1.0000 0.65312  0.35677  0.96915  Biso   1.000  C
  C3412    1.0000 0.64005  0.37777  0.90671  Biso   1.000  C
  C3413    1.0000 0.56829  0.30723  0.97367  Biso   1.000  C
  C3414    1.0000 0.62454  0.33070  0.99952  Biso   1.000  C
  C3415    1.0000 0.52752  0.44355  0.76995  Biso   1.000  C
  C3416    1.0000 0.66724  0.76589  0.43768  Biso   1.000  C
  C3417    1.0000 0.65370  0.85691  0.46926  Biso   1.000  C
  C3418    1.0000 0.63710  0.87809  0.40725  Biso   1.000  C
  C3419    1.0000 0.56868  0.80742  0.47362  Biso   1.000  C
  C3420    1.0000 0.62499  0.83130  0.49939  Biso   1.000  C
  C3421    1.0000 0.72231  0.44686  0.48099  Biso   1.000  C
  C3422    1.0000 0.58164  0.76761  0.81549  Biso   1.000  C
  C3423    1.0000 0.59831  0.85994  0.78039  Biso   1.000  C
  C3424    1.0000 0.61431  0.87788  0.84331  Biso   1.000  C
  C3425    1.0000 0.68350  0.80896  0.77506  Biso   1.000  C
  C3426    1.0000 0.62485  0.83134  0.75284  Biso   1.000  C
  C3427    1.0000 0.72320  0.94616  0.98047  Biso   1.000  C
  C3428    1.0000 0.58239  0.26519  0.31457  Biso   1.000  C
  C3429    1.0000 0.59737  0.35589  0.28113  Biso   1.000  C
  C3430    1.0000 0.61448  0.37840  0.34260  Biso   1.000  C
  C3431    1.0000 0.68121  0.30716  0.27709  Biso   1.000  C
  C3432    1.0000 0.62301  0.32639  0.25169  Biso   1.000  C
  C3433    1.0000 0.22335  0.44496  0.97991  Biso   1.000  C
  C3434    1.0000 0.08055  0.76830  0.31495  Biso   1.000  C
  C3435    1.0000 0.10043  0.85936  0.27966  Biso   1.000  C
  C3436    1.0000 0.11534  0.87836  0.34263  Biso   1.000  C
  C3437    1.0000 0.18265  0.80661  0.27593  Biso   1.000  C
  C3438    1.0000 0.12470  0.82865  0.25174  Biso   1.000  C
  C3439    1.0000 0.22330  0.94541  0.48116  Biso   1.000  C
  C3440    1.0000 0.08211  0.26554  0.81406  Biso   1.000  C
  C3441    1.0000 0.09674  0.35742  0.78057  Biso   1.000  C
  C3442    1.0000 0.11058  0.37909  0.84315  Biso   1.000  C
  C3443    1.0000 0.18075  0.30632  0.77585  Biso   1.000  C
  C3444    1.0000 0.12258  0.32811  0.75194  Biso   1.000  C
  C3445    1.0000 0.22265  0.80346  0.26934  Biso   1.000  C
  C3446    1.0000 0.08090  0.48276  0.93635  Biso   1.000  C
  C3447    1.0000 0.09539  0.39140  0.96903  Biso   1.000  C
  C3448    1.0000 0.11110  0.37426  0.90537  Biso   1.000  C
  C3449    1.0000 0.18307  0.44081  0.97453  Biso   1.000  C
  C3450    1.0000 0.12477  0.41760  0.99644  Biso   1.000  C
  C3451    1.0000 0.22105  0.30307  0.76955  Biso   1.000  C
  C3452    1.0000 0.08403  0.98382  0.43570  Biso   1.000  C
  C3453    1.0000 0.09548  0.89028  0.46803  Biso   1.000  C
  C3454    1.0000 0.11404  0.87107  0.40618  Biso   1.000  C
  C3455    1.0000 0.18293  0.93997  0.47528  Biso   1.000  C
  C3456    1.0000 0.12463  0.91603  0.49651  Biso   1.000  C
  C3457    1.0000 0.72398  0.80496  0.76970  Biso   1.000  C
  C3458    1.0000 0.57965  0.48233  0.43624  Biso   1.000  C
  C3459    1.0000 0.59461  0.39255  0.46831  Biso   1.000  C
  C3460    1.0000 0.61248  0.37314  0.40603  Biso   1.000  C
  C3461    1.0000 0.68180  0.44160  0.47557  Biso   1.000  C
  C3462    1.0000 0.62307  0.41913  0.49706  Biso   1.000  C
  C3463    1.0000 0.72187  0.30403  0.27009  Biso   1.000  C
  C3464    1.0000 0.58392  0.98332  0.93597  Biso   1.000  C
  C3465    1.0000 0.59611  0.88985  0.96888  Biso   1.000  C
  C3466    1.0000 0.61482  0.87103  0.90692  Biso   1.000  C
  C3467    1.0000 0.68288  0.94008  0.97458  Biso   1.000  C
  C3468    1.0000 0.62509  0.91551  0.99679  Biso   1.000  C
  C3469    1.0000 0.52821  0.30455  0.97927  Biso   1.000  C
  C3470    1.0000 0.66884  0.98362  0.31326  Biso   1.000  C
  C3471    1.0000 0.65598  0.89156  0.28204  Biso   1.000  C
  C3472    1.0000 0.63761  0.87220  0.34403  Biso   1.000  C
  C3473    1.0000 0.56813  0.94008  0.27541  Biso   1.000  C
  C3474    1.0000 0.62660  0.91694  0.25374  Biso   1.000  C
  C3475    1.0000 0.52860  0.80455  0.47997  Biso   1.000  C
  C3476    1.0000 0.66757  0.48387  0.81301  Biso   1.000  C
  C3477    1.0000 0.65459  0.39364  0.78111  Biso   1.000  C
  C3478    1.0000 0.64007  0.37472  0.84462  Biso   1.000  C
  C3479    1.0000 0.56750  0.43932  0.77601  Biso   1.000  C
  C3480    1.0000 0.62545  0.41812  0.75134  Biso   1.000  C
  C3481    1.0000 0.02900  0.30442  0.47925  Biso   1.000  C
  C3482    1.0000 0.17052  0.98236  0.81439  Biso   1.000  C
  C3483    1.0000 0.15252  0.88994  0.77998  Biso   1.000  C
  C3484    1.0000 0.13844  0.87186  0.84349  Biso   1.000  C
  C3485    1.0000 0.06843  0.94169  0.77727  Biso   1.000  C
  C3486    1.0000 0.12683  0.91997  0.75299  Biso   1.000  C
  C3487    1.0000 0.02808  0.80312  0.97946  Biso   1.000  C
  C3488    1.0000 0.16798  0.48402  0.31370  Biso   1.000  C
  C3489    1.0000 0.15504  0.39331  0.28211  Biso   1.000  C
  C3490    1.0000 0.14076  0.37405  0.34558  Biso   1.000  C
  C3491    1.0000 0.06749  0.43913  0.27538  Biso   1.000  C
  C3492    1.0000 0.12556  0.41725  0.25188  Biso   1.000  C
  C3493    1.0000 0.44925  0.48220  0.72075  Biso   1.000  C
  C3494    1.0000 0.76531  0.81426  0.58395  Biso   1.000  C
  C3495    1.0000 0.85858  0.77940  0.59796  Biso   1.000  C
  C3496    1.0000 0.87827  0.84256  0.61323  Biso   1.000  C
  C3497    1.0000 0.81248  0.77671  0.68374  Biso   1.000  C
  C3498    1.0000 0.83008  0.75143  0.62448  Biso   1.000  C
  C3499    1.0000 0.44527  0.97939  0.22342  Biso   1.000  C
  C3500    1.0000 0.76510  0.31317  0.08195  Biso   1.000  C
  C3501    1.0000 0.85651  0.28129  0.09568  Biso   1.000  C
  C3502    1.0000 0.87700  0.34328  0.11321  Biso   1.000  C
  C3503    1.0000 0.81085  0.27388  0.18313  Biso   1.000  C
  C3504    1.0000 0.83045  0.25153  0.12362  Biso   1.000  C
  C3505    1.0000 0.94748  0.48209  0.22183  Biso   1.000  C
  C3506    1.0000 0.26630  0.81363  0.08463  Biso   1.000  C
  C3507    1.0000 0.35707  0.78060  0.09609  Biso   1.000  C
  C3508    1.0000 0.37799  0.84285  0.11190  Biso   1.000  C
  C3509    1.0000 0.30833  0.77583  0.18139  Biso   1.000  C
  C3510    1.0000 0.33177  0.75026  0.12476  Biso   1.000  C
  C3511    1.0000 0.94657  0.98120  0.72257  Biso   1.000  C
  C3512    1.0000 0.26535  0.31455  0.58390  Biso   1.000  C
  C3513    1.0000 0.35691  0.28163  0.59589  Biso   1.000  C
  C3514    1.0000 0.37558  0.34387  0.61381  Biso   1.000  C
  C3515    1.0000 0.31041  0.27354  0.68262  Biso   1.000  C
  C3516    1.0000 0.33133  0.25168  0.62396  Biso   1.000  C
  C3517    1.0000 0.94789  0.76898  0.02894  Biso   1.000  C
  C3518    1.0000 0.26773  0.43451  0.16964  Biso   1.000  C
  C3519    1.0000 0.35711  0.46881  0.15322  Biso   1.000  C
  C3520    1.0000 0.37683  0.40639  0.13595  Biso   1.000  C
  C3521    1.0000 0.30987  0.47478  0.06719  Biso   1.000  C
  C3522    1.0000 0.32908  0.49707  0.12694  Biso   1.000  C
  C3523    1.0000 0.95034  0.26866  0.52869  Biso   1.000  C
  C3524    1.0000 0.26722  0.93437  0.66906  Biso   1.000  C
  C3525    1.0000 0.35728  0.96897  0.65654  Biso   1.000  C
  C3526    1.0000 0.37537  0.90546  0.64099  Biso   1.000  C
  C3527    1.0000 0.31258  0.97397  0.56688  Biso   1.000  C
  C3528    1.0000 0.33296  0.99708  0.62608  Biso   1.000  C
  C3529    1.0000 0.44693  0.77168  0.52844  Biso   1.000  C
  C3530    1.0000 0.76741  0.43383  0.66802  Biso   1.000  C
  C3531    1.0000 0.85716  0.46971  0.65233  Biso   1.000  C
  C3532    1.0000 0.87609  0.40702  0.63487  Biso   1.000  C
  C3533    1.0000 0.81090  0.47496  0.56675  Biso   1.000  C
  C3534    1.0000 0.82933  0.49818  0.62640  Biso   1.000  C
  C3535    1.0000 0.44840  0.26836  0.02801  Biso   1.000  C
  C3536    1.0000 0.76703  0.93535  0.16832  Biso   1.000  C
  C3537    1.0000 0.85721  0.96889  0.15514  Biso   1.000  C
  C3538    1.0000 0.87579  0.90584  0.13891  Biso   1.000  C
  C3539    1.0000 0.81118  0.97289  0.06773  Biso   1.000  C
  C3540    1.0000 0.82952  0.99581  0.12700  Biso   1.000  C
  C3541    1.0000 0.30320  0.98047  0.52750  Biso   1.000  C
  C3542    1.0000 0.98244  0.31432  0.66722  Biso   1.000  C
  C3543    1.0000 0.89038  0.27966  0.65117  Biso   1.000  C
  C3544    1.0000 0.87308  0.34318  0.63499  Biso   1.000  C
  C3545    1.0000 0.94213  0.27668  0.56818  Biso   1.000  C
  C3546    1.0000 0.91941  0.25135  0.62548  Biso   1.000  C
  C3547    1.0000 0.30173  0.48096  0.02731  Biso   1.000  C
  C3548    1.0000 0.98459  0.81297  0.16729  Biso   1.000  C
  C3549    1.0000 0.89194  0.77871  0.15173  Biso   1.000  C
  C3550    1.0000 0.87392  0.84211  0.13629  Biso   1.000  C
  C3551    1.0000 0.94088  0.77660  0.06859  Biso   1.000  C
  C3552    1.0000 0.91983  0.75006  0.12587  Biso   1.000  C
  C3553    1.0000 0.80284  0.98113  0.02846  Biso   1.000  C
  C3554    1.0000 0.48392  0.31289  0.16613  Biso   1.000  C
  C3555    1.0000 0.39106  0.27905  0.15171  Biso   1.000  C
  C3556    1.0000 0.37346  0.34262  0.13595  Biso   1.000  C
  C3557    1.0000 0.44067  0.27638  0.06763  Biso   1.000  C
  C3558    1.0000 0.41928  0.25074  0.12534  Biso   1.000  C
  C3559    1.0000 0.80158  0.48168  0.52717  Biso   1.000  C
  C3560    1.0000 0.48223  0.81457  0.66971  Biso   1.000  C
  C3561    1.0000 0.39247  0.78024  0.65223  Biso   1.000  C
  C3562    1.0000 0.37462  0.84364  0.63835  Biso   1.000  C
  C3563    1.0000 0.44409  0.77754  0.56856  Biso   1.000  C
  C3564    1.0000 0.41883  0.75178  0.62451  Biso   1.000  C
  C3565    1.0000 0.80318  0.26747  0.22311  Biso   1.000  C
  C3566    1.0000 0.48296  0.93547  0.07951  Biso   1.000  C
  C3567    1.0000 0.39074  0.96931  0.09646  Biso   1.000  C
  C3568    1.0000 0.37337  0.90651  0.11245  Biso   1.000  C
  C3569    1.0000 0.44081  0.97511  0.18285  Biso   1.000  C
  C3570    1.0000 0.41806  0.99636  0.12400  Biso   1.000  C
  C3571    1.0000 0.80305  0.77020  0.72324  Biso   1.000  C
  C3572    1.0000 0.48322  0.43473  0.58345  Biso   1.000  C
  C3573    1.0000 0.39230  0.46953  0.59686  Biso   1.000  C
  C3574    1.0000 0.37234  0.40744  0.61499  Biso   1.000  C
  C3575    1.0000 0.44111  0.47373  0.68138  Biso   1.000  C
  C3576    1.0000 0.42015  0.49760  0.62295  Biso   1.000  C
  C3577    1.0000 0.30124  0.26641  0.72164  Biso   1.000  C
  C3578    1.0000 0.98277  0.93620  0.57895  Biso   1.000  C
  C3579    1.0000 0.89118  0.96936  0.59741  Biso   1.000  C
  C3580    1.0000 0.87311  0.90616  0.61299  Biso   1.000  C
  C3581    1.0000 0.93832  0.97321  0.68266  Biso   1.000  C
  C3582    1.0000 0.92101  0.99608  0.62300  Biso   1.000  C
  C3583    1.0000 0.30395  0.76985  0.22196  Biso   1.000  C
  C3584    1.0000 0.98416  0.43537  0.08352  Biso   1.000  C
  C3585    1.0000 0.89240  0.46923  0.09757  Biso   1.000  C
  C3586    1.0000 0.87252  0.40663  0.11425  Biso   1.000  C
  C3587    1.0000 0.94062  0.47336  0.18185  Biso   1.000  C
  C3588    1.0000 0.92196  0.49687  0.12295  Biso   1.000  C
  C3589    1.0000 0.18539  0.18563  0.26889  Biso   1.000  C
  C3590    1.0000 0.17060  0.17365  0.20510  Biso   1.000  C
  C3591    1.0000 0.18804  0.68381  0.76952  Biso   1.000  C
  C3592    1.0000 0.17181  0.67017  0.70658  Biso   1.000  C
  C3593    1.0000 0.68766  0.18358  0.76846  Biso   1.000  C
  C3594    1.0000 0.67297  0.17138  0.70462  Biso   1.000  C
  C3595    1.0000 0.68547  0.68510  0.26954  Biso   1.000  C
  C3596    1.0000 0.67118  0.67197  0.20603  Biso   1.000  C
  C3597    1.0000 0.56513  0.06236  0.76909  Biso   1.000  C
  C3598    1.0000 0.57739  0.07982  0.70635  Biso   1.000  C
  C3599    1.0000 0.56582  0.56327  0.26969  Biso   1.000  C
  C3600    1.0000 0.57752  0.57885  0.20632  Biso   1.000  C
  C3601    1.0000 0.06475  0.68588  0.48229  Biso   1.000  C
  C3602    1.0000 0.07816  0.67286  0.54626  Biso   1.000  C
  C3603    1.0000 0.06470  0.18571  0.98039  Biso   1.000  C
  C3604    1.0000 0.07719  0.16937  0.04362  Biso   1.000  C
  C3605    1.0000 0.56214  0.18270  0.48154  Biso   1.000  C
  C3606    1.0000 0.57649  0.16882  0.54493  Biso   1.000  C
  C3607    1.0000 0.68561  0.56419  0.98205  Biso   1.000  C
  C3608    1.0000 0.67042  0.57616  0.04585  Biso   1.000  C
  C3609    1.0000 0.18412  0.56391  0.48067  Biso   1.000  C
  C3610    1.0000 0.16967  0.57927  0.54395  Biso   1.000  C
  C3611    1.0000 0.26836  0.18409  0.18505  Biso   1.000  C
  C3612    1.0000 0.20462  0.17274  0.17212  Biso   1.000  C
  C3613    1.0000 0.26941  0.68338  0.68697  Biso   1.000  C
  C3614    1.0000 0.20580  0.67101  0.67400  Biso   1.000  C
  C3615    1.0000 0.76793  0.18459  0.68540  Biso   1.000  C
  C3616    1.0000 0.70442  0.17375  0.66895  Biso   1.000  C
  C3617    1.0000 0.76903  0.68331  0.18597  Biso   1.000  C
  C3618    1.0000 0.70537  0.67112  0.17316  Biso   1.000  C
  C3619    1.0000 0.76864  0.56028  0.06656  Biso   1.000  C
  C3620    1.0000 0.70543  0.57597  0.07777  Biso   1.000  C
  C3621    1.0000 0.26903  0.56369  0.56505  Biso   1.000  C
  C3622    1.0000 0.20526  0.57859  0.57623  Biso   1.000  C
  C3623    1.0000 0.48051  0.06368  0.68494  Biso   1.000  C
  C3624    1.0000 0.54370  0.07767  0.67149  Biso   1.000  C
  C3625    1.0000 0.48096  0.56290  0.18437  Biso   1.000  C
  C3626    1.0000 0.54422  0.57733  0.17136  Biso   1.000  C
  C3627    1.0000 0.98148  0.68512  0.56226  Biso   1.000  C
  C3628    1.0000 0.04408  0.67250  0.58054  Biso   1.000  C
  C3629    1.0000 0.98018  0.18574  0.06574  Biso   1.000  C
  C3630    1.0000 0.04345  0.17071  0.07831  Biso   1.000  C
  C3631    1.0000 0.48016  0.18382  0.56302  Biso   1.000  C
  C3632    1.0000 0.54331  0.17086  0.57918  Biso   1.000  C
  C3633    1.0000 0.18692  0.26864  0.18540  Biso   1.000  C
  C3634    1.0000 0.17089  0.20618  0.16921  Biso   1.000  C
  C3635    1.0000 0.18509  0.76801  0.68352  Biso   1.000  C
  C3636    1.0000 0.17153  0.70416  0.67119  Biso   1.000  C
  C3637    1.0000 0.68620  0.26855  0.68508  Biso   1.000  C
  C3638    1.0000 0.66992  0.20552  0.67230  Biso   1.000  C
  C3639    1.0000 0.68620  0.76748  0.18443  Biso   1.000  C
  C3640    1.0000 0.67124  0.70456  0.16981  Biso   1.000  C
  C3641    1.0000 0.06088  0.76903  0.56701  Biso   1.000  C
  C3642    1.0000 0.07772  0.70638  0.58036  Biso   1.000  C
  C3643    1.0000 0.06454  0.26709  0.06357  Biso   1.000  C
  C3644    1.0000 0.07833  0.20348  0.07693  Biso   1.000  C
  C3645    1.0000 0.56272  0.26773  0.56536  Biso   1.000  C
  C3646    1.0000 0.57725  0.20434  0.57746  Biso   1.000  C
  C3647    1.0000 0.68481  0.48103  0.06432  Biso   1.000  C
  C3648    1.0000 0.67090  0.54353  0.08147  Biso   1.000  C
  C3649    1.0000 0.18498  0.48177  0.56513  Biso   1.000  C
  C3650    1.0000 0.17058  0.54558  0.57769  Biso   1.000  C
  C3651    1.0000 0.56160  0.98225  0.68592  Biso   1.000  C
  C3652    1.0000 0.57799  0.04549  0.67575  Biso   1.000  C
  C3653    1.0000 0.56453  0.48085  0.18842  Biso   1.000  C
  C3654    1.0000 0.57793  0.54435  0.17334  Biso   1.000  C
  C3655    1.0000 0.93429  0.43873  0.23173  Biso   1.000  C
  C3656    1.0000 0.92175  0.42477  0.29539  Biso   1.000  C
  C3657    1.0000 0.93517  0.93614  0.73116  Biso   1.000  C
  C3658    1.0000 0.92193  0.92139  0.79469  Biso   1.000  C
  C3659    1.0000 0.81760  0.81485  0.73156  Biso   1.000  C
  C3660    1.0000 0.83051  0.82835  0.79505  Biso   1.000  C
  C3661    1.0000 0.81663  0.31149  0.23168  Biso   1.000  C
  C3662    1.0000 0.83168  0.32757  0.29418  Biso   1.000  C
  C3663    1.0000 0.31586  0.81374  0.23126  Biso   1.000  C
  C3664    1.0000 0.33135  0.82717  0.29472  Biso   1.000  C
  C3665    1.0000 0.31450  0.31041  0.73168  Biso   1.000  C
  C3666    1.0000 0.32656  0.32869  0.79463  Biso   1.000  C
  C3667    1.0000 0.43553  0.31172  0.01754  Biso   1.000  C
  C3668    1.0000 0.42337  0.32627  0.95378  Biso   1.000  C
  C3669    1.0000 0.43846  0.81759  0.51937  Biso   1.000  C
  C3670    1.0000 0.42295  0.82946  0.45586  Biso   1.000  C
  C3671    1.0000 0.93499  0.81381  0.01980  Biso   1.000  C
  C3672    1.0000 0.92215  0.82890  0.95643  Biso   1.000  C
  C3673    1.0000 0.31589  0.93598  0.51841  Biso   1.000  C
  C3674    1.0000 0.32773  0.91957  0.45482  Biso   1.000  C
  C3675    1.0000 0.81601  0.93678  0.01846  Biso   1.000  C
  C3676    1.0000 0.82760  0.92041  0.95494  Biso   1.000  C
  C3677    1.0000 0.93621  0.51862  0.31530  Biso   1.000  C
  C3678    1.0000 0.92016  0.45661  0.33058  Biso   1.000  C
  C3679    1.0000 0.93706  0.01965  0.81405  Biso   1.000  C
  C3680    1.0000 0.92279  0.95592  0.82675  Biso   1.000  C
  C3681    1.0000 0.31278  0.01773  0.43609  Biso   1.000  C
  C3682    1.0000 0.32826  0.95458  0.42416  Biso   1.000  C
  C3683    1.0000 0.81299  0.01811  0.93678  Biso   1.000  C
  C3684    1.0000 0.82886  0.95512  0.92411  Biso   1.000  C
  C3685    1.0000 0.81650  0.73212  0.81265  Biso   1.000  C
  C3686    1.0000 0.83008  0.79468  0.82972  Biso   1.000  C
  C3687    1.0000 0.81309  0.23098  0.31711  Biso   1.000  C
  C3688    1.0000 0.82748  0.29444  0.32978  Biso   1.000  C
  C3689    1.0000 0.31757  0.73210  0.31270  Biso   1.000  C
  C3690    1.0000 0.33030  0.79475  0.32972  Biso   1.000  C
  C3691    1.0000 0.31112  0.23215  0.81591  Biso   1.000  C
  C3692    1.0000 0.32671  0.29546  0.82656  Biso   1.000  C
  C3693    1.0000 0.43806  0.23148  0.93271  Biso   1.000  C
  C3694    1.0000 0.42343  0.29490  0.91811  Biso   1.000  C
  C3695    1.0000 0.43851  0.73209  0.43548  Biso   1.000  C
  C3696    1.0000 0.42395  0.79531  0.42122  Biso   1.000  C
  C3697    1.0000 0.93698  0.73208  0.93495  Biso   1.000  C
  C3698    1.0000 0.92302  0.79551  0.92171  Biso   1.000  C
  C3699    1.0000 0.01931  0.43711  0.31630  Biso   1.000  C
  C3700    1.0000 0.95523  0.42405  0.32770  Biso   1.000  C
  C3701    1.0000 0.01790  0.93737  0.81410  Biso   1.000  C
  C3702    1.0000 0.95490  0.92267  0.82714  Biso   1.000  C
  C3703    1.0000 0.51942  0.31301  0.93359  Biso   1.000  C
  C3704    1.0000 0.45625  0.32920  0.92049  Biso   1.000  C
  C3705    1.0000 0.51966  0.81403  0.43384  Biso   1.000  C
  C3706    1.0000 0.45652  0.82993  0.42165  Biso   1.000  C
  C3707    1.0000 0.01971  0.81267  0.93405  Biso   1.000  C
  C3708    1.0000 0.95631  0.82959  0.92287  Biso   1.000  C
  C3709    1.0000 0.23216  0.93548  0.43595  Biso   1.000  C
  C3710    1.0000 0.29471  0.92147  0.41987  Biso   1.000  C
  C3711    1.0000 0.73213  0.93687  0.93502  Biso   1.000  C
  C3712    1.0000 0.79506  0.92267  0.91918  Biso   1.000  C
  C3713    1.0000 0.73207  0.81129  0.81502  Biso   1.000  C
  C3714    1.0000 0.79543  0.82701  0.82651  Biso   1.000  C
  C3715    1.0000 0.73200  0.31389  0.31394  Biso   1.000  C
  C3716    1.0000 0.79558  0.32952  0.32429  Biso   1.000  C
  C3717    1.0000 0.23274  0.81154  0.31419  Biso   1.000  C
  C3718    1.0000 0.29617  0.82768  0.32535  Biso   1.000  C
  C3719    1.0000 0.23027  0.31365  0.81493  Biso   1.000  C
  C3720    1.0000 0.29303  0.32880  0.82934  Biso   1.000  C
  C3721    1.0000 0.43853  0.93434  0.23063  Biso   1.000  C
  C3722    1.0000 0.42307  0.92250  0.29428  Biso   1.000  C
  C3723    1.0000 0.43391  0.43890  0.73164  Biso   1.000  C
  C3724    1.0000 0.41849  0.42457  0.79513  Biso   1.000  C
  C3725    1.0000 0.93720  0.31213  0.51815  Biso   1.000  C
  C3726    1.0000 0.92401  0.32724  0.45494  Biso   1.000  C
  C3727    1.0000 0.31599  0.43624  0.01970  Biso   1.000  C
  C3728    1.0000 0.32971  0.42067  0.95698  Biso   1.000  C
  C3729    1.0000 0.81541  0.43749  0.51819  Biso   1.000  C
  C3730    1.0000 0.82733  0.41947  0.45520  Biso   1.000  C
  C3731    1.0000 0.23193  0.43770  0.93476  Biso   1.000  C
  C3732    1.0000 0.29488  0.41968  0.92487  Biso   1.000  C
  C3733    1.0000 0.73084  0.43742  0.43587  Biso   1.000  C
  C3734    1.0000 0.79365  0.42245  0.42089  Biso   1.000  C
  C3735    1.0000 0.51845  0.93729  0.31439  Biso   1.000  C
  C3736    1.0000 0.45509  0.92350  0.32855  Biso   1.000  C
  C3737    1.0000 0.51806  0.43532  0.81520  Biso   1.000  C
  C3738    1.0000 0.45388  0.42258  0.82679  Biso   1.000  C
  C3739    1.0000 0.01940  0.31303  0.43361  Biso   1.000  C
  C3740    1.0000 0.95611  0.32980  0.42082  Biso   1.000  C
  C3741    1.0000 0.93812  0.23214  0.43438  Biso   1.000  C
  C3742    1.0000 0.92331  0.29547  0.41988  Biso   1.000  C
  C3743    1.0000 0.31346  0.51841  0.93527  Biso   1.000  C
  C3744    1.0000 0.32668  0.45461  0.92299  Biso   1.000  C
  C3745    1.0000 0.81279  0.51737  0.43539  Biso   1.000  C
  C3746    1.0000 0.82903  0.45412  0.42481  Biso   1.000  C
  C3747    1.0000 0.43738  0.01912  0.31597  Biso   1.000  C
  C3748    1.0000 0.42119  0.95615  0.32826  Biso   1.000  C
  C3749    1.0000 0.43680  0.51891  0.81307  Biso   1.000  C
  C3750    1.0000 0.42075  0.45653  0.82919  Biso   1.000  C
  C3751    1.0000 0.06541  0.56266  0.76828  Biso   1.000  C
  C3752    1.0000 0.07860  0.57771  0.70464  Biso   1.000  C
  C3753    1.0000 0.06182  0.06521  0.26912  Biso   1.000  C
  C3754    1.0000 0.07678  0.08159  0.20669  Biso   1.000  C
  C3755    1.0000 0.56460  0.68513  0.98220  Biso   1.000  C
  C3756    1.0000 0.57873  0.66990  0.04529  Biso   1.000  C
  C3757    1.0000 0.68536  0.06514  0.48158  Biso   1.000  C
  C3758    1.0000 0.66944  0.07650  0.54527  Biso   1.000  C
  C3759    1.0000 0.18424  0.06459  0.98210  Biso   1.000  C
  C3760    1.0000 0.16928  0.07565  0.04620  Biso   1.000  C
  C3761    1.0000 0.06446  0.48089  0.68927  Biso   1.000  C
  C3762    1.0000 0.07919  0.54324  0.67245  Biso   1.000  C
  C3763    1.0000 0.06203  0.98183  0.18360  Biso   1.000  C
  C3764    1.0000 0.07797  0.04566  0.17672  Biso   1.000  C
  C3765    1.0000 0.68698  0.98143  0.56470  Biso   1.000  C
  C3766    1.0000 0.67052  0.04344  0.58055  Biso   1.000  C
  C3767    1.0000 0.18604  0.98077  0.06320  Biso   1.000  C
  C3768    1.0000 0.17147  0.04276  0.08155  Biso   1.000  C
  C3769    1.0000 0.56299  0.76782  0.06697  Biso   1.000  C
  C3770    1.0000 0.57868  0.70440  0.07847  Biso   1.000  C
  C3771    1.0000 0.98217  0.56330  0.68735  Biso   1.000  C
  C3772    1.0000 0.04494  0.57600  0.67037  Biso   1.000  C
  C3773    1.0000 0.98145  0.06446  0.18442  Biso   1.000  C
  C3774    1.0000 0.04429  0.07883  0.17088  Biso   1.000  C
  C3775    1.0000 0.48193  0.68528  0.06352  Biso   1.000  C
  C3776    1.0000 0.54488  0.67095  0.07903  Biso   1.000  C
  C3777    1.0000 0.76814  0.06560  0.56252  Biso   1.000  C
  C3778    1.0000 0.70430  0.07648  0.57757  Biso   1.000  C
  C3779    1.0000 0.26769  0.06483  0.06220  Biso   1.000  C
  C3780    1.0000 0.20436  0.07650  0.07855  Biso   1.000  C
  C3781    1.0000 0.14883  0.10085  0.06980  Biso   1.000  C
  C3782    1.0000 0.15034  0.60494  0.56816  Biso   1.000  C
  C3783    1.0000 0.64941  0.10223  0.56889  Biso   1.000  C
  C3784    1.0000 0.60188  0.14871  0.56920  Biso   1.000  C
  C3785    1.0000 0.60357  0.64899  0.06960  Biso   1.000  C
  C3786    1.0000 0.10332  0.59881  0.67978  Biso   1.000  C
  C3787    1.0000 0.10221  0.10149  0.18188  Biso   1.000  C
  C3788    1.0000 0.60264  0.59987  0.18233  Biso   1.000  C
  C3789    1.0000 0.65025  0.64629  0.18299  Biso   1.000  C
  C3790    1.0000 0.64758  0.14924  0.68160  Biso   1.000  C
  C3791    1.0000 0.15090  0.64541  0.68192  Biso   1.000  C
  C3792    1.0000 0.14909  0.14832  0.18083  Biso   1.000  C
  C3793    1.0000 0.06691  0.14552  0.09923  Biso   1.000  C
  C3794    1.0000 0.06807  0.64749  0.60126  Biso   1.000  C
  C3795    1.0000 0.56688  0.14664  0.60112  Biso   1.000  C
  C3796    1.0000 0.56827  0.60206  0.15004  Biso   1.000  C
  C3797    1.0000 0.56731  0.10211  0.65008  Biso   1.000  C
  C3798    1.0000 0.68245  0.09945  0.60301  Biso   1.000  C
  C3799    1.0000 0.18175  0.09907  0.10394  Biso   1.000  C
  C3800    1.0000 0.18358  0.60028  0.60237  Biso   1.000  C
  C3801    1.0000 0.18333  0.64830  0.64832  Biso   1.000  C
  C3802    1.0000 0.18133  0.14949  0.14752  Biso   1.000  C
  C3803    1.0000 0.68250  0.64812  0.14830  Biso   1.000  C
  C3804    1.0000 0.68077  0.14799  0.64824  Biso   1.000  C
  C3805    1.0000 0.10079  0.06728  0.15036  Biso   1.000  C
  C3806    1.0000 0.10077  0.56755  0.64712  Biso   1.000  C
  C3807    1.0000 0.60045  0.56900  0.14868  Biso   1.000  C
  C3808    1.0000 0.14763  0.57035  0.60056  Biso   1.000  C
  C3809    1.0000 0.64788  0.56961  0.10247  Biso   1.000  C
  C3810    1.0000 0.59981  0.68037  0.10382  Biso   1.000  C
  C3811    1.0000 0.59866  0.18128  0.60298  Biso   1.000  C
  C3812    1.0000 0.64754  0.18250  0.64767  Biso   1.000  C
  C3813    1.0000 0.64679  0.67982  0.15040  Biso   1.000  C
  C3814    1.0000 0.14623  0.18087  0.14913  Biso   1.000  C
  C3815    1.0000 0.14711  0.68001  0.65126  Biso   1.000  C
  C3816    1.0000 0.85142  0.39778  0.43072  Biso   1.000  C
  C3817    1.0000 0.35116  0.39698  0.93278  Biso   1.000  C
  C3818    1.0000 0.90069  0.85346  0.93242  Biso   1.000  C
  C3819    1.0000 0.90033  0.35290  0.43282  Biso   1.000  C
  C3820    1.0000 0.35150  0.35076  0.81889  Biso   1.000  C
  C3821    1.0000 0.35165  0.85311  0.31930  Biso   1.000  C
  C3822    1.0000 0.85226  0.35194  0.31911  Biso   1.000  C
  C3823    1.0000 0.85020  0.85367  0.82035  Biso   1.000  C
  C3824    1.0000 0.39776  0.90069  0.31818  Biso   1.000  C
  C3825    1.0000 0.39760  0.39898  0.81956  Biso   1.000  C
  C3826    1.0000 0.89689  0.90072  0.82023  Biso   1.000  C
  C3827    1.0000 0.89691  0.31931  0.40048  Biso   1.000  C
  C3828    1.0000 0.89761  0.81961  0.90110  Biso   1.000  C
  C3829    1.0000 0.35319  0.82016  0.35179  Biso   1.000  C
  C3830    1.0000 0.34886  0.31782  0.85259  Biso   1.000  C
  C3831    1.0000 0.85291  0.82017  0.85190  Biso   1.000  C
  C3832    1.0000 0.85170  0.31831  0.35157  Biso   1.000  C
  C3833    1.0000 0.85193  0.93298  0.89838  Biso   1.000  C
  C3834    1.0000 0.35070  0.93309  0.39764  Biso   1.000  C
  C3835    1.0000 0.39660  0.43252  0.85197  Biso   1.000  C
  C3836    1.0000 0.39936  0.93211  0.35237  Biso   1.000  C
  C3837    1.0000 0.81729  0.35118  0.35115  Biso   1.000  C
  C3838    1.0000 0.81679  0.85008  0.85293  Biso   1.000  C
  C3839    1.0000 0.31754  0.35311  0.85034  Biso   1.000  C
  C3840    1.0000 0.31742  0.85058  0.35185  Biso   1.000  C
  C3841    1.0000 0.31800  0.39917  0.89836  Biso   1.000  C
  C3842    1.0000 0.81704  0.39801  0.39853  Biso   1.000  C
  C3843    1.0000 0.81878  0.89825  0.89842  Biso   1.000  C
  C3844    1.0000 0.43173  0.85084  0.39686  Biso   1.000  C
  C3845    1.0000 0.43236  0.35171  0.89674  Biso   1.000  C
  C3846    1.0000 0.93120  0.89848  0.85099  Biso   1.000  C
  C3847    1.0000 0.93298  0.40063  0.35239  Biso   1.000  C
  C3848    1.0000 0.85297  0.89951  0.93097  Biso   1.000  C
  C3849    1.0000 0.35309  0.89914  0.43043  Biso   1.000  C
  C3850    1.0000 0.40084  0.85320  0.43153  Biso   1.000  C
  C3851    1.0000 0.40041  0.35240  0.93168  Biso   1.000  C
  C3852    1.0000 0.90032  0.39803  0.31839  Biso   1.000  C
  C3853    1.0000 0.93231  0.85104  0.89788  Biso   1.000  C
  C3854    1.0000 0.93122  0.35190  0.39735  Biso   1.000  C
  C3855    1.0000 0.43197  0.40099  0.85249  Biso   1.000  C
  C3856    1.0000 0.43162  0.89756  0.34970  Biso   1.000  C
  C3857    1.0000 0.31836  0.89781  0.39822  Biso   1.000  C
  C3858    1.0000 0.90047  0.93352  0.85291  Biso   1.000  C
  C3859    1.0000 0.89691  0.43092  0.35114  Biso   1.000  C
  C3860    1.0000 0.84956  0.43185  0.39763  Biso   1.000  C
  C3861    1.0000 0.35206  0.43181  0.90127  Biso   1.000  C
  C3862    1.0000 0.39768  0.31924  0.89817  Biso   1.000  C
  C3863    1.0000 0.39777  0.81886  0.40098  Biso   1.000  C
  C3864    1.0000 0.65098  0.60254  0.06936  Biso   1.000  C
  C3865    1.0000 0.10132  0.14729  0.06831  Biso   1.000  C
  C3866    1.0000 0.10302  0.65153  0.56999  Biso   1.000  C
  C3867    1.0000 0.60159  0.10145  0.68151  Biso   1.000  C
  C3868    1.0000 0.09939  0.68210  0.60510  Biso   1.000  C
  C3869    1.0000 0.09938  0.17904  0.10181  Biso   1.000  C
  C3870    1.0000 0.14690  0.06657  0.10264  Biso   1.000  C
  C3871    1.0000 0.64643  0.06799  0.60149  Biso   1.000  C
  C3872    1.0000 0.60002  0.06803  0.64922  Biso   1.000  C
  C3873    1.0000 0.68416  0.59947  0.10319  Biso   1.000  C
  C3874    1.0000 0.56825  0.64626  0.10074  Biso   1.000  C
  C3875    1.0000 0.06906  0.10202  0.14937  Biso   1.000  C
  C3876    1.0000 0.06849  0.60047  0.64821  Biso   1.000  C
  C3877    1.0000 0.69233  0.92717  0.93026  Biso   1.000  C
  C3878    1.0000 0.65406  0.88993  0.88943  Biso   1.000  C
  C3879    1.0000 0.69134  0.42751  0.43060  Biso   1.000  C
  C3880    1.0000 0.65299  0.39034  0.38954  Biso   1.000  C
  C3881    1.0000 0.19235  0.92636  0.43114  Biso   1.000  C
  C3882    1.0000 0.15396  0.88970  0.38995  Biso   1.000  C
  C3883    1.0000 0.19249  0.42813  0.92876  Biso   1.000  C
  C3884    1.0000 0.15271  0.38989  0.88976  Biso   1.000  C
  C3885    1.0000 0.05930  0.32084  0.42782  Biso   1.000  C
  C3886    1.0000 0.09875  0.36046  0.39078  Biso   1.000  C
  C3887    1.0000 0.05970  0.82059  0.92925  Biso   1.000  C
  C3888    1.0000 0.09772  0.86150  0.89138  Biso   1.000  C
  C3889    1.0000 0.55781  0.42685  0.82126  Biso   1.000  C
  C3890    1.0000 0.59810  0.38889  0.86016  Biso   1.000  C
  C3891    1.0000 0.55794  0.92693  0.32061  Biso   1.000  C
  C3892    1.0000 0.59731  0.88995  0.36108  Biso   1.000  C
  C3893    1.0000 0.05751  0.92789  0.82088  Biso   1.000  C
  C3894    1.0000 0.09707  0.88871  0.85969  Biso   1.000  C
  C3895    1.0000 0.19304  0.82066  0.32121  Biso   1.000  C
  C3896    1.0000 0.15480  0.85958  0.36097  Biso   1.000  C
  C3897    1.0000 0.69232  0.82073  0.82059  Biso   1.000  C
  C3898    1.0000 0.65447  0.85943  0.86077  Biso   1.000  C
  C3899    1.0000 0.92709  0.69258  0.92913  Biso   1.000  C
  C3900    1.0000 0.88920  0.65206  0.89038  Biso   1.000  C
  C3901    1.0000 0.92823  0.19207  0.42941  Biso   1.000  C
  C3902    1.0000 0.88956  0.15178  0.39193  Biso   1.000  C
  C3903    1.0000 0.42775  0.69273  0.43084  Biso   1.000  C
  C3904    1.0000 0.39037  0.65208  0.39201  Biso   1.000  C
  C3905    1.0000 0.42838  0.19141  0.92819  Biso   1.000  C
  C3906    1.0000 0.38862  0.15200  0.89094  Biso   1.000  C
  C3907    1.0000 0.42909  0.05867  0.32153  Biso   1.000  C
  C3908    1.0000 0.39083  0.09681  0.36173  Biso   1.000  C
  C3909    1.0000 0.92784  0.05897  0.82009  Biso   1.000  C
  C3910    1.0000 0.88963  0.09652  0.86055  Biso   1.000  C
  C3911    1.0000 0.82172  0.55728  0.42788  Biso   1.000  C
  C3912    1.0000 0.86043  0.59731  0.39027  Biso   1.000  C
  C3913    1.0000 0.82245  0.05756  0.92951  Biso   1.000  C
  C3914    1.0000 0.85985  0.09610  0.88872  Biso   1.000  C
  C3915    1.0000 0.32067  0.19232  0.82282  Biso   1.000  C
  C3916    1.0000 0.36017  0.15233  0.86042  Biso   1.000  C
  C3917    1.0000 0.32349  0.69276  0.32232  Biso   1.000  C
  C3918    1.0000 0.36297  0.65444  0.36112  Biso   1.000  C
  C3919    1.0000 0.82246  0.69284  0.82263  Biso   1.000  C
  C3920    1.0000 0.86164  0.65241  0.85977  Biso   1.000  C
  C3921    1.0000 0.92936  0.92833  0.69143  Biso   1.000  C
  C3922    1.0000 0.89152  0.88873  0.65233  Biso   1.000  C
  C3923    1.0000 0.92896  0.42885  0.19188  Biso   1.000  C
  C3924    1.0000 0.88992  0.38889  0.15341  Biso   1.000  C
  C3925    1.0000 0.42911  0.92922  0.19069  Biso   1.000  C
  C3926    1.0000 0.39142  0.88852  0.15188  Biso   1.000  C
  C3927    1.0000 0.42865  0.42896  0.69202  Biso   1.000  C
  C3928    1.0000 0.38906  0.38915  0.65411  Biso   1.000  C
  C3929    1.0000 0.32105  0.42910  0.05934  Biso   1.000  C
  C3930    1.0000 0.35989  0.38829  0.09634  Biso   1.000  C
  C3931    1.0000 0.32190  0.92775  0.55856  Biso   1.000  C
  C3932    1.0000 0.36197  0.89064  0.59786  Biso   1.000  C
  C3933    1.0000 0.82157  0.92768  0.05817  Biso   1.000  C
  C3934    1.0000 0.86003  0.88881  0.09798  Biso   1.000  C
  C3935    1.0000 0.43006  0.82280  0.55924  Biso   1.000  C
  C3936    1.0000 0.38986  0.86026  0.59816  Biso   1.000  C
  C3937    1.0000 0.93086  0.82242  0.05974  Biso   1.000  C
  C3938    1.0000 0.89162  0.86133  0.09853  Biso   1.000  C
  C3939    1.0000 0.82101  0.32035  0.19214  Biso   1.000  C
  C3940    1.0000 0.85935  0.36069  0.15384  Biso   1.000  C
  C3941    1.0000 0.82291  0.82190  0.69181  Biso   1.000  C
  C3942    1.0000 0.86130  0.85995  0.65224  Biso   1.000  C
  C3943    1.0000 0.67853  0.94200  0.57018  Biso   1.000  C
  C3944    1.0000 0.64019  0.90431  0.61068  Biso   1.000  C
  C3945    1.0000 0.67946  0.44165  0.07322  Biso   1.000  C
  C3946    1.0000 0.63969  0.40278  0.11122  Biso   1.000  C
  C3947    1.0000 0.07018  0.30658  0.07263  Biso   1.000  C
  C3948    1.0000 0.10950  0.34652  0.11037  Biso   1.000  C
  C3949    1.0000 0.06944  0.80859  0.57158  Biso   1.000  C
  C3950    1.0000 0.10712  0.84777  0.61150  Biso   1.000  C
  C3951    1.0000 0.57077  0.30734  0.57065  Biso   1.000  C
  C3952    1.0000 0.60798  0.34661  0.61046  Biso   1.000  C
  C3953    1.0000 0.57200  0.80739  0.07185  Biso   1.000  C
  C3954    1.0000 0.61101  0.84715  0.10986  Biso   1.000  C
  C3955    1.0000 0.17615  0.80755  0.67855  Biso   1.000  C
  C3956    1.0000 0.13727  0.84650  0.63994  Biso   1.000  C
  C3957    1.0000 0.17847  0.30810  0.17961  Biso   1.000  C
  C3958    1.0000 0.14014  0.34500  0.13825  Biso   1.000  C
  C3959    1.0000 0.67777  0.30807  0.67907  Biso   1.000  C
  C3960    1.0000 0.63882  0.34479  0.63823  Biso   1.000  C
  C3961    1.0000 0.57104  0.44152  0.17888  Biso   1.000  C
  C3962    1.0000 0.61152  0.40282  0.14120  Biso   1.000  C
  C3963    1.0000 0.07028  0.44116  0.68008  Biso   1.000  C
  C3964    1.0000 0.10853  0.40320  0.63943  Biso   1.000  C
  C3965    1.0000 0.43986  0.17902  0.57064  Biso   1.000  C
  C3966    1.0000 0.40116  0.14158  0.61090  Biso   1.000  C
  C3967    1.0000 0.44248  0.67842  0.07120  Biso   1.000  C
  C3968    1.0000 0.40351  0.63822  0.10871  Biso   1.000  C
  C3969    1.0000 0.80882  0.67753  0.17834  Biso   1.000  C
  C3970    1.0000 0.84800  0.63942  0.13883  Biso   1.000  C
  C3971    1.0000 0.30949  0.67934  0.67822  Biso   1.000  C
  C3972    1.0000 0.34788  0.64036  0.63879  Biso   1.000  C
  C3973    1.0000 0.30733  0.07067  0.07119  Biso   1.000  C
  C3974    1.0000 0.34707  0.10903  0.10996  Biso   1.000  C
  C3975    1.0000 0.30901  0.57194  0.57030  Biso   1.000  C
  C3976    1.0000 0.34776  0.60961  0.61042  Biso   1.000  C
  C3977    1.0000 0.80792  0.07141  0.57156  Biso   1.000  C
  C3978    1.0000 0.84762  0.10947  0.61050  Biso   1.000  C
  C3979    1.0000 0.80847  0.57052  0.07133  Biso   1.000  C
  C3980    1.0000 0.84762  0.60821  0.11146  Biso   1.000  C
  C3981    1.0000 0.94272  0.56953  0.67772  Biso   1.000  C
  C3982    1.0000 0.90439  0.60980  0.63931  Biso   1.000  C
  C3983    1.0000 0.94155  0.07256  0.17873  Biso   1.000  C
  C3984    1.0000 0.90099  0.10969  0.13979  Biso   1.000  C
  C3985    1.0000 0.44117  0.07358  0.67991  Biso   1.000  C
  C3986    1.0000 0.40301  0.11204  0.63990  Biso   1.000  C
  C3987    1.0000 0.67841  0.17916  0.80844  Biso   1.000  C
  C3988    1.0000 0.63872  0.14114  0.84739  Biso   1.000  C
  C3989    1.0000 0.67852  0.67945  0.30934  Biso   1.000  C
  C3990    1.0000 0.64154  0.63841  0.34801  Biso   1.000  C
  C3991    1.0000 0.17938  0.57144  0.44051  Biso   1.000  C
  C3992    1.0000 0.13983  0.60986  0.40150  Biso   1.000  C
  C3993    1.0000 0.17536  0.07063  0.94230  Biso   1.000  C
  C3994    1.0000 0.13859  0.10995  0.90196  Biso   1.000  C
  C3995    1.0000 0.67631  0.07043  0.44174  Biso   1.000  C
  C3996    1.0000 0.63736  0.10849  0.40198  Biso   1.000  C
  C3997    1.0000 0.57347  0.67903  0.94204  Biso   1.000  C
  C3998    1.0000 0.61114  0.63981  0.90215  Biso   1.000  C
  C3999    1.0000 0.07371  0.67972  0.44191  Biso   1.000  C
  C4000    1.0000 0.11170  0.64081  0.40184  Biso   1.000  C
  C4001    1.0000 0.07115  0.06950  0.30892  Biso   1.000  C
  C4002    1.0000 0.10971  0.10969  0.34689  Biso   1.000  C
  C4003    1.0000 0.07114  0.57303  0.80779  Biso   1.000  C
  C4004    1.0000 0.10895  0.61203  0.84771  Biso   1.000  C
  C4005    1.0000 0.57113  0.07084  0.80867  Biso   1.000  C
  C4006    1.0000 0.61094  0.11033  0.84614  Biso   1.000  C
  C4007    1.0000 0.57126  0.57147  0.30918  Biso   1.000  C
  C4008    1.0000 0.61055  0.61059  0.34803  Biso   1.000  C
  C4009    1.0000 0.94240  0.67776  0.57059  Biso   1.000  C
  C4010    1.0000 0.90403  0.63809  0.60896  Biso   1.000  C
  C4011    1.0000 0.94128  0.17661  0.06996  Biso   1.000  C
  C4012    1.0000 0.90180  0.13774  0.10857  Biso   1.000  C
  C4013    1.0000 0.44154  0.57068  0.17927  Biso   1.000  C
  C4014    1.0000 0.40337  0.61009  0.13974  Biso   1.000  C
  C4015    1.0000 0.80788  0.17916  0.67690  Biso   1.000  C
  C4016    1.0000 0.84737  0.14049  0.63815  Biso   1.000  C
  C4017    1.0000 0.30817  0.17897  0.17676  Biso   1.000  C
  C4018    1.0000 0.34684  0.14018  0.13749  Biso   1.000  C
  C4019    1.0000 0.57134  0.94297  0.67849  Biso   1.000  C
  C4020    1.0000 0.61014  0.90573  0.63840  Biso   1.000  C
  C4021    1.0000 0.07158  0.94205  0.17697  Biso   1.000  C
  C4022    1.0000 0.11041  0.90356  0.13776  Biso   1.000  C
  C4023    1.0000 0.17662  0.44245  0.57122  Biso   1.000  C
  C4024    1.0000 0.13870  0.40399  0.61127  Biso   1.000  C
  C4025    1.0000 0.18071  0.94132  0.07188  Biso   1.000  C
  C4026    1.0000 0.14142  0.90309  0.11103  Biso   1.000  C
  C4027    1.0000 0.67870  0.80731  0.17863  Biso   1.000  C
  C4028    1.0000 0.63909  0.84651  0.14053  Biso   1.000  C
  C4029    1.0000 0.67640  0.56978  0.94222  Biso   1.000  C
  C4030    1.0000 0.63792  0.60834  0.90233  Biso   1.000  C
  C4031    1.0000 0.57103  0.17730  0.44128  Biso   1.000  C
  C4032    1.0000 0.61007  0.13953  0.40146  Biso   1.000  C
  C4033    1.0000 0.07024  0.17779  0.94031  Biso   1.000  C
  C4034    1.0000 0.10849  0.13791  0.90143  Biso   1.000  C
  C4035    1.0000 0.17906  0.67932  0.80918  Biso   1.000  C
  C4036    1.0000 0.13966  0.63979  0.84777  Biso   1.000  C
  C4037    1.0000 0.17774  0.17980  0.30874  Biso   1.000  C
  C4038    1.0000 0.14028  0.13831  0.34647  Biso   1.000  C
  C4039    1.0000 0.32233  0.05721  0.42893  Biso   1.000  C
  C4040    1.0000 0.36041  0.09608  0.38921  Biso   1.000  C
  C4041    1.0000 0.32269  0.55732  0.92901  Biso   1.000  C
  C4042    1.0000 0.36063  0.59619  0.88906  Biso   1.000  C
  C4043    1.0000 0.82107  0.19108  0.32319  Biso   1.000  C
  C4044    1.0000 0.86154  0.15261  0.36118  Biso   1.000  C
  C4045    1.0000 0.42834  0.55793  0.81971  Biso   1.000  C
  C4046    1.0000 0.39106  0.59606  0.86099  Biso   1.000  C
  C4047    1.0000 0.92907  0.55831  0.32178  Biso   1.000  C
  C4048    1.0000 0.89014  0.59731  0.36042  Biso   1.000  C
  C4049    1.0000 0.55912  0.82140  0.42906  Biso   1.000  C
  C4050    1.0000 0.59769  0.86019  0.38989  Biso   1.000  C
  C4051    1.0000 0.55940  0.32082  0.92825  Biso   1.000  C
  C4052    1.0000 0.59909  0.36012  0.89077  Biso   1.000  C
  C4053    1.0000 0.19067  0.32224  0.82028  Biso   1.000  C
  C4054    1.0000 0.15263  0.36255  0.85855  Biso   1.000  C
  C4055    1.0000 0.69216  0.32247  0.32137  Biso   1.000  C
  C4056    1.0000 0.65348  0.35998  0.36177  Biso   1.000  C
  C4057    1.0000 0.05894  0.42750  0.32105  Biso   1.000  C
  C4058    1.0000 0.09882  0.38931  0.36018  Biso   1.000  C
  C4059    1.0000 0.32368  0.81999  0.19123  Biso   1.000  C
  C4060    1.0000 0.36069  0.86040  0.15180  Biso   1.000  C
  C4061    1.0000 0.31997  0.31963  0.69172  Biso   1.000  C
  C4062    1.0000 0.35782  0.36123  0.65387  Biso   1.000  C
  C4063    1.0000 0.82188  0.42955  0.55787  Biso   1.000  C
  C4064    1.0000 0.86031  0.38871  0.59499  Biso   1.000  C
  C4065    1.0000 0.42996  0.32187  0.05726  Biso   1.000  C
  C4066    1.0000 0.39087  0.36068  0.09647  Biso   1.000  C
  C4067    1.0000 0.93130  0.32215  0.55778  Biso   1.000  C
  C4068    1.0000 0.89139  0.36118  0.59598  Biso   1.000  C
  C4069    1.0000 0.23509  0.25905  0.80427  Biso   1.000  C
  C4070    1.0000 0.08241  0.94814  0.47135  Biso   1.000  C
  C4071    1.0000 0.10128  0.95284  0.38780  Biso   1.000  C
  C4072    1.0000 0.10959  0.92199  0.37934  Biso   1.000  C
  C4073    1.0000 0.16879  0.98009  0.43476  Biso   1.000  C
  C4074    1.0000 0.14005  0.99165  0.42443  Biso   1.000  C
  C4075    1.0000 0.23494  0.75572  0.30282  Biso   1.000  C
  C4076    1.0000 0.08005  0.44735  0.97222  Biso   1.000  C
  C4077    1.0000 0.10149  0.45477  0.88890  Biso   1.000  C
  C4078    1.0000 0.10935  0.42461  0.87780  Biso   1.000  C
  C4079    1.0000 0.16715  0.47978  0.93792  Biso   1.000  C
  C4080    1.0000 0.13850  0.49287  0.92996  Biso   1.000  C
  C4081    1.0000 0.73631  0.25944  0.30359  Biso   1.000  C
  C4082    1.0000 0.58288  0.94788  0.97173  Biso   1.000  C
  C4083    1.0000 0.60106  0.95217  0.88832  Biso   1.000  C
  C4084    1.0000 0.60953  0.92146  0.87985  Biso   1.000  C
  C4085    1.0000 0.66809  0.98066  0.93480  Biso   1.000  C
  C4086    1.0000 0.64049  0.99351  0.92322  Biso   1.000  C
  C4087    1.0000 0.73431  0.75609  0.80133  Biso   1.000  C
  C4088    1.0000 0.57838  0.44815  0.47307  Biso   1.000  C
  C4089    1.0000 0.60323  0.45352  0.38949  Biso   1.000  C
  C4090    1.0000 0.60876  0.42289  0.37872  Biso   1.000  C
  C4091    1.0000 0.66563  0.47884  0.43770  Biso   1.000  C
  C4092    1.0000 0.63717  0.49208  0.42979  Biso   1.000  C
  C4093    1.0000 0.51766  0.99311  0.30147  Biso   1.000  C
  C4094    1.0000 0.66832  0.29991  0.97328  Biso   1.000  C
  C4095    1.0000 0.65090  0.29739  0.88760  Biso   1.000  C
  C4096    1.0000 0.64434  0.32817  0.87768  Biso   1.000  C
  C4097    1.0000 0.58042  0.26600  0.93321  Biso   1.000  C
  C4098    1.0000 0.60948  0.25538  0.92345  Biso   1.000  C
  C4099    1.0000 0.51725  0.49290  0.80135  Biso   1.000  C
  C4100    1.0000 0.66856  0.80025  0.47440  Biso   1.000  C
  C4101    1.0000 0.65016  0.79741  0.38951  Biso   1.000  C
  C4102    1.0000 0.64208  0.82804  0.38062  Biso   1.000  C
  C4103    1.0000 0.58017  0.76583  0.43362  Biso   1.000  C
  C4104    1.0000 0.60948  0.75520  0.42412  Biso   1.000  C
  C4105    1.0000 0.01690  0.99417  0.80214  Biso   1.000  C
  C4106    1.0000 0.17070  0.30115  0.47252  Biso   1.000  C
  C4107    1.0000 0.14983  0.29583  0.38701  Biso   1.000  C
  C4108    1.0000 0.14267  0.32713  0.37883  Biso   1.000  C
  C4109    1.0000 0.08198  0.26751  0.43365  Biso   1.000  C
  C4110    1.0000 0.11148  0.25650  0.42522  Biso   1.000  C
  C4111    1.0000 0.01770  0.49281  0.30175  Biso   1.000  C
  C4112    1.0000 0.17235  0.80057  0.97206  Biso   1.000  C
  C4113    1.0000 0.15118  0.79776  0.88880  Biso   1.000  C
  C4114    1.0000 0.14208  0.82790  0.87934  Biso   1.000  C
  C4115    1.0000 0.08057  0.76509  0.93358  Biso   1.000  C
  C4116    1.0000 0.11019  0.75540  0.92419  Biso   1.000  C
  C4117    1.0000 0.01399  0.75814  0.94635  Biso   1.000  C
  C4118    1.0000 0.16873  0.44913  0.27762  Biso   1.000  C
  C4119    1.0000 0.15128  0.45294  0.36308  Biso   1.000  C
  C4120    1.0000 0.14263  0.42286  0.37348  Biso   1.000  C
  C4121    1.0000 0.08283  0.48111  0.31479  Biso   1.000  C
  C4122    1.0000 0.11065  0.49368  0.32625  Biso   1.000  C
  C4123    1.0000 0.01743  0.25547  0.44683  Biso   1.000  C
  C4124    1.0000 0.17153  0.94673  0.77919  Biso   1.000  C
  C4125    1.0000 0.14810  0.95425  0.86164  Biso   1.000  C
  C4126    1.0000 0.14118  0.92315  0.87063  Biso   1.000  C
  C4127    1.0000 0.08348  0.97837  0.81327  Biso   1.000  C
  C4128    1.0000 0.11344  0.98933  0.81872  Biso   1.000  C
  C4129    1.0000 0.51600  0.75655  0.44863  Biso   1.000  C
  C4130    1.0000 0.66904  0.44932  0.77670  Biso   1.000  C
  C4131    1.0000 0.65053  0.45346  0.86291  Biso   1.000  C
  C4132    1.0000 0.64186  0.42331  0.87292  Biso   1.000  C
  C4133    1.0000 0.58226  0.47854  0.81474  Biso   1.000  C
  C4134    1.0000 0.61136  0.49001  0.82361  Biso   1.000  C
  C4135    1.0000 0.51685  0.25571  0.94706  Biso   1.000  C
  C4136    1.0000 0.66991  0.94803  0.27808  Biso   1.000  C
  C4137    1.0000 0.65003  0.95322  0.36143  Biso   1.000  C
  C4138    1.0000 0.64234  0.92256  0.37106  Biso   1.000  C
  C4139    1.0000 0.58465  0.97742  0.31253  Biso   1.000  C
  C4140    1.0000 0.61369  0.98893  0.32121  Biso   1.000  C
  C4141    1.0000 0.73159  0.49426  0.44745  Biso   1.000  C
  C4142    1.0000 0.58020  0.80268  0.77949  Biso   1.000  C
  C4143    1.0000 0.60288  0.79603  0.86298  Biso   1.000  C
  C4144    1.0000 0.60920  0.82689  0.87264  Biso   1.000  C
  C4145    1.0000 0.66849  0.76700  0.81169  Biso   1.000  C
  C4146    1.0000 0.63987  0.75602  0.82280  Biso   1.000  C
  C4147    1.0000 0.73257  0.99391  0.94845  Biso   1.000  C
  C4148    1.0000 0.57864  0.29993  0.27853  Biso   1.000  C
  C4149    1.0000 0.60004  0.29767  0.36220  Biso   1.000  C
  C4150    1.0000 0.60823  0.32849  0.37029  Biso   1.000  C
  C4151    1.0000 0.66941  0.26805  0.31718  Biso   1.000  C
  C4152    1.0000 0.64052  0.25706  0.32761  Biso   1.000  C
  C4153    1.0000 0.23404  0.49319  0.94866  Biso   1.000  C
  C4154    1.0000 0.07926  0.80385  0.27920  Biso   1.000  C
  C4155    1.0000 0.10181  0.79640  0.36238  Biso   1.000  C
  C4156    1.0000 0.10854  0.82729  0.37177  Biso   1.000  C
  C4157    1.0000 0.16847  0.76781  0.31429  Biso   1.000  C
  C4158    1.0000 0.13885  0.75775  0.32366  Biso   1.000  C
  C4159    1.0000 0.23322  0.99288  0.44883  Biso   1.000  C
  C4160    1.0000 0.07901  0.30023  0.77806  Biso   1.000  C
  C4161    1.0000 0.09924  0.29849  0.86197  Biso   1.000  C
  C4162    1.0000 0.10757  0.32914  0.87067  Biso   1.000  C
  C4163    1.0000 0.16915  0.26680  0.81737  Biso   1.000  C
  C4164    1.0000 0.14017  0.25606  0.82745  Biso   1.000  C
  C4165    1.0000 0.80471  0.23288  0.25883  Biso   1.000  C
  C4166    1.0000 0.47122  0.07861  0.94852  Biso   1.000  C
  C4167    1.0000 0.38765  0.09924  0.95354  Biso   1.000  C
  C4168    1.0000 0.37799  0.10573  0.92251  Biso   1.000  C
  C4169    1.0000 0.43363  0.16954  0.98121  Biso   1.000  C
  C4170    1.0000 0.42354  0.14044  0.99167  Biso   1.000  C
  C4171    1.0000 0.80228  0.73298  0.75682  Biso   1.000  C
  C4172    1.0000 0.47277  0.58255  0.44935  Biso   1.000  C
  C4173    1.0000 0.38765  0.59927  0.45320  Biso   1.000  C
  C4174    1.0000 0.37779  0.60647  0.42240  Biso   1.000  C
  C4175    1.0000 0.43302  0.66976  0.48304  Biso   1.000  C
  C4176    1.0000 0.42256  0.64077  0.49369  Biso   1.000  C
  C4177    1.0000 0.30322  0.23219  0.75789  Biso   1.000  C
  C4178    1.0000 0.97214  0.08119  0.44864  Biso   1.000  C
  C4179    1.0000 0.88787  0.09849  0.45338  Biso   1.000  C
  C4180    1.0000 0.87793  0.10469  0.42256  Biso   1.000  C
  C4181    1.0000 0.93414  0.16946  0.48157  Biso   1.000  C
  C4182    1.0000 0.92374  0.14051  0.49217  Biso   1.000  C
  C4183    1.0000 0.30355  0.73388  0.25671  Biso   1.000  C
  C4184    1.0000 0.97188  0.58122  0.94950  Biso   1.000  C
  C4185    1.0000 0.88643  0.59909  0.95387  Biso   1.000  C
  C4186    1.0000 0.87693  0.60654  0.92309  Biso   1.000  C
  C4187    1.0000 0.93402  0.66848  0.98133  Biso   1.000  C
  C4188    1.0000 0.92353  0.64002  0.99321  Biso   1.000  C
  C4189    1.0000 0.30441  0.51721  0.99312  Biso   1.000  C
  C4190    1.0000 0.97138  0.66935  0.30213  Biso   1.000  C
  C4191    1.0000 0.88925  0.64756  0.29707  Biso   1.000  C
  C4192    1.0000 0.87981  0.64211  0.32810  Biso   1.000  C
  C4193    1.0000 0.93894  0.58346  0.27024  Biso   1.000  C
  C4194    1.0000 0.92930  0.61151  0.25702  Biso   1.000  C
  C4195    1.0000 0.30467  0.01687  0.49334  Biso   1.000  C
  C4196    1.0000 0.97170  0.17049  0.80051  Biso   1.000  C
  C4197    1.0000 0.88669  0.15005  0.79693  Biso   1.000  C
  C4198    1.0000 0.87565  0.14131  0.82686  Biso   1.000  C
  C4199    1.0000 0.93771  0.08440  0.76889  Biso   1.000  C
  C4200    1.0000 0.92753  0.11278  0.75654  Biso   1.000  C
  C4201    1.0000 0.80338  0.51736  0.49230  Biso   1.000  C
  C4202    1.0000 0.47165  0.67046  0.80168  Biso   1.000  C
  C4203    1.0000 0.38864  0.64977  0.79736  Biso   1.000  C
  C4204    1.0000 0.37837  0.64128  0.82767  Biso   1.000  C
  C4205    1.0000 0.43838  0.58466  0.76986  Biso   1.000  C
  C4206    1.0000 0.42730  0.61334  0.75914  Biso   1.000  C
  C4207    1.0000 0.80461  0.01755  0.99426  Biso   1.000  C
  C4208    1.0000 0.47210  0.16928  0.30029  Biso   1.000  C
  C4209    1.0000 0.38699  0.14947  0.29712  Biso   1.000  C
  C4210    1.0000 0.37631  0.14117  0.32733  Biso   1.000  C
  C4211    1.0000 0.43701  0.08292  0.26948  Biso   1.000  C
  C4212    1.0000 0.42684  0.11122  0.25680  Biso   1.000  C
  C4213    1.0000 0.94516  0.01841  0.75581  Biso   1.000  C
  C4214    1.0000 0.27787  0.16778  0.44850  Biso   1.000  C
  C4215    1.0000 0.36145  0.14932  0.45306  Biso   1.000  C
  C4216    1.0000 0.37300  0.14150  0.42306  Biso   1.000  C
  C4217    1.0000 0.31322  0.08206  0.48222  Biso   1.000  C
  C4218    1.0000 0.32390  0.10963  0.49575  Biso   1.000  C
  C4219    1.0000 0.94545  0.51773  0.25683  Biso   1.000  C
  C4220    1.0000 0.27772  0.66645  0.94889  Biso   1.000  C
  C4221    1.0000 0.36324  0.64967  0.95315  Biso   1.000  C
  C4222    1.0000 0.37385  0.64077  0.92314  Biso   1.000  C
  C4223    1.0000 0.31463  0.58254  0.98188  Biso   1.000  C
  C4224    1.0000 0.32602  0.60991  0.99528  Biso   1.000  C
  C4225    1.0000 0.44520  0.01514  0.25858  Biso   1.000  C
  C4226    1.0000 0.77760  0.16755  0.94837  Biso   1.000  C
  C4227    1.0000 0.86202  0.14885  0.95211  Biso   1.000  C
  C4228    1.0000 0.87353  0.14125  0.92214  Biso   1.000  C
  C4229    1.0000 0.81310  0.08257  0.98294  Biso   1.000  C
  C4230    1.0000 0.82392  0.11014  0.99650  Biso   1.000  C
  C4231    1.0000 0.44716  0.51877  0.75473  Biso   1.000  C
  C4232    1.0000 0.77725  0.66983  0.44954  Biso   1.000  C
  C4233    1.0000 0.86035  0.65002  0.45325  Biso   1.000  C
  C4234    1.0000 0.87068  0.64236  0.42271  Biso   1.000  C
  C4235    1.0000 0.81277  0.58215  0.48075  Biso   1.000  C
  C4236    1.0000 0.82297  0.61033  0.49366  Biso   1.000  C
  C4237    1.0000 0.44609  0.73584  0.49360  Biso   1.000  C
  C4238    1.0000 0.77860  0.58116  0.80194  Biso   1.000  C
  C4239    1.0000 0.86249  0.59810  0.79770  Biso   1.000  C
  C4240    1.0000 0.87221  0.60464  0.82852  Biso   1.000  C
  C4241    1.0000 0.81703  0.66896  0.76832  Biso   1.000  C
  C4242    1.0000 0.82694  0.63999  0.75757  Biso   1.000  C
  C4243    1.0000 0.44581  0.23495  0.99118  Biso   1.000  C
  C4244    1.0000 0.77802  0.08227  0.30144  Biso   1.000  C
  C4245    1.0000 0.86272  0.09991  0.29741  Biso   1.000  C
  C4246    1.0000 0.87279  0.10736  0.32803  Biso   1.000  C
  C4247    1.0000 0.81302  0.16677  0.27076  Biso   1.000  C
  C4248    1.0000 0.82562  0.13948  0.25812  Biso   1.000  C
  C4249    1.0000 0.94510  0.73451  0.99303  Biso   1.000  C
  C4250    1.0000 0.27943  0.58065  0.30282  Biso   1.000  C
  C4251    1.0000 0.36402  0.60067  0.29656  Biso   1.000  C
  C4252    1.0000 0.37290  0.60823  0.32748  Biso   1.000  C
  C4253    1.0000 0.31701  0.66863  0.26858  Biso   1.000  C
  C4254    1.0000 0.32604  0.63937  0.25772  Biso   1.000  C
  C4255    1.0000 0.94748  0.23494  0.49212  Biso   1.000  C
  C4256    1.0000 0.27679  0.08111  0.80124  Biso   1.000  C
  C4257    1.0000 0.36206  0.09910  0.79710  Biso   1.000  C
  C4258    1.0000 0.37224  0.10664  0.82770  Biso   1.000  C
  C4259    1.0000 0.31287  0.16780  0.77066  Biso   1.000  C
  C4260    1.0000 0.32433  0.13947  0.75955  Biso   1.000  C
  C4261    1.0000 0.25768  0.80373  0.23370  Biso   1.000  C
  C4262    1.0000 0.94873  0.47072  0.08016  Biso   1.000  C
  C4263    1.0000 0.95265  0.38870  0.10191  Biso   1.000  C
  C4264    1.0000 0.92171  0.37895  0.10809  Biso   1.000  C
  C4265    1.0000 0.98318  0.43620  0.16989  Biso   1.000  C
  C4266    1.0000 0.99365  0.42447  0.14123  Biso   1.000  C
  C4267    1.0000 0.25680  0.30103  0.73446  Biso   1.000  C
  C4268    1.0000 0.94774  0.97194  0.57885  Biso   1.000  C
  C4269    1.0000 0.95409  0.88942  0.60230  Biso   1.000  C
  C4270    1.0000 0.92338  0.87860  0.60758  Biso   1.000  C
  C4271    1.0000 0.98078  0.94018  0.66614  Biso   1.000  C
  C4272    1.0000 0.99325  0.92979  0.63765  Biso   1.000  C
  C4273    1.0000 0.76001  0.80517  0.73512  Biso   1.000  C
  C4274    1.0000 0.44805  0.47050  0.58095  Biso   1.000  C
  C4275    1.0000 0.45208  0.38808  0.60343  Biso   1.000  C
  C4276    1.0000 0.42113  0.37866  0.60972  Biso   1.000  C
  C4277    1.0000 0.48320  0.43414  0.66986  Biso   1.000  C
  C4278    1.0000 0.49523  0.42345  0.64149  Biso   1.000  C
  C4279    1.0000 0.75815  0.30153  0.23558  Biso   1.000  C
  C4280    1.0000 0.44773  0.97120  0.08016  Biso   1.000  C
  C4281    1.0000 0.45456  0.88863  0.10234  Biso   1.000  C
  C4282    1.0000 0.42365  0.87825  0.10747  Biso   1.000  C
  C4283    1.0000 0.48286  0.93847  0.16679  Biso   1.000  C
  C4284    1.0000 0.49453  0.92824  0.13805  Biso   1.000  C
  C4285    1.0000 0.99405  0.30454  0.51479  Biso   1.000  C
  C4286    1.0000 0.30057  0.97161  0.66908  Biso   1.000  C
  C4287    1.0000 0.29714  0.88700  0.65015  Biso   1.000  C
  C4288    1.0000 0.32796  0.87830  0.64232  Biso   1.000  C
  C4289    1.0000 0.26985  0.93660  0.58267  Biso   1.000  C
  C4290    1.0000 0.25909  0.92548  0.61147  Biso   1.000  C
  C4291    1.0000 0.99249  0.80379  0.01476  Biso   1.000  C
  C4292    1.0000 0.30137  0.47164  0.17162  Biso   1.000  C
  C4293    1.0000 0.29678  0.38652  0.14800  Biso   1.000  C
  C4294    1.0000 0.32734  0.37593  0.14116  Biso   1.000  C
  C4295    1.0000 0.27015  0.43794  0.08351  Biso   1.000  C
  C4296    1.0000 0.25915  0.42706  0.11213  Biso   1.000  C
  C4297    1.0000 0.49264  0.30430  0.01418  Biso   1.000  C
  C4298    1.0000 0.80067  0.97230  0.17158  Biso   1.000  C
  C4299    1.0000 0.79661  0.88443  0.15090  Biso   1.000  C
  C4300    1.0000 0.82712  0.87423  0.14315  Biso   1.000  C
  C4301    1.0000 0.76905  0.93544  0.08176  Biso   1.000  C
  C4302    1.0000 0.75858  0.92380  0.11042  Biso   1.000  C
  C4303    1.0000 0.49496  0.80473  0.51677  Biso   1.000  C
  C4304    1.0000 0.80180  0.47039  0.66915  Biso   1.000  C
  C4305    1.0000 0.79610  0.38597  0.64669  Biso   1.000  C
  C4306    1.0000 0.82672  0.37589  0.63949  Biso   1.000  C
  C4307    1.0000 0.77113  0.43749  0.58325  Biso   1.000  C
  C4308    1.0000 0.75938  0.42633  0.61146  Biso   1.000  C
  C4309    1.0000 0.75843  0.94520  0.01593  Biso   1.000  C
  C4310    1.0000 0.44791  0.27774  0.16816  Biso   1.000  C
  C4311    1.0000 0.45293  0.36203  0.14967  Biso   1.000  C
  C4312    1.0000 0.42240  0.37278  0.14285  Biso   1.000  C
  C4313    1.0000 0.48426  0.31414  0.07982  Biso   1.000  C
  C4314    1.0000 0.49634  0.32531  0.10798  Biso   1.000  C
  C4315    1.0000 0.75773  0.44584  0.51638  Biso   1.000  C
  C4316    1.0000 0.44848  0.77763  0.66848  Biso   1.000  C
  C4317    1.0000 0.45337  0.86463  0.65195  Biso   1.000  C
  C4318    1.0000 0.42296  0.87507  0.64438  Biso   1.000  C
  C4319    1.0000 0.48396  0.81716  0.58184  Biso   1.000  C
  C4320    1.0000 0.49344  0.82614  0.61169  Biso   1.000  C
  C4321    1.0000 0.25839  0.94484  0.51660  Biso   1.000  C
  C4322    1.0000 0.94677  0.27895  0.66864  Biso   1.000  C
  C4323    1.0000 0.95192  0.36361  0.65090  Biso   1.000  C
  C4324    1.0000 0.92155  0.37402  0.64322  Biso   1.000  C
  C4325    1.0000 0.98462  0.31516  0.58100  Biso   1.000  C
  C4326    1.0000 0.99532  0.32685  0.60947  Biso   1.000  C
  C4327    1.0000 0.25762  0.44365  0.01623  Biso   1.000  C
  C4328    1.0000 0.94855  0.77767  0.16876  Biso   1.000  C
  C4329    1.0000 0.95272  0.86130  0.15026  Biso   1.000  C
  C4330    1.0000 0.92200  0.87210  0.14452  Biso   1.000  C
  C4331    1.0000 0.98506  0.81356  0.08102  Biso   1.000  C
  C4332    1.0000 0.99694  0.82481  0.10912  Biso   1.000  C
  C4333    1.0000 0.49193  0.44444  0.73501  Biso   1.000  C
  C4334    1.0000 0.80116  0.77914  0.58203  Biso   1.000  C
  C4335    1.0000 0.79765  0.86068  0.60217  Biso   1.000  C
  C4336    1.0000 0.82869  0.87047  0.60782  Biso   1.000  C
  C4337    1.0000 0.76955  0.81385  0.66816  Biso   1.000  C
  C4338    1.0000 0.75541  0.82495  0.64094  Biso   1.000  C
  C4339    1.0000 0.49409  0.94800  0.23273  Biso   1.000  C
  C4340    1.0000 0.80020  0.27724  0.07985  Biso   1.000  C
  C4341    1.0000 0.79647  0.36167  0.10078  Biso   1.000  C
  C4342    1.0000 0.82709  0.37183  0.10810  Biso   1.000  C
  C4343    1.0000 0.76867  0.31068  0.16845  Biso   1.000  C
  C4344    1.0000 0.75632  0.32133  0.14014  Biso   1.000  C
  C4345    1.0000 0.99189  0.44459  0.23536  Biso   1.000  C
  C4346    1.0000 0.30071  0.77685  0.08297  Biso   1.000  C
  C4347    1.0000 0.29840  0.86277  0.09893  Biso   1.000  C
  C4348    1.0000 0.32876  0.87369  0.10526  Biso   1.000  C
  C4349    1.0000 0.26903  0.81771  0.16903  Biso   1.000  C
  C4350    1.0000 0.25554  0.82842  0.14138  Biso   1.000  C
  C4351    1.0000 0.99291  0.94651  0.73336  Biso   1.000  C
  C4352    1.0000 0.30020  0.27832  0.58129  Biso   1.000  C
  C4353    1.0000 0.29660  0.36341  0.60089  Biso   1.000  C
  C4354    1.0000 0.32661  0.37496  0.60747  Biso   1.000  C
  C4355    1.0000 0.26754  0.31192  0.66827  Biso   1.000  C
  C4356    1.0000 0.25475  0.32463  0.64117  Biso   1.000  C
  C4357    1.0000 0.00786  0.48395  0.70006  Biso   1.000  C
  C4358    1.0000 0.69834  0.33194  0.02805  Biso   1.000  C
  C4359    1.0000 0.70282  0.34796  0.11441  Biso   1.000  C
  C4360    1.0000 0.67293  0.35733  0.12449  Biso   1.000  C
  C4361    1.0000 0.72971  0.41669  0.06535  Biso   1.000  C
  C4362    1.0000 0.74091  0.38888  0.07836  Biso   1.000  C
  C4363    1.0000 0.00603  0.98330  0.19702  Biso   1.000  C
  C4364    1.0000 0.69927  0.83250  0.52809  Biso   1.000  C
  C4365    1.0000 0.70233  0.85250  0.61150  Biso   1.000  C
  C4366    1.0000 0.67136  0.85887  0.62110  Biso   1.000  C
  C4367    1.0000 0.73306  0.91899  0.56510  Biso   1.000  C
  C4368    1.0000 0.74575  0.89118  0.57616  Biso   1.000  C
  C4369    1.0000 0.50642  0.48168  0.19700  Biso   1.000  C
  C4370    1.0000 0.19800  0.33016  0.53012  Biso   1.000  C
  C4371    1.0000 0.20220  0.35191  0.61179  Biso   1.000  C
  C4372    1.0000 0.17142  0.35866  0.62142  Biso   1.000  C
  C4373    1.0000 0.23147  0.41957  0.56727  Biso   1.000  C
  C4374    1.0000 0.24438  0.39160  0.57760  Biso   1.000  C
  C4375    1.0000 0.50553  0.98407  0.69715  Biso   1.000  C
  C4376    1.0000 0.19900  0.83081  0.02887  Biso   1.000  C
  C4377    1.0000 0.20353  0.85312  0.11042  Biso   1.000  C
  C4378    1.0000 0.17262  0.85850  0.12037  Biso   1.000  C
  C4379    1.0000 0.23323  0.91729  0.06075  Biso   1.000  C
  C4380    1.0000 0.24641  0.88978  0.07204  Biso   1.000  C
  C4381    1.0000 0.74392  0.76488  0.19651  Biso   1.000  C
  C4382    1.0000 0.05091  0.91895  0.52625  Biso   1.000  C
  C4383    1.0000 0.04706  0.90044  0.61103  Biso   1.000  C
  C4384    1.0000 0.07810  0.89456  0.62067  Biso   1.000  C
  C4385    1.0000 0.01711  0.83254  0.56574  Biso   1.000  C
  C4386    1.0000 0.00652  0.86207  0.57427  Biso   1.000  C
  C4387    1.0000 0.74346  0.26626  0.69718  Biso   1.000  C
  C4388    1.0000 0.05211  0.41729  0.02935  Biso   1.000  C
  C4389    1.0000 0.04760  0.39960  0.11325  Biso   1.000  C
  C4390    1.0000 0.07844  0.39224  0.12287  Biso   1.000  C
  C4391    1.0000 0.01854  0.33152  0.06483  Biso   1.000  C
  C4392    1.0000 0.00597  0.35923  0.07640  Biso   1.000  C
  C4393    1.0000 0.24213  0.76558  0.69279  Biso   1.000  C
  C4394    1.0000 0.55119  0.91941  0.02629  Biso   1.000  C
  C4395    1.0000 0.54747  0.89935  0.11135  Biso   1.000  C
  C4396    1.0000 0.57767  0.89132  0.12209  Biso   1.000  C
  C4397    1.0000 0.52056  0.83259  0.06661  Biso   1.000  C
  C4398    1.0000 0.50863  0.86183  0.07440  Biso   1.000  C
  C4399    1.0000 0.24416  0.26634  0.19771  Biso   1.000  C
  C4400    1.0000 0.55030  0.41622  0.52888  Biso   1.000  C
  C4401    1.0000 0.54709  0.39916  0.61225  Biso   1.000  C
  C4402    1.0000 0.57811  0.39299  0.62181  Biso   1.000  C
  C4403    1.0000 0.51720  0.33020  0.56631  Biso   1.000  C
  C4404    1.0000 0.50416  0.35787  0.57722  Biso   1.000  C
  C4405    1.0000 0.50531  0.26597  0.55253  Biso   1.000  C
  C4406    1.0000 0.19936  0.41866  0.22243  Biso   1.000  C
  C4407    1.0000 0.20402  0.39809  0.13725  Biso   1.000  C
  C4408    1.0000 0.17331  0.39069  0.12773  Biso   1.000  C
  C4409    1.0000 0.23271  0.33100  0.18501  Biso   1.000  C
  C4410    1.0000 0.24348  0.36025  0.17561  Biso   1.000  C
  C4411    1.0000 0.50412  0.76808  0.05590  Biso   1.000  C
  C4412    1.0000 0.19803  0.92085  0.72141  Biso   1.000  C
  C4413    1.0000 0.20424  0.89696  0.63599  Biso   1.000  C
  C4414    1.0000 0.17321  0.88989  0.62667  Biso   1.000  C
  C4415    1.0000 0.22827  0.83240  0.68421  Biso   1.000  C
  C4416    1.0000 0.24026  0.86192  0.67782  Biso   1.000  C
  C4417    1.0000 0.00587  0.26576  0.05458  Biso   1.000  C
  C4418    1.0000 0.69915  0.41865  0.72150  Biso   1.000  C
  C4419    1.0000 0.70337  0.39758  0.63628  Biso   1.000  C
  C4420    1.0000 0.67269  0.38995  0.62679  Biso   1.000  C
  C4421    1.0000 0.73213  0.33064  0.68434  Biso   1.000  C
  C4422    1.0000 0.74295  0.35978  0.67479  Biso   1.000  C
  C4423    1.0000 0.00335  0.76742  0.55412  Biso   1.000  C
  C4424    1.0000 0.69985  0.91859  0.22283  Biso   1.000  C
  C4425    1.0000 0.70304  0.90065  0.13766  Biso   1.000  C
  C4426    1.0000 0.67239  0.89269  0.12808  Biso   1.000  C
  C4427    1.0000 0.73236  0.82958  0.18319  Biso   1.000  C
  C4428    1.0000 0.74235  0.85922  0.17433  Biso   1.000  C
  C4429    1.0000 0.24197  0.98481  0.05013  Biso   1.000  C
  C4430    1.0000 0.55313  0.82936  0.72186  Biso   1.000  C
  C4431    1.0000 0.54605  0.85311  0.63935  Biso   1.000  C
  C4432    1.0000 0.57661  0.86033  0.62896  Biso   1.000  C
  C4433    1.0000 0.52011  0.91684  0.68591  Biso   1.000  C
  C4434    1.0000 0.50912  0.88666  0.68136  Biso   1.000  C
  C4435    1.0000 0.24245  0.48446  0.55322  Biso   1.000  C
  C4436    1.0000 0.55079  0.32998  0.22183  Biso   1.000  C
  C4437    1.0000 0.54758  0.34878  0.13718  Biso   1.000  C
  C4438    1.0000 0.57795  0.35752  0.12766  Biso   1.000  C
  C4439    1.0000 0.51850  0.41631  0.18659  Biso   1.000  C
  C4440    1.0000 0.50562  0.38881  0.17490  Biso   1.000  C
  C4441    1.0000 0.74312  0.98464  0.55204  Biso   1.000  C
  C4442    1.0000 0.05230  0.83227  0.22179  Biso   1.000  C
  C4443    1.0000 0.04771  0.84987  0.13786  Biso   1.000  C
  C4444    1.0000 0.07824  0.85769  0.12781  Biso   1.000  C
  C4445    1.0000 0.01712  0.91840  0.18398  Biso   1.000  C
  C4446    1.0000 0.00425  0.89016  0.17426  Biso   1.000  C
  C4447    1.0000 0.74347  0.48248  0.05426  Biso   1.000  C
  C4448    1.0000 0.05019  0.33021  0.72231  Biso   1.000  C
  C4449    1.0000 0.04642  0.35053  0.63922  Biso   1.000  C
  C4450    1.0000 0.07705  0.35809  0.62952  Biso   1.000  C
  C4451    1.0000 0.01781  0.41720  0.68877  Biso   1.000  C
  C4452    1.0000 0.00454  0.38990  0.67714  Biso   1.000  C
  C4453    1.0000 0.98407  0.05403  0.24229  Biso   1.000  C
  C4454    1.0000 0.82831  0.72232  0.55173  Biso   1.000  C
  C4455    1.0000 0.84743  0.63631  0.54780  Biso   1.000  C
  C4456    1.0000 0.85606  0.62766  0.57852  Biso   1.000  C
  C4457    1.0000 0.91896  0.68235  0.51669  Biso   1.000  C
  C4458    1.0000 0.88919  0.67332  0.50698  Biso   1.000  C
  C4459    1.0000 0.98391  0.55172  0.74382  Biso   1.000  C
  C4460    1.0000 0.83181  0.22342  0.04895  Biso   1.000  C
  C4461    1.0000 0.84999  0.14033  0.04772  Biso   1.000  C
  C4462    1.0000 0.85578  0.12794  0.07762  Biso   1.000  C
  C4463    1.0000 0.91800  0.18579  0.01660  Biso   1.000  C
  C4464    1.0000 0.89044  0.17470  0.00330  Biso   1.000  C
  C4465    1.0000 0.48413  0.05486  0.74302  Biso   1.000  C
  C4466    1.0000 0.33072  0.72301  0.04992  Biso   1.000  C
  C4467    1.0000 0.35059  0.63942  0.04813  Biso   1.000  C
  C4468    1.0000 0.35727  0.62693  0.07787  Biso   1.000  C
  C4469    1.0000 0.41992  0.68369  0.01682  Biso   1.000  C
  C4470    1.0000 0.39051  0.67478  0.00582  Biso   1.000  C
  C4471    1.0000 0.48482  0.55483  0.24281  Biso   1.000  C
  C4472    1.0000 0.33126  0.22351  0.54990  Biso   1.000  C
  C4473    1.0000 0.34923  0.13749  0.54802  Biso   1.000  C
  C4474    1.0000 0.35667  0.12611  0.57820  Biso   1.000  C
  C4475    1.0000 0.41901  0.18292  0.51584  Biso   1.000  C
  C4476    1.0000 0.38999  0.17313  0.50510  Biso   1.000  C
  C4477    1.0000 0.26573  0.55652  0.50711  Biso   1.000  C
  C4478    1.0000 0.42175  0.22103  0.19756  Biso   1.000  C
  C4479    1.0000 0.39697  0.13641  0.20434  Biso   1.000  C
  C4480    1.0000 0.38973  0.12716  0.17334  Biso   1.000  C
  C4481    1.0000 0.33294  0.18476  0.22828  Biso   1.000  C
  C4482    1.0000 0.36183  0.17706  0.24116  Biso   1.000  C
  C4483    1.0000 0.26700  0.05368  0.00437  Biso   1.000  C
  C4484    1.0000 0.41849  0.72266  0.69861  Biso   1.000  C
  C4485    1.0000 0.39810  0.63766  0.70426  Biso   1.000  C
  C4486    1.0000 0.39084  0.62727  0.67362  Biso   1.000  C
  C4487    1.0000 0.33278  0.68821  0.73131  Biso   1.000  C
  C4488    1.0000 0.36141  0.67790  0.74298  Biso   1.000  C
  C4489    1.0000 0.76275  0.55489  0.00985  Biso   1.000  C
  C4490    1.0000 0.92109  0.22243  0.69795  Biso   1.000  C
  C4491    1.0000 0.89754  0.13750  0.70438  Biso   1.000  C
  C4492    1.0000 0.89047  0.12782  0.67350  Biso   1.000  C
  C4493    1.0000 0.83271  0.18528  0.72824  Biso   1.000  C
  C4494    1.0000 0.86159  0.17771  0.74115  Biso   1.000  C
  C4495    1.0000 0.76433  0.05481  0.50806  Biso   1.000  C
  C4496    1.0000 0.92201  0.72133  0.19842  Biso   1.000  C
  C4497    1.0000 0.89898  0.63570  0.20453  Biso   1.000  C
  C4498    1.0000 0.89163  0.62613  0.17373  Biso   1.000  C
  C4499    1.0000 0.83150  0.68359  0.23225  Biso   1.000  C
  C4500    1.0000 0.86079  0.67417  0.24319  Biso   1.000  C
  C4501    1.0000 0.76432  0.19569  0.74135  Biso   1.000  C
  C4502    1.0000 0.92048  0.52844  0.05183  Biso   1.000  C
  C4503    1.0000 0.90112  0.61284  0.04762  Biso   1.000  C
  C4504    1.0000 0.89324  0.62281  0.07798  Biso   1.000  C
  C4505    1.0000 0.82974  0.56595  0.01788  Biso   1.000  C
  C4506    1.0000 0.85935  0.57590  0.00881  Biso   1.000  C
  C4507    1.0000 0.76367  0.69627  0.24044  Biso   1.000  C
  C4508    1.0000 0.91980  0.02946  0.55260  Biso   1.000  C
  C4509    1.0000 0.90113  0.11358  0.54726  Biso   1.000  C
  C4510    1.0000 0.89365  0.12368  0.57776  Biso   1.000  C
  C4511    1.0000 0.83327  0.06587  0.52101  Biso   1.000  C
  C4512    1.0000 0.86317  0.07351  0.51101  Biso   1.000  C
  C4513    1.0000 0.26403  0.19509  0.24070  Biso   1.000  C
  C4514    1.0000 0.42132  0.52827  0.55117  Biso   1.000  C
  C4515    1.0000 0.40105  0.61274  0.54776  Biso   1.000  C
  C4516    1.0000 0.39419  0.62332  0.57823  Biso   1.000  C
  C4517    1.0000 0.33111  0.56412  0.51663  Biso   1.000  C
  C4518    1.0000 0.36036  0.57429  0.50669  Biso   1.000  C
  C4519    1.0000 0.26498  0.69732  0.74106  Biso   1.000  C
  C4520    1.0000 0.42053  0.02940  0.05302  Biso   1.000  C
  C4521    1.0000 0.40179  0.11409  0.04707  Biso   1.000  C
  C4522    1.0000 0.39367  0.12380  0.07750  Biso   1.000  C
  C4523    1.0000 0.33283  0.06597  0.02095  Biso   1.000  C
  C4524    1.0000 0.36278  0.07401  0.01145  Biso   1.000  C
  C4525    1.0000 0.48610  0.69802  0.00765  Biso   1.000  C
  C4526    1.0000 0.32801  0.02709  0.69996  Biso   1.000  C
  C4527    1.0000 0.34866  0.11372  0.70346  Biso   1.000  C
  C4528    1.0000 0.35729  0.12401  0.67336  Biso   1.000  C
  C4529    1.0000 0.41775  0.06506  0.73214  Biso   1.000  C
  C4530    1.0000 0.38856  0.07565  0.74170  Biso   1.000  C
  C4531    1.0000 0.48471  0.19588  0.50792  Biso   1.000  C
  C4532    1.0000 0.33013  0.52922  0.19799  Biso   1.000  C
  C4533    1.0000 0.35251  0.61275  0.20368  Biso   1.000  C
  C4534    1.0000 0.35912  0.62279  0.17285  Biso   1.000  C
  C4535    1.0000 0.41738  0.56306  0.23000  Biso   1.000  C
  C4536    1.0000 0.38795  0.57127  0.24062  Biso   1.000  C
  C4537    1.0000 0.98556  0.69738  0.50701  Biso   1.000  C
  C4538    1.0000 0.83056  0.02747  0.20002  Biso   1.000  C
  C4539    1.0000 0.85014  0.11258  0.20303  Biso   1.000  C
  C4540    1.0000 0.85656  0.12314  0.17233  Biso   1.000  C
  C4541    1.0000 0.91787  0.06379  0.23132  Biso   1.000  C
  C4542    1.0000 0.88966  0.07430  0.24361  Biso   1.000  C
  C4543    1.0000 0.98475  0.19579  0.00789  Biso   1.000  C
  C4544    1.0000 0.82924  0.52766  0.69889  Biso   1.000  C
  C4545    1.0000 0.85117  0.61239  0.70371  Biso   1.000  C
  C4546    1.0000 0.85978  0.62153  0.67310  Biso   1.000  C
  C4547    1.0000 0.91721  0.56447  0.72946  Biso   1.000  C
  C4548    1.0000 0.88766  0.57283  0.74004  Biso   1.000  C
  C4549    1.0000 0.55206  0.50612  0.26686  Biso   1.000  C
  C4550    1.0000 0.22255  0.19855  0.41919  Biso   1.000  C
  C4551    1.0000 0.13684  0.20345  0.39804  Biso   1.000  C
  C4552    1.0000 0.12707  0.17297  0.38983  Biso   1.000  C
  C4553    1.0000 0.18958  0.23080  0.33349  Biso   1.000  C
  C4554    1.0000 0.18014  0.24369  0.36188  Biso   1.000  C
  C4555    1.0000 0.55205  0.00524  0.76654  Biso   1.000  C
  C4556    1.0000 0.22272  0.69807  0.91700  Biso   1.000  C
  C4557    1.0000 0.13661  0.70363  0.90108  Biso   1.000  C
  C4558    1.0000 0.12621  0.67347  0.89305  Biso   1.000  C
  C4559    1.0000 0.18611  0.73344  0.83129  Biso   1.000  C
  C4560    1.0000 0.17472  0.74551  0.85936  Biso   1.000  C
  C4561    1.0000 0.05443  0.50677  0.76763  Biso   1.000  C
  C4562    1.0000 0.72153  0.19802  0.91746  Biso   1.000  C
  C4563    1.0000 0.63599  0.20318  0.90041  Biso   1.000  C
  C4564    1.0000 0.62556  0.17281  0.89313  Biso   1.000  C
  C4565    1.0000 0.68606  0.23108  0.83192  Biso   1.000  C
  C4566    1.0000 0.67489  0.24418  0.85961  Biso   1.000  C
  C4567    1.0000 0.05475  0.00796  0.26344  Biso   1.000  C
  C4568    1.0000 0.72320  0.70028  0.41953  Biso   1.000  C
  C4569    1.0000 0.63839  0.70280  0.40112  Biso   1.000  C
  C4570    1.0000 0.62858  0.67244  0.39265  Biso   1.000  C
  C4571    1.0000 0.68729  0.73200  0.33312  Biso   1.000  C
  C4572    1.0000 0.67607  0.74466  0.36105  Biso   1.000  C
  C4573    1.0000 0.05122  0.24197  0.98378  Biso   1.000  C
  C4574    1.0000 0.72151  0.55160  0.83103  Biso   1.000  C
  C4575    1.0000 0.63679  0.54699  0.84813  Biso   1.000  C
  C4576    1.0000 0.62732  0.57806  0.85444  Biso   1.000  C
  C4577    1.0000 0.68601  0.51852  0.91783  Biso   1.000  C
  C4578    1.0000 0.67436  0.50835  0.88907  Biso   1.000  C
  C4579    1.0000 0.05442  0.74227  0.48534  Biso   1.000  C
  C4580    1.0000 0.72181  0.05208  0.33153  Biso   1.000  C
  C4581    1.0000 0.63762  0.04717  0.34739  Biso   1.000  C
  C4582    1.0000 0.62816  0.07831  0.35361  Biso   1.000  C
  C4583    1.0000 0.68571  0.01912  0.41776  Biso   1.000  C
  C4584    1.0000 0.67427  0.00872  0.38901  Biso   1.000  C
  C4585    1.0000 0.55418  0.24038  0.48486  Biso   1.000  C
  C4586    1.0000 0.22204  0.55203  0.33226  Biso   1.000  C
  C4587    1.0000 0.13847  0.54737  0.34963  Biso   1.000  C
  C4588    1.0000 0.12793  0.57823  0.35536  Biso   1.000  C
  C4589    1.0000 0.18618  0.51665  0.41900  Biso   1.000  C
  C4590    1.0000 0.17567  0.50537  0.39040  Biso   1.000  C
  C4591    1.0000 0.55512  0.74178  0.98540  Biso   1.000  C
  C4592    1.0000 0.22148  0.05200  0.83025  Biso   1.000  C
  C4593    1.0000 0.13451  0.04638  0.84708  Biso   1.000  C
  C4594    1.0000 0.12600  0.07747  0.85479  Biso   1.000  C
  C4595    1.0000 0.18525  0.02011  0.91673  Biso   1.000  C
  C4596    1.0000 0.17411  0.00990  0.88765  Biso   1.000  C
  C4597    1.0000 0.69662  0.00820  0.48461  Biso   1.000  C
  C4598    1.0000 0.02788  0.69851  0.33051  Biso   1.000  C
  C4599    1.0000 0.11283  0.70355  0.35039  Biso   1.000  C
  C4600    1.0000 0.12371  0.67303  0.35635  Biso   1.000  C
  C4601    1.0000 0.06528  0.73253  0.41861  Biso   1.000  C
  C4602    1.0000 0.07413  0.74220  0.38886  Biso   1.000  C
  C4603    1.0000 0.69614  0.50654  0.98423  Biso   1.000  C
  C4604    1.0000 0.02694  0.20002  0.83271  Biso   1.000  C
  C4605    1.0000 0.11314  0.20374  0.85087  Biso   1.000  C
  C4606    1.0000 0.12356  0.17336  0.85866  Biso   1.000  C
  C4607    1.0000 0.06416  0.23241  0.91870  Biso   1.000  C
  C4608    1.0000 0.07478  0.24628  0.89136  Biso   1.000  C
  C4609    1.0000 0.19458  0.00659  0.98306  Biso   1.000  C
  C4610    1.0000 0.52832  0.69905  0.83030  Biso   1.000  C
  C4611    1.0000 0.61410  0.70317  0.85123  Biso   1.000  C
  C4612    1.0000 0.62478  0.67266  0.85743  Biso   1.000  C
  C4613    1.0000 0.56596  0.73197  0.91877  Biso   1.000  C
  C4614    1.0000 0.57529  0.74191  0.88929  Biso   1.000  C
  C4615    1.0000 0.19747  0.50671  0.48446  Biso   1.000  C
  C4616    1.0000 0.52752  0.19909  0.33248  Biso   1.000  C
  C4617    1.0000 0.61484  0.20372  0.35029  Biso   1.000  C
  C4618    1.0000 0.62452  0.17304  0.35706  Biso   1.000  C
  C4619    1.0000 0.56420  0.23021  0.41844  Biso   1.000  C
  C4620    1.0000 0.57533  0.24410  0.39124  Biso   1.000  C
  C4621    1.0000 0.19479  0.74217  0.76471  Biso   1.000  C
  C4622    1.0000 0.52868  0.05044  0.92004  Biso   1.000  C
  C4623    1.0000 0.61188  0.04704  0.89950  Biso   1.000  C
  C4624    1.0000 0.62166  0.07801  0.89317  Biso   1.000  C
  C4625    1.0000 0.56532  0.01586  0.83098  Biso   1.000  C
  C4626    1.0000 0.57547  0.00327  0.85901  Biso   1.000  C
  C4627    1.0000 0.19647  0.24273  0.26633  Biso   1.000  C
  C4628    1.0000 0.52754  0.55132  0.41910  Biso   1.000  C
  C4629    1.0000 0.61300  0.54607  0.40023  Biso   1.000  C
  C4630    1.0000 0.62289  0.57681  0.39281  Biso   1.000  C
  C4631    1.0000 0.56573  0.51741  0.33231  Biso   1.000  C
  C4632    1.0000 0.57509  0.50649  0.36164  Biso   1.000  C
  C4633    1.0000 0.69450  0.74250  0.26592  Biso   1.000  C
  C4634    1.0000 0.02788  0.04991  0.41905  Biso   1.000  C
  C4635    1.0000 0.11367  0.04745  0.40018  Biso   1.000  C
  C4636    1.0000 0.12440  0.07784  0.39335  Biso   1.000  C
  C4637    1.0000 0.06464  0.01552  0.33033  Biso   1.000  C
  C4638    1.0000 0.07625  0.00448  0.35868  Biso   1.000  C
  C4639    1.0000 0.69586  0.24229  0.76541  Biso   1.000  C
  C4640    1.0000 0.02794  0.55157  0.92133  Biso   1.000  C
  C4641    1.0000 0.11423  0.54724  0.90115  Biso   1.000  C
  C4642    1.0000 0.12396  0.57796  0.89369  Biso   1.000  C
  C4643    1.0000 0.06600  0.52250  0.83451  Biso   1.000  C
  C4644    1.0000 0.07437  0.51003  0.86336  Biso   1.000  C
  C4645    1.0000 0.76646  0.74116  0.19573  Biso   1.000  C
  C4646    1.0000 0.92087  0.05227  0.52886  Biso   1.000  C
  C4647    1.0000 0.89869  0.04584  0.61423  Biso   1.000  C
  C4648    1.0000 0.89271  0.07684  0.62402  Biso   1.000  C
  C4649    1.0000 0.83270  0.02111  0.56333  Biso   1.000  C
  C4650    1.0000 0.86080  0.00811  0.57339  Biso   1.000  C
  C4651    1.0000 0.76568  0.24221  0.69634  Biso   1.000  C
  C4652    1.0000 0.91981  0.55175  0.02860  Biso   1.000  C
  C4653    1.0000 0.89959  0.54550  0.11325  Biso   1.000  C
  C4654    1.0000 0.89337  0.57612  0.12376  Biso   1.000  C
  C4655    1.0000 0.83322  0.51809  0.06183  Biso   1.000  C
  C4656    1.0000 0.86182  0.50676  0.07253  Biso   1.000  C
  C4657    1.0000 0.26453  0.74181  0.69343  Biso   1.000  C
  C4658    1.0000 0.42076  0.05276  0.02966  Biso   1.000  C
  C4659    1.0000 0.39718  0.04564  0.11314  Biso   1.000  C
  C4660    1.0000 0.39156  0.07647  0.12348  Biso   1.000  C
  C4661    1.0000 0.33264  0.02075  0.06247  Biso   1.000  C
  C4662    1.0000 0.36091  0.00736  0.07128  Biso   1.000  C
  C4663    1.0000 0.26624  0.24213  0.19661  Biso   1.000  C
  C4664    1.0000 0.42127  0.55145  0.52772  Biso   1.000  C
  C4665    1.0000 0.39828  0.54602  0.61250  Biso   1.000  C
  C4666    1.0000 0.39216  0.57653  0.62344  Biso   1.000  C
  C4667    1.0000 0.33307  0.52028  0.56283  Biso   1.000  C
  C4668    1.0000 0.36161  0.50730  0.57134  Biso   1.000  C
  C4669    1.0000 0.48324  0.00811  0.69708  Biso   1.000  C
  C4670    1.0000 0.33103  0.69955  0.02674  Biso   1.000  C
  C4671    1.0000 0.34993  0.70176  0.11159  Biso   1.000  C
  C4672    1.0000 0.35841  0.67163  0.12202  Biso   1.000  C
  C4673    1.0000 0.41708  0.73095  0.06228  Biso   1.000  C
  C4674    1.0000 0.38957  0.74414  0.07366  Biso   1.000  C
  C4675    1.0000 0.48412  0.50566  0.19839  Biso   1.000  C
  C4676    1.0000 0.33172  0.19891  0.52799  Biso   1.000  C
  C4677    1.0000 0.34904  0.20280  0.61005  Biso   1.000  C
  C4678    1.0000 0.35559  0.17216  0.62059  Biso   1.000  C
  C4679    1.0000 0.41681  0.23099  0.56232  Biso   1.000  C
  C4680    1.0000 0.38943  0.24466  0.57354  Biso   1.000  C
  C4681    1.0000 0.98412  0.00765  0.19700  Biso   1.000  C
  C4682    1.0000 0.82974  0.69904  0.52844  Biso   1.000  C
  C4683    1.0000 0.85166  0.70268  0.61241  Biso   1.000  C
  C4684    1.0000 0.86015  0.67265  0.62358  Biso   1.000  C
  C4685    1.0000 0.91568  0.72974  0.56055  Biso   1.000  C
  C4686    1.0000 0.88766  0.74331  0.57042  Biso   1.000  C
  C4687    1.0000 0.98432  0.50667  0.69862  Biso   1.000  C
  C4688    1.0000 0.83244  0.19971  0.02610  Biso   1.000  C
  C4689    1.0000 0.84912  0.20282  0.11153  Biso   1.000  C
  C4690    1.0000 0.85793  0.17263  0.12165  Biso   1.000  C
  C4691    1.0000 0.91789  0.23141  0.06563  Biso   1.000  C
  C4692    1.0000 0.89024  0.24485  0.07599  Biso   1.000  C
  C4693    1.0000 0.98173  0.24364  0.05379  Biso   1.000  C
  C4694    1.0000 0.83059  0.55099  0.72214  Biso   1.000  C
  C4695    1.0000 0.85146  0.54658  0.63812  Biso   1.000  C
  C4696    1.0000 0.85918  0.57704  0.62778  Biso   1.000  C
  C4697    1.0000 0.91659  0.52016  0.68659  Biso   1.000  C
  C4698    1.0000 0.88794  0.50750  0.67769  Biso   1.000  C
  C4699    1.0000 0.98155  0.74304  0.55377  Biso   1.000  C
  C4700    1.0000 0.83067  0.05147  0.22268  Biso   1.000  C
  C4701    1.0000 0.84790  0.04656  0.13740  Biso   1.000  C
  C4702    1.0000 0.85540  0.07707  0.12696  Biso   1.000  C
  C4703    1.0000 0.91836  0.01962  0.18371  Biso   1.000  C
  C4704    1.0000 0.88970  0.00792  0.17335  Biso   1.000  C
  C4705    1.0000 0.48322  0.24180  0.55271  Biso   1.000  C
  C4706    1.0000 0.33081  0.55265  0.22110  Biso   1.000  C
  C4707    1.0000 0.35217  0.54541  0.13729  Biso   1.000  C
  C4708    1.0000 0.35976  0.57592  0.12697  Biso   1.000  C
  C4709    1.0000 0.41820  0.51741  0.18713  Biso   1.000  C
  C4710    1.0000 0.38910  0.50633  0.17725  Biso   1.000  C
  C4711    1.0000 0.48179  0.74418  0.05557  Biso   1.000  C
  C4712    1.0000 0.32867  0.05107  0.72248  Biso   1.000  C
  C4713    1.0000 0.35017  0.04694  0.63961  Biso   1.000  C
  C4714    1.0000 0.35812  0.07768  0.63036  Biso   1.000  C
  C4715    1.0000 0.41516  0.02239  0.68861  Biso   1.000  C
  C4716    1.0000 0.38600  0.01080  0.68030  Biso   1.000  C
  C4717    1.0000 0.26661  0.50668  0.55255  Biso   1.000  C
  C4718    1.0000 0.42075  0.19782  0.22080  Biso   1.000  C
  C4719    1.0000 0.39675  0.20238  0.13811  Biso   1.000  C
  C4720    1.0000 0.39171  0.17124  0.12873  Biso   1.000  C
  C4721    1.0000 0.33298  0.22905  0.18738  Biso   1.000  C
  C4722    1.0000 0.36122  0.24217  0.17798  Biso   1.000  C
  C4723    1.0000 0.26520  0.00795  0.05098  Biso   1.000  C
  C4724    1.0000 0.42011  0.69961  0.72193  Biso   1.000  C
  C4725    1.0000 0.40035  0.70203  0.63792  Biso   1.000  C
  C4726    1.0000 0.39265  0.67115  0.62968  Biso   1.000  C
  C4727    1.0000 0.33042  0.73280  0.68367  Biso   1.000  C
  C4728    1.0000 0.35951  0.74248  0.67275  Biso   1.000  C
  C4729    1.0000 0.76718  0.50502  0.05251  Biso   1.000  C
  C4730    1.0000 0.92035  0.19937  0.72127  Biso   1.000  C
  C4731    1.0000 0.89695  0.20295  0.63809  Biso   1.000  C
  C4732    1.0000 0.89214  0.17175  0.62881  Biso   1.000  C
  C4733    1.0000 0.83242  0.22943  0.68693  Biso   1.000  C
  C4734    1.0000 0.86053  0.24257  0.67725  Biso   1.000  C
  C4735    1.0000 0.76561  0.00847  0.55239  Biso   1.000  C
  C4736    1.0000 0.92057  0.69794  0.22139  Biso   1.000  C
  C4737    1.0000 0.89723  0.70191  0.13894  Biso   1.000  C
  C4738    1.0000 0.89225  0.67081  0.12931  Biso   1.000  C
  C4739    1.0000 0.83351  0.72887  0.18761  Biso   1.000  C
  C4740    1.0000 0.86167  0.74230  0.17834  Biso   1.000  C
  C4741    1.0000 0.19467  0.76541  0.74152  Biso   1.000  C
  C4742    1.0000 0.52839  0.92097  0.05004  Biso   1.000  C
  C4743    1.0000 0.61142  0.89880  0.04736  Biso   1.000  C
  C4744    1.0000 0.62052  0.89310  0.07873  Biso   1.000  C
  C4745    1.0000 0.56296  0.83092  0.01945  Biso   1.000  C
  C4746    1.0000 0.57368  0.85913  0.00711  Biso   1.000  C
  C4747    1.0000 0.19547  0.26639  0.24361  Biso   1.000  C
  C4748    1.0000 0.52634  0.41612  0.55157  Biso   1.000  C
  C4749    1.0000 0.61258  0.39895  0.54653  Biso   1.000  C
  C4750    1.0000 0.62387  0.39084  0.57652  Biso   1.000  C
  C4751    1.0000 0.56445  0.33091  0.51876  Biso   1.000  C
  C4752    1.0000 0.57554  0.35908  0.50668  Biso   1.000  C
  C4753    1.0000 0.69450  0.76562  0.24265  Biso   1.000  C
  C4754    1.0000 0.02817  0.92089  0.55003  Biso   1.000  C
  C4755    1.0000 0.11204  0.89822  0.54651  Biso   1.000  C
  C4756    1.0000 0.12324  0.89016  0.57660  Biso   1.000  C
  C4757    1.0000 0.06169  0.83152  0.51862  Biso   1.000  C
  C4758    1.0000 0.07345  0.85886  0.50545  Biso   1.000  C
  C4759    1.0000 0.69478  0.26606  0.74282  Biso   1.000  C
  C4760    1.0000 0.02815  0.41742  0.05215  Biso   1.000  C
  C4761    1.0000 0.11436  0.39969  0.04693  Biso   1.000  C
  C4762    1.0000 0.12502  0.39207  0.07732  Biso   1.000  C
  C4763    1.0000 0.06632  0.32947  0.01806  Biso   1.000  C
  C4764    1.0000 0.07672  0.35841  0.00731  Biso   1.000  C
  C4765    1.0000 0.69666  0.48328  0.00744  Biso   1.000  C
  C4766    1.0000 0.02647  0.33135  0.69941  Biso   1.000  C
  C4767    1.0000 0.11244  0.35142  0.70383  Biso   1.000  C
  C4768    1.0000 0.12337  0.35963  0.67363  Biso   1.000  C
  C4769    1.0000 0.06379  0.41558  0.73044  Biso   1.000  C
  C4770    1.0000 0.07092  0.38597  0.74140  Biso   1.000  C
  C4771    1.0000 0.69791  0.98532  0.50796  Biso   1.000  C
  C4772    1.0000 0.02837  0.83186  0.19892  Biso   1.000  C
  C4773    1.0000 0.11560  0.85081  0.20307  Biso   1.000  C
  C4774    1.0000 0.12540  0.85806  0.17234  Biso   1.000  C
  C4775    1.0000 0.06479  0.91884  0.23063  Biso   1.000  C
  C4776    1.0000 0.07642  0.89050  0.24186  Biso   1.000  C
  C4777    1.0000 0.19571  0.48298  0.50707  Biso   1.000  C
  C4778    1.0000 0.52768  0.33071  0.19822  Biso   1.000  C
  C4779    1.0000 0.61194  0.35090  0.20462  Biso   1.000  C
  C4780    1.0000 0.62160  0.35729  0.17379  Biso   1.000  C
  C4781    1.0000 0.56516  0.41613  0.23098  Biso   1.000  C
  C4782    1.0000 0.57427  0.38676  0.24180  Biso   1.000  C
  C4783    1.0000 0.19519  0.98310  0.00589  Biso   1.000  C
  C4784    1.0000 0.52906  0.82960  0.69912  Biso   1.000  C
  C4785    1.0000 0.61416  0.85262  0.70397  Biso   1.000  C
  C4786    1.0000 0.62418  0.86072  0.67349  Biso   1.000  C
  C4787    1.0000 0.56116  0.91682  0.73030  Biso   1.000  C
  C4788    1.0000 0.57122  0.88899  0.74391  Biso   1.000  C
  C4789    1.0000 0.05523  0.98503  0.23992  Biso   1.000  C
  C4790    1.0000 0.72205  0.83287  0.55209  Biso   1.000  C
  C4791    1.0000 0.63699  0.85012  0.54792  Biso   1.000  C
  C4792    1.0000 0.62622  0.85909  0.57781  Biso   1.000  C
  C4793    1.0000 0.68669  0.91788  0.51765  Biso   1.000  C
  C4794    1.0000 0.67470  0.89019  0.50545  Biso   1.000  C
  C4795    1.0000 0.05325  0.48247  0.74572  Biso   1.000  C
  C4796    1.0000 0.72170  0.33231  0.05141  Biso   1.000  C
  C4797    1.0000 0.63957  0.35055  0.04815  Biso   1.000  C
  C4798    1.0000 0.63007  0.35700  0.07912  Biso   1.000  C
  C4799    1.0000 0.68411  0.41795  0.01876  Biso   1.000  C
  C4800    1.0000 0.67374  0.39014  0.00544  Biso   1.000  C
  C4801    1.0000 0.55289  0.98188  0.74359  Biso   1.000  C
  C4802    1.0000 0.22290  0.83054  0.05182  Biso   1.000  C
  C4803    1.0000 0.13720  0.85034  0.04562  Biso   1.000  C
  C4804    1.0000 0.12697  0.85861  0.07604  Biso   1.000  C
  C4805    1.0000 0.18452  0.91671  0.01957  Biso   1.000  C
  C4806    1.0000 0.17587  0.88787  0.00718  Biso   1.000  C
  C4807    1.0000 0.55151  0.48162  0.24501  Biso   1.000  C
  C4808    1.0000 0.22214  0.33138  0.55249  Biso   1.000  C
  C4809    1.0000 0.13632  0.34997  0.54749  Biso   1.000  C
  C4810    1.0000 0.12564  0.35839  0.57766  Biso   1.000  C
  C4811    1.0000 0.18730  0.41661  0.52023  Biso   1.000  C
  C4812    1.0000 0.17772  0.38815  0.50759  Biso   1.000  C
  C4813    1.0000 0.55299  0.26374  0.50808  Biso   1.000  C
  C4814    1.0000 0.22202  0.41976  0.19852  Biso   1.000  C
  C4815    1.0000 0.13861  0.39832  0.20318  Biso   1.000  C
  C4816    1.0000 0.12786  0.38990  0.17302  Biso   1.000  C
  C4817    1.0000 0.18774  0.33212  0.23295  Biso   1.000  C
  C4818    1.0000 0.17682  0.35977  0.24613  Biso   1.000  C
  C4819    1.0000 0.55299  0.76416  0.00942  Biso   1.000  C
  C4820    1.0000 0.22097  0.92024  0.69778  Biso   1.000  C
  C4821    1.0000 0.13618  0.89895  0.70371  Biso   1.000  C
  C4822    1.0000 0.12645  0.89259  0.67266  Biso   1.000  C
  C4823    1.0000 0.18766  0.83168  0.73016  Biso   1.000  C
  C4824    1.0000 0.17792  0.86000  0.74306  Biso   1.000  C
  C4825    1.0000 0.05082  0.26557  0.00669  Biso   1.000  C
  C4826    1.0000 0.72182  0.41954  0.69763  Biso   1.000  C
  C4827    1.0000 0.63774  0.39911  0.70234  Biso   1.000  C
  C4828    1.0000 0.62692  0.39062  0.67221  Biso   1.000  C
  C4829    1.0000 0.68698  0.33217  0.73208  Biso   1.000  C
  C4830    1.0000 0.67601  0.35999  0.74489  Biso   1.000  C
  C4831    1.0000 0.05180  0.76479  0.50918  Biso   1.000  C
  C4832    1.0000 0.72309  0.91885  0.19945  Biso   1.000  C
  C4833    1.0000 0.63877  0.89821  0.20386  Biso   1.000  C
  C4834    1.0000 0.62943  0.88999  0.17331  Biso   1.000  C
  C4835    1.0000 0.68764  0.83107  0.23165  Biso   1.000  C
  C4836    1.0000 0.67652  0.85883  0.24463  Biso   1.000  C
  C4837    1.0000 0.74129  0.19624  0.76451  Biso   1.000  C
  C4838    1.0000 0.05165  0.52884  0.92303  Biso   1.000  C
  C4839    1.0000 0.04730  0.61282  0.90182  Biso   1.000  C
  C4840    1.0000 0.07763  0.62374  0.89509  Biso   1.000  C
  C4841    1.0000 0.01871  0.56409  0.83220  Biso   1.000  C
  C4842    1.0000 0.00759  0.57440  0.86103  Biso   1.000  C
  C4843    1.0000 0.74127  0.69790  0.26412  Biso   1.000  C
  C4844    1.0000 0.05128  0.02670  0.41936  Biso   1.000  C
  C4845    1.0000 0.04730  0.11102  0.39998  Biso   1.000  C
  C4846    1.0000 0.07778  0.12138  0.39247  Biso   1.000  C
  C4847    1.0000 0.01670  0.06157  0.33179  Biso   1.000  C
  C4848    1.0000 0.00525  0.07286  0.35995  Biso   1.000  C
  C4849    1.0000 0.24055  0.19534  0.26338  Biso   1.000  C
  C4850    1.0000 0.55073  0.52796  0.41964  Biso   1.000  C
  C4851    1.0000 0.54779  0.61257  0.40039  Biso   1.000  C
  C4852    1.0000 0.57847  0.62282  0.39360  Biso   1.000  C
  C4853    1.0000 0.51859  0.56306  0.33298  Biso   1.000  C
  C4854    1.0000 0.50573  0.57466  0.36050  Biso   1.000  C
  C4855    1.0000 0.24255  0.69809  0.76497  Biso   1.000  C
  C4856    1.0000 0.55114  0.02634  0.91945  Biso   1.000  C
  C4857    1.0000 0.54538  0.11191  0.89766  Biso   1.000  C
  C4858    1.0000 0.57600  0.12200  0.89030  Biso   1.000  C
  C4859    1.0000 0.52145  0.06267  0.83383  Biso   1.000  C
  C4860    1.0000 0.50785  0.07179  0.86188  Biso   1.000  C
  C4861    1.0000 0.01003  0.69704  0.48533  Biso   1.000  C
  C4862    1.0000 0.69921  0.02806  0.33108  Biso   1.000  C
  C4863    1.0000 0.70323  0.11232  0.35079  Biso   1.000  C
  C4864    1.0000 0.67332  0.12362  0.35852  Biso   1.000  C
  C4865    1.0000 0.72797  0.06424  0.41671  Biso   1.000  C
  C4866    1.0000 0.73976  0.07272  0.38763  Biso   1.000  C
  C4867    1.0000 0.00733  0.19427  0.98407  Biso   1.000  C
  C4868    1.0000 0.69860  0.52778  0.83053  Biso   1.000  C
  C4869    1.0000 0.70344  0.61235  0.85031  Biso   1.000  C
  C4870    1.0000 0.67337  0.62340  0.85798  Biso   1.000  C
  C4871    1.0000 0.72767  0.56336  0.91689  Biso   1.000  C
  C4872    1.0000 0.73919  0.57163  0.88767  Biso   1.000  C
  C4873    1.0000 0.51016  0.69726  0.98549  Biso   1.000  C
  C4874    1.0000 0.19762  0.02940  0.82943  Biso   1.000  C
  C4875    1.0000 0.20347  0.11194  0.85147  Biso   1.000  C
  C4876    1.0000 0.17255  0.12213  0.85691  Biso   1.000  C
  C4877    1.0000 0.22722  0.06397  0.91718  Biso   1.000  C
  C4878    1.0000 0.23927  0.07118  0.88791  Biso   1.000  C
  C4879    1.0000 0.50733  0.19618  0.48437  Biso   1.000  C
  C4880    1.0000 0.19952  0.52782  0.33190  Biso   1.000  C
  C4881    1.0000 0.20344  0.61347  0.34920  Biso   1.000  C
  C4882    1.0000 0.17319  0.62438  0.35638  Biso   1.000  C
  C4883    1.0000 0.22964  0.56338  0.41726  Biso   1.000  C
  C4884    1.0000 0.24051  0.57419  0.38867  Biso   1.000  C
  C4885    1.0000 0.24226  0.05337  0.98298  Biso   1.000  C
  C4886    1.0000 0.55247  0.72141  0.83020  Biso   1.000  C
  C4887    1.0000 0.54791  0.63856  0.84763  Biso   1.000  C
  C4888    1.0000 0.57826  0.62913  0.85625  Biso   1.000  C
  C4889    1.0000 0.52107  0.68428  0.91818  Biso   1.000  C
  C4890    1.0000 0.50885  0.67334  0.88994  Biso   1.000  C
  C4891    1.0000 0.24212  0.55583  0.48441  Biso   1.000  C
  C4892    1.0000 0.55088  0.22241  0.33284  Biso   1.000  C
  C4893    1.0000 0.54747  0.13791  0.34803  Biso   1.000  C
  C4894    1.0000 0.57815  0.12781  0.35467  Biso   1.000  C
  C4895    1.0000 0.51947  0.18495  0.41702  Biso   1.000  C
  C4896    1.0000 0.50813  0.17599  0.38786  Biso   1.000  C
  C4897    1.0000 0.74116  0.05442  0.48489  Biso   1.000  C
  C4898    1.0000 0.05162  0.72140  0.32976  Biso   1.000  C
  C4899    1.0000 0.04780  0.63825  0.34862  Biso   1.000  C
  C4900    1.0000 0.07821  0.62901  0.35723  Biso   1.000  C
  C4901    1.0000 0.02073  0.68433  0.41843  Biso   1.000  C
  C4902    1.0000 0.00808  0.67336  0.39041  Biso   1.000  C
  C4903    1.0000 0.74078  0.55386  0.98563  Biso   1.000  C
  C4904    1.0000 0.04996  0.22353  0.83278  Biso   1.000  C
  C4905    1.0000 0.04711  0.13781  0.84674  Biso   1.000  C
  C4906    1.0000 0.07799  0.12903  0.85432  Biso   1.000  C
  C4907    1.0000 0.01730  0.18519  0.91723  Biso   1.000  C
  C4908    1.0000 0.00492  0.17378  0.88940  Biso   1.000  C
  C4909    1.0000 0.50815  0.55386  0.26607  Biso   1.000  C
  C4910    1.0000 0.19927  0.22166  0.42129  Biso   1.000  C
  C4911    1.0000 0.20251  0.13808  0.39952  Biso   1.000  C
  C4912    1.0000 0.17199  0.12952  0.39098  Biso   1.000  C
  C4913    1.0000 0.23296  0.18234  0.32964  Biso   1.000  C
  C4914    1.0000 0.24372  0.17281  0.35889  Biso   1.000  C
  C4915    1.0000 0.50759  0.05336  0.76608  Biso   1.000  C
  C4916    1.0000 0.20007  0.72206  0.91746  Biso   1.000  C
  C4917    1.0000 0.20323  0.63924  0.89702  Biso   1.000  C
  C4918    1.0000 0.17220  0.62970  0.89157  Biso   1.000  C
  C4919    1.0000 0.23438  0.68755  0.83168  Biso   1.000  C
  C4920    1.0000 0.24654  0.67572  0.85948  Biso   1.000  C
  C4921    1.0000 0.00747  0.55233  0.76674  Biso   1.000  C
  C4922    1.0000 0.69903  0.22206  0.91794  Biso   1.000  C
  C4923    1.0000 0.70204  0.13682  0.90016  Biso   1.000  C
  C4924    1.0000 0.67135  0.12716  0.89294  Biso   1.000  C
  C4925    1.0000 0.73319  0.18388  0.83048  Biso   1.000  C
  C4926    1.0000 0.74415  0.17343  0.85923  Biso   1.000  C
  C4927    1.0000 0.00609  0.05197  0.26650  Biso   1.000  C
  C4928    1.0000 0.70001  0.72363  0.42046  Biso   1.000  C
  C4929    1.0000 0.70387  0.63885  0.39886  Biso   1.000  C
  C4930    1.0000 0.67336  0.62735  0.39348  Biso   1.000  C
  C4931    1.0000 0.73405  0.68543  0.32994  Biso   1.000  C
  C4932    1.0000 0.74539  0.67654  0.35912  Biso   1.000  C
  C4933    1.0000 0.99342  0.51491  0.30260  Biso   1.000  C
  C4934    1.0000 0.30059  0.66716  0.97269  Biso   1.000  C
  C4935    1.0000 0.29824  0.64888  0.88849  Biso   1.000  C
  C4936    1.0000 0.32886  0.64058  0.87969  Biso   1.000  C
  C4937    1.0000 0.26787  0.58094  0.93340  Biso   1.000  C
  C4938    1.0000 0.25485  0.60865  0.92257  Biso   1.000  C
  C4939    1.0000 0.99327  0.01696  0.80228  Biso   1.000  C
  C4940    1.0000 0.30027  0.16815  0.47281  Biso   1.000  C
  C4941    1.0000 0.29677  0.14963  0.38720  Biso   1.000  C
  C4942    1.0000 0.32761  0.14312  0.37749  Biso   1.000  C
  C4943    1.0000 0.26798  0.08091  0.43404  Biso   1.000  C
  C4944    1.0000 0.25500  0.10882  0.42378  Biso   1.000  C
  C4945    1.0000 0.49376  0.51586  0.80134  Biso   1.000  C
  C4946    1.0000 0.79919  0.67065  0.47408  Biso   1.000  C
  C4947    1.0000 0.79836  0.65221  0.38757  Biso   1.000  C
  C4948    1.0000 0.82839  0.64245  0.37785  Biso   1.000  C
  C4949    1.0000 0.76964  0.58180  0.43153  Biso   1.000  C
  C4950    1.0000 0.75881  0.61134  0.42248  Biso   1.000  C
  C4951    1.0000 0.49370  0.01564  0.30204  Biso   1.000  C
  C4952    1.0000 0.80072  0.16775  0.97199  Biso   1.000  C
  C4953    1.0000 0.79655  0.14956  0.88768  Biso   1.000  C
  C4954    1.0000 0.82729  0.14328  0.87762  Biso   1.000  C
  C4955    1.0000 0.76796  0.08112  0.93427  Biso   1.000  C
  C4956    1.0000 0.75449  0.10875  0.92395  Biso   1.000  C
  C4957    1.0000 0.25720  0.23509  0.80429  Biso   1.000  C
  C4958    1.0000 0.94959  0.08170  0.47264  Biso   1.000  C
  C4959    1.0000 0.95293  0.09853  0.38737  Biso   1.000  C
  C4960    1.0000 0.92288  0.10699  0.37678  Biso   1.000  C
  C4961    1.0000 0.98014  0.16683  0.43412  Biso   1.000  C
  C4962    1.0000 0.99288  0.13888  0.42285  Biso   1.000  C
  C4963    1.0000 0.25950  0.73414  0.30401  Biso   1.000  C
  C4964    1.0000 0.94775  0.58109  0.97193  Biso   1.000  C
  C4965    1.0000 0.95319  0.59893  0.88710  Biso   1.000  C
  C4966    1.0000 0.92293  0.60661  0.87617  Biso   1.000  C
  C4967    1.0000 0.98165  0.66933  0.93409  Biso   1.000  C
  C4968    1.0000 0.99293  0.64059  0.92382  Biso   1.000  C
  C4969    1.0000 0.75861  0.23566  0.30362  Biso   1.000  C
  C4970    1.0000 0.44907  0.07971  0.97275  Biso   1.000  C
  C4971    1.0000 0.45295  0.10013  0.88774  Biso   1.000  C
  C4972    1.0000 0.42272  0.10895  0.87759  Biso   1.000  C
  C4973    1.0000 0.48000  0.16621  0.93606  Biso   1.000  C
  C4974    1.0000 0.49166  0.13736  0.92615  Biso   1.000  C
  C4975    1.0000 0.75839  0.73400  0.80352  Biso   1.000  C
  C4976    1.0000 0.44877  0.58262  0.47191  Biso   1.000  C
  C4977    1.0000 0.45306  0.59974  0.38711  Biso   1.000  C
  C4978    1.0000 0.42285  0.60649  0.37586  Biso   1.000  C
  C4979    1.0000 0.48239  0.66893  0.43579  Biso   1.000  C
  C4980    1.0000 0.49431  0.64080  0.42455  Biso   1.000  C
  C4981    1.0000 0.49430  0.73211  0.44934  Biso   1.000  C
  C4982    1.0000 0.80103  0.58099  0.77778  Biso   1.000  C
  C4983    1.0000 0.79704  0.59875  0.86384  Biso   1.000  C
  C4984    1.0000 0.82723  0.60719  0.87421  Biso   1.000  C
  C4985    1.0000 0.77083  0.66791  0.81671  Biso   1.000  C
  C4986    1.0000 0.75902  0.63938  0.82733  Biso   1.000  C
  C4987    1.0000 0.49356  0.23258  0.94671  Biso   1.000  C
  C4988    1.0000 0.80188  0.08238  0.27868  Biso   1.000  C
  C4989    1.0000 0.79725  0.09974  0.36354  Biso   1.000  C
  C4990    1.0000 0.82738  0.10766  0.37447  Biso   1.000  C
  C4991    1.0000 0.76551  0.17011  0.31718  Biso   1.000  C
  C4992    1.0000 0.75561  0.14088  0.32702  Biso   1.000  C
  C4993    1.0000 0.99157  0.73443  0.94752  Biso   1.000  C
  C4994    1.0000 0.30301  0.58065  0.27975  Biso   1.000  C
  C4995    1.0000 0.29713  0.60060  0.36362  Biso   1.000  C
  C4996    1.0000 0.32744  0.60922  0.37357  Biso   1.000  C
  C4997    1.0000 0.27101  0.66827  0.31547  Biso   1.000  C
  C4998    1.0000 0.25814  0.64021  0.32603  Biso   1.000  C
  C4999    1.0000 0.99417  0.23237  0.44679  Biso   1.000  C
  C5000    1.0000 0.30002  0.08108  0.77791  Biso   1.000  C
  C5001    1.0000 0.29757  0.09799  0.86219  Biso   1.000  C
  C5002    1.0000 0.32767  0.10685  0.87203  Biso   1.000  C
  C5003    1.0000 0.26685  0.16907  0.81831  Biso   1.000  C
  C5004    1.0000 0.25736  0.13982  0.82849  Biso   1.000  C
  C5005    1.0000 0.75640  0.01652  0.94817  Biso   1.000  C
  C5006    1.0000 0.44857  0.17071  0.27736  Biso   1.000  C
  C5007    1.0000 0.45287  0.15032  0.36247  Biso   1.000  C
  C5008    1.0000 0.42219  0.14307  0.37241  Biso   1.000  C
  C5009    1.0000 0.48364  0.08118  0.31449  Biso   1.000  C
  C5010    1.0000 0.49586  0.10949  0.32457  Biso   1.000  C
  C5011    1.0000 0.75557  0.51665  0.44631  Biso   1.000  C
  C5012    1.0000 0.44840  0.67168  0.77840  Biso   1.000  C
  C5013    1.0000 0.45412  0.65090  0.86386  Biso   1.000  C
  C5014    1.0000 0.42347  0.64266  0.87284  Biso   1.000  C
  C5015    1.0000 0.48253  0.58138  0.81573  Biso   1.000  C
  C5016    1.0000 0.49328  0.61078  0.82467  Biso   1.000  C
  C5017    1.0000 0.25667  0.01582  0.44810  Biso   1.000  C
  C5018    1.0000 0.94811  0.17209  0.77775  Biso   1.000  C
  C5019    1.0000 0.95235  0.15019  0.86106  Biso   1.000  C
  C5020    1.0000 0.92171  0.14267  0.87082  Biso   1.000  C
  C5021    1.0000 0.97929  0.08442  0.81224  Biso   1.000  C
  C5022    1.0000 0.99051  0.11375  0.82014  Biso   1.000  C
  C5023    1.0000 0.25643  0.51714  0.94893  Biso   1.000  C
  C5024    1.0000 0.94824  0.67069  0.27874  Biso   1.000  C
  C5025    1.0000 0.95370  0.64999  0.36392  Biso   1.000  C
  C5026    1.0000 0.92336  0.64114  0.37357  Biso   1.000  C
  C5027    1.0000 0.98293  0.58048  0.31650  Biso   1.000  C
  C5028    1.0000 0.99518  0.60900  0.32615  Biso   1.000  C
  C5029    1.0000 0.01607  0.94692  0.75683  Biso   1.000  C
  C5030    1.0000 0.17074  0.27826  0.44879  Biso   1.000  C
  C5031    1.0000 0.14920  0.36414  0.45511  Biso   1.000  C
  C5032    1.0000 0.14317  0.37455  0.42436  Biso   1.000  C
  C5033    1.0000 0.08350  0.31165  0.48053  Biso   1.000  C
  C5034    1.0000 0.11147  0.32133  0.49419  Biso   1.000  C
  C5035    1.0000 0.01501  0.44443  0.25855  Biso   1.000  C
  C5036    1.0000 0.17088  0.77678  0.94943  Biso   1.000  C
  C5037    1.0000 0.14947  0.86288  0.95263  Biso   1.000  C
  C5038    1.0000 0.14364  0.87425  0.92207  Biso   1.000  C
  C5039    1.0000 0.08367  0.81044  0.98043  Biso   1.000  C
  C5040    1.0000 0.11214  0.82009  0.99319  Biso   1.000  C
  C5041    1.0000 0.51636  0.94613  0.25672  Biso   1.000  C
  C5042    1.0000 0.66860  0.27682  0.94952  Biso   1.000  C
  C5043    1.0000 0.65003  0.36274  0.95327  Biso   1.000  C
  C5044    1.0000 0.64423  0.37453  0.92312  Biso   1.000  C
  C5045    1.0000 0.58214  0.31243  0.98227  Biso   1.000  C
  C5046    1.0000 0.60948  0.32380  0.99580  Biso   1.000  C
  C5047    1.0000 0.51589  0.44292  0.75732  Biso   1.000  C
  C5048    1.0000 0.66847  0.77736  0.45058  Biso   1.000  C
  C5049    1.0000 0.65042  0.86281  0.45330  Biso   1.000  C
  C5050    1.0000 0.64241  0.87389  0.42320  Biso   1.000  C
  C5051    1.0000 0.58272  0.81286  0.48184  Biso   1.000  C
  C5052    1.0000 0.60998  0.82441  0.49545  Biso   1.000  C
  C5053    1.0000 0.73444  0.44682  0.49324  Biso   1.000  C
  C5054    1.0000 0.58035  0.77911  0.80260  Biso   1.000  C
  C5055    1.0000 0.60170  0.86543  0.79646  Biso   1.000  C
  C5056    1.0000 0.60882  0.87524  0.82713  Biso   1.000  C
  C5057    1.0000 0.66892  0.81476  0.76850  Biso   1.000  C
  C5058    1.0000 0.64003  0.82567  0.75811  Biso   1.000  C
  C5059    1.0000 0.73521  0.94615  0.99281  Biso   1.000  C
  C5060    1.0000 0.58044  0.27657  0.30167  Biso   1.000  C
  C5061    1.0000 0.60136  0.36217  0.29678  Biso   1.000  C
  C5062    1.0000 0.60961  0.37440  0.32640  Biso   1.000  C
  C5063    1.0000 0.66651  0.31143  0.26955  Biso   1.000  C
  C5064    1.0000 0.63811  0.31983  0.25605  Biso   1.000  C
  C5065    1.0000 0.23506  0.44421  0.99245  Biso   1.000  C
  C5066    1.0000 0.07936  0.78003  0.30220  Biso   1.000  C
  C5067    1.0000 0.10393  0.86477  0.29574  Biso   1.000  C
  C5068    1.0000 0.11031  0.87533  0.32634  Biso   1.000  C
  C5069    1.0000 0.16820  0.81151  0.26832  Biso   1.000  C
  C5070    1.0000 0.13963  0.82214  0.25683  Biso   1.000  C
  C5071    1.0000 0.23530  0.94549  0.49340  Biso   1.000  C
  C5072    1.0000 0.08041  0.27685  0.80112  Biso   1.000  C
  C5073    1.0000 0.10026  0.36352  0.79649  Biso   1.000  C
  C5074    1.0000 0.10663  0.37542  0.82670  Biso   1.000  C
  C5075    1.0000 0.16634  0.31092  0.76789  Biso   1.000  C
  C5076    1.0000 0.13765  0.32179  0.75685  Biso   1.000  C
  C5077    1.0000 0.23405  0.80397  0.25649  Biso   1.000  C
  C5078    1.0000 0.07980  0.47099  0.94907  Biso   1.000  C
  C5079    1.0000 0.09914  0.38644  0.95284  Biso   1.000  C
  C5080    1.0000 0.10685  0.37740  0.92192  Biso   1.000  C
  C5081    1.0000 0.16900  0.43459  0.98170  Biso   1.000  C
  C5082    1.0000 0.14000  0.42361  0.99158  Biso   1.000  C
  C5083    1.0000 0.23298  0.30276  0.75713  Biso   1.000  C
  C5084    1.0000 0.08312  0.97178  0.44817  Biso   1.000  C
  C5085    1.0000 0.09948  0.88439  0.45223  Biso   1.000  C
  C5086    1.0000 0.10818  0.87383  0.42220  Biso   1.000  C
  C5087    1.0000 0.16876  0.93354  0.48199  Biso   1.000  C
  C5088    1.0000 0.13988  0.92213  0.49173  Biso   1.000  C
  C5089    1.0000 0.73615  0.80554  0.75761  Biso   1.000  C
  C5090    1.0000 0.57843  0.47121  0.44949  Biso   1.000  C
  C5091    1.0000 0.59871  0.38755  0.45219  Biso   1.000  C
  C5092    1.0000 0.60695  0.37687  0.42199  Biso   1.000  C
  C5093    1.0000 0.66764  0.43584  0.48309  Biso   1.000  C
  C5094    1.0000 0.63846  0.42529  0.49306  Biso   1.000  C
  C5095    1.0000 0.73395  0.30352  0.25782  Biso   1.000  C
  C5096    1.0000 0.58325  0.97139  0.94850  Biso   1.000  C
  C5097    1.0000 0.60037  0.88423  0.95307  Biso   1.000  C
  C5098    1.0000 0.60921  0.87398  0.92299  Biso   1.000  C
  C5099    1.0000 0.66882  0.93351  0.98141  Biso   1.000  C
  C5100    1.0000 0.64017  0.92180  0.99165  Biso   1.000  C
  C5101    1.0000 0.51645  0.30542  0.99170  Biso   1.000  C
  C5102    1.0000 0.67075  0.97209  0.30053  Biso   1.000  C
  C5103    1.0000 0.65235  0.88627  0.29815  Biso   1.000  C
  C5104    1.0000 0.64327  0.87638  0.32829  Biso   1.000  C
  C5105    1.0000 0.58219  0.93383  0.26822  Biso   1.000  C
  C5106    1.0000 0.61122  0.92285  0.25836  Biso   1.000  C
  C5107    1.0000 0.51742  0.80536  0.49296  Biso   1.000  C
  C5108    1.0000 0.66940  0.47282  0.79984  Biso   1.000  C
  C5109    1.0000 0.65127  0.38879  0.79746  Biso   1.000  C
  C5110    1.0000 0.64412  0.37915  0.82835  Biso   1.000  C
  C5111    1.0000 0.58151  0.43371  0.76786  Biso   1.000  C
  C5112    1.0000 0.60989  0.42378  0.75521  Biso   1.000  C
  C5113    1.0000 0.01747  0.30528  0.49190  Biso   1.000  C
  C5114    1.0000 0.17256  0.97079  0.80171  Biso   1.000  C
  C5115    1.0000 0.14896  0.88445  0.79609  Biso   1.000  C
  C5116    1.0000 0.14224  0.87471  0.82692  Biso   1.000  C
  C5117    1.0000 0.08317  0.93585  0.77082  Biso   1.000  C
  C5118    1.0000 0.11181  0.92569  0.75876  Biso   1.000  C
  C5119    1.0000 0.01618  0.80399  0.99192  Biso   1.000  C
  C5120    1.0000 0.16935  0.47280  0.30060  Biso   1.000  C
  C5121    1.0000 0.15185  0.38836  0.29847  Biso   1.000  C
  C5122    1.0000 0.14491  0.37853  0.32933  Biso   1.000  C
  C5123    1.0000 0.08124  0.43311  0.26710  Biso   1.000  C
  C5124    1.0000 0.10986  0.42278  0.25539  Biso   1.000  C
  C5125    1.0000 0.44845  0.49516  0.73204  Biso   1.000  C
  C5126    1.0000 0.77688  0.80151  0.58239  Biso   1.000  C
  C5127    1.0000 0.86401  0.79548  0.60156  Biso   1.000  C
  C5128    1.0000 0.87354  0.82644  0.60858  Biso   1.000  C
  C5129    1.0000 0.81696  0.76855  0.66942  Biso   1.000  C
  C5130    1.0000 0.82528  0.75702  0.63997  Biso   1.000  C
  C5131    1.0000 0.44466  0.99165  0.23555  Biso   1.000  C
  C5132    1.0000 0.77670  0.30046  0.07974  Biso   1.000  C
  C5133    1.0000 0.86184  0.29721  0.09981  Biso   1.000  C
  C5134    1.0000 0.87285  0.32737  0.10762  Biso   1.000  C
  C5135    1.0000 0.81568  0.26584  0.16878  Biso   1.000  C
  C5136    1.0000 0.82545  0.25489  0.13961  Biso   1.000  C
  C5137    1.0000 0.94645  0.49476  0.23342  Biso   1.000  C
  C5138    1.0000 0.27743  0.80032  0.08386  Biso   1.000  C
  C5139    1.0000 0.36268  0.79659  0.09973  Biso   1.000  C
  C5140    1.0000 0.37344  0.82707  0.10655  Biso   1.000  C
  C5141    1.0000 0.31357  0.76765  0.16726  Biso   1.000  C
  C5142    1.0000 0.32488  0.75421  0.13977  Biso   1.000  C
  C5143    1.0000 0.94555  0.99417  0.73380  Biso   1.000  C
  C5144    1.0000 0.27646  0.30132  0.58211  Biso   1.000  C
  C5145    1.0000 0.36200  0.29760  0.60010  Biso   1.000  C
  C5146    1.0000 0.37152  0.32812  0.60810  Biso   1.000  C
  C5147    1.0000 0.31550  0.26497  0.66886  Biso   1.000  C
  C5148    1.0000 0.32556  0.25488  0.63966  Biso   1.000  C
  C5149    1.0000 0.94614  0.75650  0.01737  Biso   1.000  C
  C5150    1.0000 0.27873  0.44774  0.17105  Biso   1.000  C
  C5151    1.0000 0.36203  0.45260  0.14938  Biso   1.000  C
  C5152    1.0000 0.37256  0.42241  0.14099  Biso   1.000  C
  C5153    1.0000 0.31397  0.48257  0.08182  Biso   1.000  C
  C5154    1.0000 0.32353  0.49209  0.11156  Biso   1.000  C
  C5155    1.0000 0.94885  0.25653  0.51676  Biso   1.000  C
  C5156    1.0000 0.27790  0.94779  0.67016  Biso   1.000  C
  C5157    1.0000 0.36221  0.95278  0.65278  Biso   1.000  C
  C5158    1.0000 0.37097  0.92170  0.64544  Biso   1.000  C
  C5159    1.0000 0.31779  0.98196  0.58117  Biso   1.000  C
  C5160    1.0000 0.32797  0.99299  0.61024  Biso   1.000  C
  C5161    1.0000 0.44585  0.75894  0.51694  Biso   1.000  C
  C5162    1.0000 0.77885  0.44676  0.66838  Biso   1.000  C
  C5163    1.0000 0.86178  0.45344  0.64839  Biso   1.000  C
  C5164    1.0000 0.87177  0.42308  0.63981  Biso   1.000  C
  C5165    1.0000 0.81506  0.48254  0.58146  Biso   1.000  C
  C5166    1.0000 0.82417  0.49285  0.61103  Biso   1.000  C
  C5167    1.0000 0.44682  0.25623  0.01608  Biso   1.000  C
  C5168    1.0000 0.77827  0.94827  0.17039  Biso   1.000  C
  C5169    1.0000 0.86247  0.95276  0.15157  Biso   1.000  C
  C5170    1.0000 0.87184  0.92177  0.14456  Biso   1.000  C
  C5171    1.0000 0.81472  0.97936  0.08299  Biso   1.000  C
  C5172    1.0000 0.82258  0.99015  0.11259  Biso   1.000  C
  C5173    1.0000 0.30387  0.99320  0.51597  Biso   1.000  C
  C5174    1.0000 0.97032  0.30207  0.66853  Biso   1.000  C
  C5175    1.0000 0.88520  0.29577  0.64746  Biso   1.000  C
  C5176    1.0000 0.87681  0.32691  0.63996  Biso   1.000  C
  C5177    1.0000 0.93729  0.26848  0.58232  Biso   1.000  C
  C5178    1.0000 0.92564  0.25658  0.61044  Biso   1.000  C
  C5179    1.0000 0.30275  0.49355  0.01569  Biso   1.000  C
  C5180    1.0000 0.97258  0.80047  0.16885  Biso   1.000  C
  C5181    1.0000 0.88706  0.79487  0.14800  Biso   1.000  C
  C5182    1.0000 0.87849  0.82598  0.14085  Biso   1.000  C
  C5183    1.0000 0.93632  0.76824  0.08270  Biso   1.000  C
  C5184    1.0000 0.92557  0.75553  0.11077  Biso   1.000  C
  C5185    1.0000 0.80369  0.99408  0.01714  Biso   1.000  C
  C5186    1.0000 0.47176  0.30064  0.16771  Biso   1.000  C
  C5187    1.0000 0.38583  0.29518  0.14811  Biso   1.000  C
  C5188    1.0000 0.37728  0.32633  0.14083  Biso   1.000  C
  C5189    1.0000 0.43606  0.26826  0.08189  Biso   1.000  C
  C5190    1.0000 0.42513  0.25615  0.11021  Biso   1.000  C
  C5191    1.0000 0.80226  0.49417  0.51537  Biso   1.000  C
  C5192    1.0000 0.47138  0.80121  0.67046  Biso   1.000  C
  C5193    1.0000 0.38789  0.79631  0.64803  Biso   1.000  C
  C5194    1.0000 0.37939  0.82726  0.64088  Biso   1.000  C
  C5195    1.0000 0.43865  0.76912  0.58254  Biso   1.000  C
  C5196    1.0000 0.42591  0.75641  0.60981  Biso   1.000  C
  C5197    1.0000 0.80451  0.25526  0.23496  Biso   1.000  C
  C5198    1.0000 0.47152  0.94838  0.07843  Biso   1.000  C
  C5199    1.0000 0.38555  0.95325  0.09984  Biso   1.000  C
  C5200    1.0000 0.37610  0.92267  0.10719  Biso   1.000  C
  C5201    1.0000 0.43470  0.98249  0.16875  Biso   1.000  C
  C5202    1.0000 0.42367  0.99143  0.13936  Biso   1.000  C
  C5203    1.0000 0.80327  0.75747  0.73490  Biso   1.000  C
  C5204    1.0000 0.47152  0.44730  0.58178  Biso   1.000  C
  C5205    1.0000 0.38756  0.45333  0.60092  Biso   1.000  C
  C5206    1.0000 0.37703  0.42332  0.60991  Biso   1.000  C
  C5207    1.0000 0.43686  0.48163  0.66693  Biso   1.000  C
  C5208    1.0000 0.42609  0.49263  0.63818  Biso   1.000  C
  C5209    1.0000 0.30217  0.25420  0.73370  Biso   1.000  C
  C5210    1.0000 0.97143  0.94912  0.57739  Biso   1.000  C
  C5211    1.0000 0.88590  0.95318  0.60078  Biso   1.000  C
  C5212    1.0000 0.87596  0.92249  0.60792  Biso   1.000  C
  C5213    1.0000 0.93480  0.97915  0.66707  Biso   1.000  C
  C5214    1.0000 0.92735  0.98964  0.63725  Biso   1.000  C
  C5215    1.0000 0.30371  0.75736  0.23373  Biso   1.000  C
  C5216    1.0000 0.97231  0.44780  0.08185  Biso   1.000  C
  C5217    1.0000 0.88695  0.45326  0.10147  Biso   1.000  C
  C5218    1.0000 0.87713  0.42265  0.10927  Biso   1.000  C
  C5219    1.0000 0.93742  0.48013  0.16673  Biso   1.000  C
  C5220    1.0000 0.92835  0.49190  0.13789  Biso   1.000  C
  C5221    1.0000 0.17959  0.18190  0.25330  Biso   1.000  C
  C5222    1.0000 0.17340  0.17631  0.22174  Biso   1.000  C
  C5223    1.0000 0.18311  0.67907  0.75386  Biso   1.000  C
  C5224    1.0000 0.17485  0.67229  0.72311  Biso   1.000  C
  C5225    1.0000 0.68338  0.17917  0.75255  Biso   1.000  C
  C5226    1.0000 0.67639  0.17414  0.72111  Biso   1.000  C
  C5227    1.0000 0.67966  0.68071  0.25415  Biso   1.000  C
  C5228    1.0000 0.67370  0.67460  0.22268  Biso   1.000  C
  C5229    1.0000 0.56914  0.06744  0.75337  Biso   1.000  C
  C5230    1.0000 0.57517  0.07575  0.72259  Biso   1.000  C
  C5231    1.0000 0.57013  0.56879  0.25428  Biso   1.000  C
  C5232    1.0000 0.57517  0.57582  0.22295  Biso   1.000  C
  C5233    1.0000 0.06886  0.68274  0.49854  Biso   1.000  C
  C5234    1.0000 0.07552  0.67603  0.52973  Biso   1.000  C
  C5235    1.0000 0.06901  0.18078  0.99615  Biso   1.000  C
  C5236    1.0000 0.07513  0.17307  0.02721  Biso   1.000  C
  C5237    1.0000 0.56633  0.17882  0.49755  Biso   1.000  C
  C5238    1.0000 0.57347  0.17157  0.52843  Biso   1.000  C
  C5239    1.0000 0.68068  0.56797  0.99799  Biso   1.000  C
  C5240    1.0000 0.67303  0.57364  0.02920  Biso   1.000  C
  C5241    1.0000 0.17939  0.56922  0.49625  Biso   1.000  C
  C5242    1.0000 0.17194  0.57660  0.52721  Biso   1.000  C
  C5243    1.0000 0.25268  0.18070  0.17982  Biso   1.000  C
  C5244    1.0000 0.22110  0.17568  0.17461  Biso   1.000  C
  C5245    1.0000 0.25364  0.67956  0.68233  Biso   1.000  C
  C5246    1.0000 0.22219  0.67416  0.67686  Biso   1.000  C
  C5247    1.0000 0.75215  0.18148  0.68015  Biso   1.000  C
  C5248    1.0000 0.72100  0.17664  0.67207  Biso   1.000  C
  C5249    1.0000 0.75334  0.67982  0.18075  Biso   1.000  C
  C5250    1.0000 0.72181  0.67432  0.17567  Biso   1.000  C
  C5251    1.0000 0.75250  0.56419  0.07012  Biso   1.000  C
  C5252    1.0000 0.72140  0.57185  0.07473  Biso   1.000  C
  C5253    1.0000 0.25328  0.56898  0.56877  Biso   1.000  C
  C5254    1.0000 0.22175  0.57536  0.57370  Biso   1.000  C
  C5255    1.0000 0.49621  0.06838  0.68073  Biso   1.000  C
  C5256    1.0000 0.52708  0.07540  0.67385  Biso   1.000  C
  C5257    1.0000 0.49617  0.56835  0.17909  Biso   1.000  C
  C5258    1.0000 0.52750  0.57486  0.17350  Biso   1.000  C
  C5259    1.0000 0.99723  0.68120  0.56755  Biso   1.000  C
  C5260    1.0000 0.02771  0.67462  0.57677  Biso   1.000  C
  C5261    1.0000 0.99538  0.18037  0.07128  Biso   1.000  C
  C5262    1.0000 0.02671  0.17333  0.07649  Biso   1.000  C
  C5263    1.0000 0.49562  0.17943  0.56875  Biso   1.000  C
  C5264    1.0000 0.52674  0.17321  0.57608  Biso   1.000  C
  C5265    1.0000 0.18150  0.25323  0.18038  Biso   1.000  C
  C5266    1.0000 0.17355  0.22282  0.17182  Biso   1.000  C
  C5267    1.0000 0.18006  0.75224  0.67931  Biso   1.000  C
  C5268    1.0000 0.17354  0.72098  0.67297  Biso   1.000  C
  C5269    1.0000 0.68066  0.25298  0.68112  Biso   1.000  C
  C5270    1.0000 0.67337  0.22189  0.67506  Biso   1.000  C
  C5271    1.0000 0.68076  0.75207  0.17956  Biso   1.000  C
  C5272    1.0000 0.67346  0.72132  0.17186  Biso   1.000  C
  C5273    1.0000 0.06630  0.75379  0.57214  Biso   1.000  C
  C5274    1.0000 0.07421  0.72284  0.57808  Biso   1.000  C
  C5275    1.0000 0.06933  0.25153  0.06871  Biso   1.000  C
  C5276    1.0000 0.07580  0.22015  0.07467  Biso   1.000  C
  C5277    1.0000 0.56818  0.25235  0.56975  Biso   1.000  C
  C5278    1.0000 0.57441  0.22095  0.57496  Biso   1.000  C
  C5279    1.0000 0.67974  0.49640  0.06979  Biso   1.000  C
  C5280    1.0000 0.67247  0.52688  0.07850  Biso   1.000  C
  C5281    1.0000 0.17966  0.49735  0.56969  Biso   1.000  C
  C5282    1.0000 0.17269  0.52877  0.57521  Biso   1.000  C
  C5283    1.0000 0.56607  0.99849  0.68369  Biso   1.000  C
  C5284    1.0000 0.57401  0.02960  0.67954  Biso   1.000  C
  C5285    1.0000 0.56887  0.49660  0.18364  Biso   1.000  C
  C5286    1.0000 0.57471  0.52784  0.17641  Biso   1.000  C
  C5287    1.0000 0.93133  0.43484  0.24798  Biso   1.000  C
  C5288    1.0000 0.92601  0.42822  0.27933  Biso   1.000  C
  C5289    1.0000 0.93076  0.93068  0.74664  Biso   1.000  C
  C5290    1.0000 0.92452  0.92450  0.77806  Biso   1.000  C
  C5291    1.0000 0.82278  0.82071  0.74667  Biso   1.000  C
  C5292    1.0000 0.82824  0.82622  0.77828  Biso   1.000  C
  C5293    1.0000 0.82181  0.31689  0.24701  Biso   1.000  C
  C5294    1.0000 0.82963  0.32504  0.27750  Biso   1.000  C
  C5295    1.0000 0.32147  0.81745  0.24689  Biso   1.000  C
  C5296    1.0000 0.32831  0.82402  0.27816  Biso   1.000  C
  C5297    1.0000 0.31822  0.31541  0.74760  Biso   1.000  C
  C5298    1.0000 0.32412  0.32415  0.77845  Biso   1.000  C
  C5299    1.0000 0.43281  0.31572  0.00121  Biso   1.000  C
  C5300    1.0000 0.42779  0.32270  0.96980  Biso   1.000  C
  C5301    1.0000 0.43337  0.82192  0.50365  Biso   1.000  C
  C5302    1.0000 0.42556  0.82777  0.47257  Biso   1.000  C
  C5303    1.0000 0.93045  0.81903  0.00423  Biso   1.000  C
  C5304    1.0000 0.92380  0.82652  0.97323  Biso   1.000  C
  C5305    1.0000 0.31955  0.93112  0.50240  Biso   1.000  C
  C5306    1.0000 0.32525  0.92341  0.47119  Biso   1.000  C
  C5307    1.0000 0.81953  0.93204  0.00242  Biso   1.000  C
  C5308    1.0000 0.82503  0.92435  0.97124  Biso   1.000  C
  C5309    1.0000 0.93030  0.50347  0.31995  Biso   1.000  C
  C5310    1.0000 0.92177  0.47327  0.32792  Biso   1.000  C
  C5311    1.0000 0.93242  0.00381  0.81794  Biso   1.000  C
  C5312    1.0000 0.92652  0.97230  0.82369  Biso   1.000  C
  C5313    1.0000 0.31702  0.00152  0.43336  Biso   1.000  C
  C5314    1.0000 0.32441  0.97046  0.42804  Biso   1.000  C
  C5315    1.0000 0.81732  0.00193  0.93380  Biso   1.000  C
  C5316    1.0000 0.82486  0.97098  0.92793  Biso   1.000  C
  C5317    1.0000 0.82112  0.74784  0.81738  Biso   1.000  C
  C5318    1.0000 0.82838  0.77829  0.82606  Biso   1.000  C
  C5319    1.0000 0.81815  0.24668  0.32116  Biso   1.000  C
  C5320    1.0000 0.82508  0.27777  0.32753  Biso   1.000  C
  C5321    1.0000 0.32180  0.74789  0.31747  Biso   1.000  C
  C5322    1.0000 0.32848  0.77841  0.32608  Biso   1.000  C
  C5323    1.0000 0.31535  0.24837  0.81857  Biso   1.000  C
  C5324    1.0000 0.32282  0.27948  0.82324  Biso   1.000  C
  C5325    1.0000 0.43386  0.24734  0.92794  Biso   1.000  C
  C5326    1.0000 0.42642  0.27822  0.92042  Biso   1.000  C
  C5327    1.0000 0.43445  0.74799  0.43104  Biso   1.000  C
  C5328    1.0000 0.42714  0.77882  0.42376  Biso   1.000  C
  C5329    1.0000 0.93290  0.74816  0.93147  Biso   1.000  C
  C5330    1.0000 0.92597  0.77908  0.92459  Biso   1.000  C
  C5331    1.0000 0.00337  0.43288  0.32052  Biso   1.000  C
  C5332    1.0000 0.97170  0.42732  0.32524  Biso   1.000  C
  C5333    1.0000 0.00171  0.93295  0.81645  Biso   1.000  C
  C5334    1.0000 0.97066  0.92560  0.82179  Biso   1.000  C
  C5335    1.0000 0.50386  0.31831  0.92927  Biso   1.000  C
  C5336    1.0000 0.47289  0.32599  0.92267  Biso   1.000  C
  C5337    1.0000 0.50445  0.81993  0.42936  Biso   1.000  C
  C5338    1.0000 0.47318  0.82693  0.42395  Biso   1.000  C
  C5339    1.0000 0.00401  0.81809  0.93031  Biso   1.000  C
  C5340    1.0000 0.97286  0.82606  0.92515  Biso   1.000  C
  C5341    1.0000 0.24759  0.93049  0.43105  Biso   1.000  C
  C5342    1.0000 0.27811  0.92338  0.42277  Biso   1.000  C
  C5343    1.0000 0.74777  0.93215  0.93019  Biso   1.000  C
  C5344    1.0000 0.77841  0.92496  0.92200  Biso   1.000  C
  C5345    1.0000 0.74826  0.81542  0.81824  Biso   1.000  C
  C5346    1.0000 0.77944  0.82296  0.82307  Biso   1.000  C
  C5347    1.0000 0.74832  0.31834  0.31611  Biso   1.000  C
  C5348    1.0000 0.77960  0.32585  0.32032  Biso   1.000  C
  C5349    1.0000 0.24900  0.81596  0.31684  Biso   1.000  C
  C5350    1.0000 0.28018  0.82368  0.32164  Biso   1.000  C
  C5351    1.0000 0.24575  0.31904  0.81933  Biso   1.000  C
  C5352    1.0000 0.27638  0.32673  0.82671  Biso   1.000  C
  C5353    1.0000 0.43422  0.93112  0.24679  Biso   1.000  C
  C5354    1.0000 0.42644  0.92541  0.27786  Biso   1.000  C
  C5355    1.0000 0.42963  0.43458  0.74767  Biso   1.000  C
  C5356    1.0000 0.42169  0.42775  0.77864  Biso   1.000  C
  C5357    1.0000 0.93444  0.31632  0.50191  Biso   1.000  C
  C5358    1.0000 0.92902  0.32376  0.47076  Biso   1.000  C
  C5359    1.0000 0.32104  0.43054  0.00449  Biso   1.000  C
  C5360    1.0000 0.32816  0.42275  0.97377  Biso   1.000  C
  C5361    1.0000 0.81922  0.43231  0.50237  Biso   1.000  C
  C5362    1.0000 0.82511  0.42371  0.47150  Biso   1.000  C
  C5363    1.0000 0.24801  0.43313  0.93178  Biso   1.000  C
  C5364    1.0000 0.27892  0.42399  0.92821  Biso   1.000  C
  C5365    1.0000 0.74652  0.43268  0.43145  Biso   1.000  C
  C5366    1.0000 0.77710  0.42505  0.42368  Biso   1.000  C
  C5367    1.0000 0.50227  0.93336  0.31771  Biso   1.000  C
  C5368    1.0000 0.47111  0.92675  0.32405  Biso   1.000  C
  C5369    1.0000 0.50226  0.43025  0.81915  Biso   1.000  C
  C5370    1.0000 0.47050  0.42511  0.82422  Biso   1.000  C
  C5371    1.0000 0.00376  0.31838  0.42931  Biso   1.000  C
  C5372    1.0000 0.97278  0.32643  0.42276  Biso   1.000  C
  C5373    1.0000 0.93398  0.24812  0.43009  Biso   1.000  C
  C5374    1.0000 0.92654  0.27895  0.42257  Biso   1.000  C
  C5375    1.0000 0.31838  0.50286  0.93050  Biso   1.000  C
  C5376    1.0000 0.32408  0.47124  0.92553  Biso   1.000  C
  C5377    1.0000 0.81733  0.50112  0.43320  Biso   1.000  C
  C5378    1.0000 0.82526  0.47000  0.42886  Biso   1.000  C
  C5379    1.0000 0.43231  0.00348  0.32040  Biso   1.000  C
  C5380    1.0000 0.42410  0.97267  0.32650  Biso   1.000  C
  C5381    1.0000 0.43182  0.50326  0.81738  Biso   1.000  C
  C5382    1.0000 0.42411  0.47258  0.82475  Biso   1.000  C
  C5383    1.0000 0.06963  0.56717  0.75235  Biso   1.000  C
  C5384    1.0000 0.07636  0.57428  0.72119  Biso   1.000  C
  C5385    1.0000 0.06608  0.06958  0.25332  Biso   1.000  C
  C5386    1.0000 0.07329  0.07832  0.22293  Biso   1.000  C
  C5387    1.0000 0.56887  0.68139  0.99823  Biso   1.000  C
  C5388    1.0000 0.57587  0.67335  0.02892  Biso   1.000  C
  C5389    1.0000 0.68019  0.06874  0.49744  Biso   1.000  C
  C5390    1.0000 0.67211  0.07415  0.52857  Biso   1.000  C
  C5391    1.0000 0.17921  0.06825  0.99806  Biso   1.000  C
  C5392    1.0000 0.17168  0.07346  0.02943  Biso   1.000  C
  C5393    1.0000 0.06847  0.49662  0.68442  Biso   1.000  C
  C5394    1.0000 0.07598  0.52702  0.67605  Biso   1.000  C
  C5395    1.0000 0.06626  0.99825  0.18208  Biso   1.000  C
  C5396    1.0000 0.07409  0.02965  0.18019  Biso   1.000  C
  C5397    1.0000 0.68136  0.99667  0.56965  Biso   1.000  C
  C5398    1.0000 0.67266  0.02682  0.57788  Biso   1.000  C
  C5399    1.0000 0.18127  0.99611  0.06889  Biso   1.000  C
  C5400    1.0000 0.17383  0.02631  0.07821  Biso   1.000  C
  C5401    1.0000 0.56837  0.75230  0.07103  Biso   1.000  C
  C5402    1.0000 0.57537  0.72097  0.07606  Biso   1.000  C
  C5403    1.0000 0.99803  0.56719  0.68253  Biso   1.000  C
  C5404    1.0000 0.02861  0.57370  0.67393  Biso   1.000  C
  C5405    1.0000 0.99688  0.06975  0.17998  Biso   1.000  C
  C5406    1.0000 0.02761  0.07700  0.17300  Biso   1.000  C
  C5407    1.0000 0.49730  0.68092  0.06931  Biso   1.000  C
  C5408    1.0000 0.52827  0.67365  0.07631  Biso   1.000  C
  C5409    1.0000 0.75222  0.06914  0.56729  Biso   1.000  C
  C5410    1.0000 0.72075  0.07348  0.57433  Biso   1.000  C
  C5411    1.0000 0.25199  0.06874  0.06732  Biso   1.000  C
  C5412    1.0000 0.22081  0.07358  0.07514  Biso   1.000  C
  C5413    1.0000 0.13685  0.11284  0.06858  Biso   1.000  C
  C5414    1.0000 0.13880  0.61740  0.56745  Biso   1.000  C
  C5415    1.0000 0.63768  0.11452  0.56789  Biso   1.000  C
  C5416    1.0000 0.61415  0.13694  0.56856  Biso   1.000  C
  C5417    1.0000 0.61578  0.63719  0.06907  Biso   1.000  C
  C5418    1.0000 0.11573  0.61047  0.68057  Biso   1.000  C
  C5419    1.0000 0.11401  0.11365  0.18160  Biso   1.000  C
  C5420    1.0000 0.61490  0.61167  0.18357  Biso   1.000  C
  C5421    1.0000 0.63844  0.63414  0.18460  Biso   1.000  C
  C5422    1.0000 0.63636  0.13664  0.68271  Biso   1.000  C
  C5423    1.0000 0.13876  0.63350  0.68168  Biso   1.000  C
  C5424    1.0000 0.13650  0.13698  0.18047  Biso   1.000  C
  C5425    1.0000 0.06625  0.13425  0.11185  Biso   1.000  C
  C5426    1.0000 0.06709  0.63546  0.61313  Biso   1.000  C
  C5427    1.0000 0.56532  0.13518  0.61344  Biso   1.000  C
  C5428    1.0000 0.56762  0.61340  0.13738  Biso   1.000  C
  C5429    1.0000 0.56603  0.11351  0.63755  Biso   1.000  C
  C5430    1.0000 0.68424  0.11200  0.61438  Biso   1.000  C
  C5431    1.0000 0.18287  0.11196  0.11498  Biso   1.000  C
  C5432    1.0000 0.18523  0.61257  0.61394  Biso   1.000  C
  C5433    1.0000 0.18464  0.63612  0.63640  Biso   1.000  C
  C5434    1.0000 0.18216  0.13665  0.13623  Biso   1.000  C
  C5435    1.0000 0.68410  0.63583  0.13653  Biso   1.000  C
  C5436    1.0000 0.68263  0.13586  0.63645  Biso   1.000  C
  C5437    1.0000 0.11286  0.06568  0.13848  Biso   1.000  C
  C5438    1.0000 0.11374  0.56909  0.63638  Biso   1.000  C
  C5439    1.0000 0.61347  0.57000  0.13789  Biso   1.000  C
  C5440    1.0000 0.13641  0.57000  0.61324  Biso   1.000  C
  C5441    1.0000 0.63634  0.56983  0.11490  Biso   1.000  C
  C5442    1.0000 0.61177  0.68064  0.11578  Biso   1.000  C
  C5443    1.0000 0.61090  0.18263  0.61473  Biso   1.000  C
  C5444    1.0000 0.63482  0.18386  0.63663  Biso   1.000  C
  C5445    1.0000 0.63448  0.68088  0.13887  Biso   1.000  C
  C5446    1.0000 0.13429  0.18082  0.13702  Biso   1.000  C
  C5447    1.0000 0.13468  0.68147  0.63979  Biso   1.000  C
  C5448    1.0000 0.86390  0.38645  0.43299  Biso   1.000  C
  C5449    1.0000 0.36367  0.38562  0.93396  Biso   1.000  C
  C5450    1.0000 0.88820  0.86496  0.93231  Biso   1.000  C
  C5451    1.0000 0.88778  0.36435  0.43368  Biso   1.000  C
  C5452    1.0000 0.36323  0.36311  0.81854  Biso   1.000  C
  C5453    1.0000 0.36371  0.86503  0.31909  Biso   1.000  C
  C5454    1.0000 0.86462  0.36362  0.31835  Biso   1.000  C
  C5455    1.0000 0.86216  0.86570  0.82042  Biso   1.000  C
  C5456    1.0000 0.38658  0.88801  0.31891  Biso   1.000  C
  C5457    1.0000 0.38541  0.38699  0.81933  Biso   1.000  C
  C5458    1.0000 0.88528  0.88839  0.82085  Biso   1.000  C
  C5459    1.0000 0.88462  0.31793  0.38864  Biso   1.000  C
  C5460    1.0000 0.88581  0.81945  0.88880  Biso   1.000  C
  C5461    1.0000 0.36437  0.81994  0.36446  Biso   1.000  C
  C5462    1.0000 0.36108  0.31659  0.86443  Biso   1.000  C
  C5463    1.0000 0.86424  0.82020  0.86446  Biso   1.000  C
  C5464    1.0000 0.86278  0.31744  0.36441  Biso   1.000  C
  C5465    1.0000 0.86468  0.93461  0.88724  Biso   1.000  C
  C5466    1.0000 0.36328  0.93449  0.38634  Biso   1.000  C
  C5467    1.0000 0.38534  0.43327  0.86468  Biso   1.000  C
  C5468    1.0000 0.38701  0.93327  0.36412  Biso   1.000  C
  C5469    1.0000 0.81545  0.36312  0.36316  Biso   1.000  C
  C5470    1.0000 0.81544  0.86244  0.86456  Biso   1.000  C
  C5471    1.0000 0.31705  0.36497  0.86254  Biso   1.000  C
  C5472    1.0000 0.31567  0.86277  0.36360  Biso   1.000  C
  C5473    1.0000 0.31671  0.38770  0.88582  Biso   1.000  C
  C5474    1.0000 0.81584  0.38633  0.38608  Biso   1.000  C
  C5475    1.0000 0.81603  0.88598  0.88697  Biso   1.000  C
  C5476    1.0000 0.43206  0.86279  0.38481  Biso   1.000  C
  C5477    1.0000 0.43372  0.36423  0.88530  Biso   1.000  C
  C5478    1.0000 0.93185  0.88666  0.86335  Biso   1.000  C
  C5479    1.0000 0.93407  0.38790  0.36342  Biso   1.000  C
  C5480    1.0000 0.86503  0.88765  0.93202  Biso   1.000  C
  C5481    1.0000 0.36527  0.88742  0.43141  Biso   1.000  C
  C5482    1.0000 0.38836  0.86467  0.43150  Biso   1.000  C
  C5483    1.0000 0.38789  0.36393  0.93300  Biso   1.000  C
  C5484    1.0000 0.88794  0.38636  0.31767  Biso   1.000  C
  C5485    1.0000 0.93295  0.86311  0.88589  Biso   1.000  C
  C5486    1.0000 0.93240  0.36418  0.38556  Biso   1.000  C
  C5487    1.0000 0.43404  0.38847  0.86372  Biso   1.000  C
  C5488    1.0000 0.43250  0.88533  0.36142  Biso   1.000  C
  C5489    1.0000 0.31578  0.88581  0.38649  Biso   1.000  C
  C5490    1.0000 0.88828  0.93479  0.86478  Biso   1.000  C
  C5491    1.0000 0.88490  0.43157  0.36312  Biso   1.000  C
  C5492    1.0000 0.86139  0.43274  0.38549  Biso   1.000  C
  C5493    1.0000 0.36368  0.43343  0.88897  Biso   1.000  C
  C5494    1.0000 0.38526  0.31796  0.88638  Biso   1.000  C
  C5495    1.0000 0.38587  0.81879  0.38881  Biso   1.000  C
  C5496    1.0000 0.63937  0.61488  0.06845  Biso   1.000  C
  C5497    1.0000 0.11321  0.13514  0.06843  Biso   1.000  C
  C5498    1.0000 0.11532  0.63984  0.56890  Biso   1.000  C
  C5499    1.0000 0.61353  0.11356  0.68223  Biso   1.000  C
  C5500    1.0000 0.11156  0.68205  0.61697  Biso   1.000  C
  C5501    1.0000 0.11169  0.17950  0.11361  Biso   1.000  C
  C5502    1.0000 0.13517  0.06523  0.11485  Biso   1.000  C
  C5503    1.0000 0.63461  0.06704  0.61371  Biso   1.000  C
  C5504    1.0000 0.61220  0.06722  0.63732  Biso   1.000  C
  C5505    1.0000 0.68574  0.61215  0.11430  Biso   1.000  C
  C5506    1.0000 0.56699  0.63490  0.11314  Biso   1.000  C
  C5507    1.0000 0.06799  0.11311  0.13646  Biso   1.000  C
  C5508    1.0000 0.06745  0.61221  0.63587  Biso   1.000  C
  C5509    1.0000 0.68218  0.91748  0.92042  Biso   1.000  C
  C5510    1.0000 0.66385  0.89928  0.90014  Biso   1.000  C
  C5511    1.0000 0.68158  0.41775  0.42017  Biso   1.000  C
  C5512    1.0000 0.66359  0.39930  0.39968  Biso   1.000  C
  C5513    1.0000 0.18214  0.91670  0.42133  Biso   1.000  C
  C5514    1.0000 0.16370  0.89872  0.40093  Biso   1.000  C
  C5515    1.0000 0.18274  0.41825  0.91846  Biso   1.000  C
  C5516    1.0000 0.16303  0.39991  0.89939  Biso   1.000  C
  C5517    1.0000 0.06967  0.33016  0.41777  Biso   1.000  C
  C5518    1.0000 0.08934  0.34910  0.39959  Biso   1.000  C
  C5519    1.0000 0.06945  0.83097  0.91952  Biso   1.000  C
  C5520    1.0000 0.08741  0.85158  0.90109  Biso   1.000  C
  C5521    1.0000 0.56785  0.41717  0.83150  Biso   1.000  C
  C5522    1.0000 0.58767  0.39898  0.85069  Biso   1.000  C
  C5523    1.0000 0.56769  0.91713  0.33109  Biso   1.000  C
  C5524    1.0000 0.58635  0.89877  0.35115  Biso   1.000  C
  C5525    1.0000 0.06738  0.91786  0.83104  Biso   1.000  C
  C5526    1.0000 0.08677  0.89906  0.85022  Biso   1.000  C
  C5527    1.0000 0.18355  0.83082  0.33154  Biso   1.000  C
  C5528    1.0000 0.16540  0.85046  0.35086  Biso   1.000  C
  C5529    1.0000 0.68273  0.83071  0.83097  Biso   1.000  C
  C5530    1.0000 0.66479  0.85028  0.85050  Biso   1.000  C
  C5531    1.0000 0.91724  0.68266  0.91894  Biso   1.000  C
  C5532    1.0000 0.89908  0.66279  0.89979  Biso   1.000  C
  C5533    1.0000 0.91934  0.18114  0.41956  Biso   1.000  C
  C5534    1.0000 0.89990  0.16188  0.40134  Biso   1.000  C
  C5535    1.0000 0.41801  0.68276  0.42066  Biso   1.000  C
  C5536    1.0000 0.40008  0.66249  0.40183  Biso   1.000  C
  C5537    1.0000 0.41941  0.18058  0.91831  Biso   1.000  C
  C5538    1.0000 0.39933  0.16185  0.90022  Biso   1.000  C
  C5539    1.0000 0.41921  0.06818  0.33197  Biso   1.000  C
  C5540    1.0000 0.40032  0.08611  0.35209  Biso   1.000  C
  C5541    1.0000 0.91779  0.06828  0.83053  Biso   1.000  C
  C5542    1.0000 0.89878  0.08577  0.85080  Biso   1.000  C
  C5543    1.0000 0.83092  0.56776  0.41775  Biso   1.000  C
  C5544    1.0000 0.84932  0.58768  0.39921  Biso   1.000  C
  C5545    1.0000 0.83246  0.06692  0.91888  Biso   1.000  C
  C5546    1.0000 0.85108  0.08506  0.89862  Biso   1.000  C
  C5547    1.0000 0.33036  0.18212  0.83296  Biso   1.000  C
  C5548    1.0000 0.35009  0.16290  0.85120  Biso   1.000  C
  C5549    1.0000 0.33383  0.68351  0.33272  Biso   1.000  C
  C5550    1.0000 0.35343  0.66567  0.35226  Biso   1.000  C
  C5551    1.0000 0.83293  0.68319  0.83244  Biso   1.000  C
  C5552    1.0000 0.85237  0.66379  0.85067  Biso   1.000  C
  C5553    1.0000 0.91944  0.91850  0.68137  Biso   1.000  C
  C5554    1.0000 0.90071  0.89927  0.66239  Biso   1.000  C
  C5555    1.0000 0.91883  0.41884  0.18199  Biso   1.000  C
  C5556    1.0000 0.89947  0.39959  0.16328  Biso   1.000  C
  C5557    1.0000 0.41941  0.91884  0.18090  Biso   1.000  C
  C5558    1.0000 0.40072  0.89909  0.16209  Biso   1.000  C
  C5559    1.0000 0.41830  0.41888  0.68244  Biso   1.000  C
  C5560    1.0000 0.39871  0.39969  0.66397  Biso   1.000  C
  C5561    1.0000 0.33126  0.41902  0.06889  Biso   1.000  C
  C5562    1.0000 0.35036  0.39860  0.08630  Biso   1.000  C
  C5563    1.0000 0.33195  0.91822  0.56868  Biso   1.000  C
  C5564    1.0000 0.35207  0.90009  0.58731  Biso   1.000  C
  C5565    1.0000 0.83143  0.91721  0.06785  Biso   1.000  C
  C5566    1.0000 0.85047  0.89861  0.08741  Biso   1.000  C
  C5567    1.0000 0.42011  0.83278  0.56920  Biso   1.000  C
  C5568    1.0000 0.40005  0.85107  0.58776  Biso   1.000  C
  C5569    1.0000 0.92089  0.83235  0.06982  Biso   1.000  C
  C5570    1.0000 0.90146  0.85075  0.08906  Biso   1.000  C
  C5571    1.0000 0.83103  0.33077  0.18261  Biso   1.000  C
  C5572    1.0000 0.85017  0.35095  0.16483  Biso   1.000  C
  C5573    1.0000 0.83319  0.83096  0.68145  Biso   1.000  C
  C5574    1.0000 0.85223  0.84898  0.66181  Biso   1.000  C
  C5575    1.0000 0.66854  0.93250  0.58059  Biso   1.000  C
  C5576    1.0000 0.64949  0.91485  0.60078  Biso   1.000  C
  C5577    1.0000 0.66918  0.43200  0.08327  Biso   1.000  C
  C5578    1.0000 0.64941  0.41369  0.10217  Biso   1.000  C
  C5579    1.0000 0.08044  0.31646  0.08236  Biso   1.000  C
  C5580    1.0000 0.09980  0.33614  0.10045  Biso   1.000  C
  C5581    1.0000 0.07899  0.81876  0.58172  Biso   1.000  C
  C5582    1.0000 0.09739  0.83749  0.60164  Biso   1.000  C
  C5583    1.0000 0.58038  0.31748  0.58078  Biso   1.000  C
  C5584    1.0000 0.59828  0.33688  0.60027  Biso   1.000  C
  C5585    1.0000 0.58187  0.81758  0.08169  Biso   1.000  C
  C5586    1.0000 0.60049  0.83729  0.10036  Biso   1.000  C
  C5587    1.0000 0.16561  0.81698  0.66871  Biso   1.000  C
  C5588    1.0000 0.14579  0.83549  0.65006  Biso   1.000  C
  C5589    1.0000 0.16827  0.31725  0.16896  Biso   1.000  C
  C5590    1.0000 0.14900  0.33432  0.14841  Biso   1.000  C
  C5591    1.0000 0.66738  0.31713  0.66855  Biso   1.000  C
  C5592    1.0000 0.64768  0.33407  0.64830  Biso   1.000  C
  C5593    1.0000 0.58172  0.43190  0.16917  Biso   1.000  C
  C5594    1.0000 0.60142  0.41346  0.15021  Biso   1.000  C
  C5595    1.0000 0.08038  0.43114  0.67023  Biso   1.000  C
  C5596    1.0000 0.09907  0.41321  0.64984  Biso   1.000  C
  C5597    1.0000 0.42919  0.16915  0.57985  Biso   1.000  C
  C5598    1.0000 0.41079  0.15091  0.60007  Biso   1.000  C
  C5599    1.0000 0.43319  0.66794  0.08118  Biso   1.000  C
  C5600    1.0000 0.41393  0.64831  0.09930  Biso   1.000  C
  C5601    1.0000 0.81890  0.66758  0.16852  Biso   1.000  C
  C5602    1.0000 0.83792  0.64922  0.14888  Biso   1.000  C
  C5603    1.0000 0.31992  0.66920  0.66891  Biso   1.000  C
  C5604    1.0000 0.33812  0.65007  0.64921  Biso   1.000  C
  C5605    1.0000 0.31756  0.08072  0.08080  Biso   1.000  C
  C5606    1.0000 0.33693  0.09974  0.09950  Biso   1.000  C
  C5607    1.0000 0.31906  0.58161  0.58051  Biso   1.000  C
  C5608    1.0000 0.33747  0.60064  0.60002  Biso   1.000  C
  C5609    1.0000 0.81819  0.08137  0.58116  Biso   1.000  C
  C5610    1.0000 0.83752  0.10024  0.59997  Biso   1.000  C
  C5611    1.0000 0.81838  0.58027  0.08167  Biso   1.000  C
  C5612    1.0000 0.83687  0.59893  0.10166  Biso   1.000  C
  C5613    1.0000 0.93317  0.57982  0.66761  Biso   1.000  C
  C5614    1.0000 0.91502  0.59950  0.64828  Biso   1.000  C
  C5615    1.0000 0.93092  0.08163  0.16854  Biso   1.000  C
  C5616    1.0000 0.91068  0.09900  0.14924  Biso   1.000  C
  C5617    1.0000 0.43185  0.08403  0.66965  Biso   1.000  C
  C5618    1.0000 0.41408  0.10351  0.64991  Biso   1.000  C
  C5619    1.0000 0.66907  0.16924  0.81900  Biso   1.000  C
  C5620    1.0000 0.64931  0.15064  0.83759  Biso   1.000  C
  C5621    1.0000 0.66870  0.66903  0.31893  Biso   1.000  C
  C5622    1.0000 0.65083  0.64880  0.33781  Biso   1.000  C
  C5623    1.0000 0.16928  0.58125  0.43042  Biso   1.000  C
  C5624    1.0000 0.15003  0.60053  0.41181  Biso   1.000  C
  C5625    1.0000 0.16546  0.08081  0.93242  Biso   1.000  C
  C5626    1.0000 0.14712  0.10033  0.91333  Biso   1.000  C
  C5627    1.0000 0.66617  0.08022  0.43177  Biso   1.000  C
  C5628    1.0000 0.64660  0.09873  0.41282  Biso   1.000  C
  C5629    1.0000 0.58231  0.66874  0.93134  Biso   1.000  C
  C5630    1.0000 0.60092  0.64939  0.91224  Biso   1.000  C
  C5631    1.0000 0.08263  0.66954  0.43112  Biso   1.000  C
  C5632    1.0000 0.10141  0.65034  0.41195  Biso   1.000  C
  C5633    1.0000 0.08112  0.07973  0.31870  Biso   1.000  C
  C5634    1.0000 0.10054  0.09927  0.33674  Biso   1.000  C
  C5635    1.0000 0.08102  0.58298  0.81785  Biso   1.000  C
  C5636    1.0000 0.09950  0.60245  0.83691  Biso   1.000  C
  C5637    1.0000 0.58150  0.08118  0.81800  Biso   1.000  C
  C5638    1.0000 0.60121  0.10109  0.83535  Biso   1.000  C
  C5639    1.0000 0.58152  0.58144  0.31893  Biso   1.000  C
  C5640    1.0000 0.60107  0.60060  0.33747  Biso   1.000  C
  C5641    1.0000 0.93357  0.66725  0.58092  Biso   1.000  C
  C5642    1.0000 0.91457  0.64791  0.59948  Biso   1.000  C
  C5643    1.0000 0.93184  0.16611  0.07993  Biso   1.000  C
  C5644    1.0000 0.91218  0.14760  0.09886  Biso   1.000  C
  C5645    1.0000 0.43173  0.58044  0.16890  Biso   1.000  C
  C5646    1.0000 0.41309  0.59942  0.14933  Biso   1.000  C
  C5647    1.0000 0.81827  0.16947  0.66704  Biso   1.000  C
  C5648    1.0000 0.83703  0.15023  0.64793  Biso   1.000  C
  C5649    1.0000 0.31842  0.16929  0.16678  Biso   1.000  C
  C5650    1.0000 0.33667  0.14998  0.14735  Biso   1.000  C
  C5651    1.0000 0.58184  0.93411  0.66800  Biso   1.000  C
  C5652    1.0000 0.60143  0.91686  0.64807  Biso   1.000  C
  C5653    1.0000 0.08185  0.93273  0.16663  Biso   1.000  C
  C5654    1.0000 0.10124  0.91473  0.14705  Biso   1.000  C
  C5655    1.0000 0.16651  0.43305  0.58160  Biso   1.000  C
  C5656    1.0000 0.14755  0.41503  0.60154  Biso   1.000  C
  C5657    1.0000 0.17067  0.93168  0.08204  Biso   1.000  C
  C5658    1.0000 0.15130  0.91343  0.10140  Biso   1.000  C
  C5659    1.0000 0.66886  0.81733  0.16853  Biso   1.000  C
  C5660    1.0000 0.64911  0.83598  0.14984  Biso   1.000  C
  C5661    1.0000 0.66634  0.57968  0.93223  Biso   1.000  C
  C5662    1.0000 0.64709  0.59849  0.91318  Biso   1.000  C
  C5663    1.0000 0.57994  0.16731  0.43040  Biso   1.000  C
  C5664    1.0000 0.59945  0.14880  0.41142  Biso   1.000  C
  C5665    1.0000 0.08033  0.16809  0.93009  Biso   1.000  C
  C5666    1.0000 0.09899  0.14799  0.91174  Biso   1.000  C
  C5667    1.0000 0.16878  0.66907  0.81878  Biso   1.000  C
  C5668    1.0000 0.14886  0.64998  0.83715  Biso   1.000  C
  C5669    1.0000 0.16781  0.16954  0.31839  Biso   1.000  C
  C5670    1.0000 0.14964  0.14896  0.33658  Biso   1.000  C
  C5671    1.0000 0.33253  0.06656  0.41849  Biso   1.000  C
  C5672    1.0000 0.35154  0.08486  0.39877  Biso   1.000  C
  C5673    1.0000 0.33293  0.56634  0.91848  Biso   1.000  C
  C5674    1.0000 0.35128  0.58559  0.89905  Biso   1.000  C
  C5675    1.0000 0.83104  0.18121  0.33335  Biso   1.000  C
  C5676    1.0000 0.85132  0.16305  0.35199  Biso   1.000  C
  C5677    1.0000 0.41857  0.56735  0.83038  Biso   1.000  C
  C5678    1.0000 0.40029  0.58538  0.85104  Biso   1.000  C
  C5679    1.0000 0.91969  0.56847  0.33210  Biso   1.000  C
  C5680    1.0000 0.90121  0.58782  0.35123  Biso   1.000  C
  C5681    1.0000 0.56878  0.83151  0.41899  Biso   1.000  C
  C5682    1.0000 0.58717  0.85117  0.40008  Biso   1.000  C
  C5683    1.0000 0.56984  0.33016  0.91823  Biso   1.000  C
  C5684    1.0000 0.58963  0.34893  0.89984  Biso   1.000  C
  C5685    1.0000 0.18111  0.33260  0.83019  Biso   1.000  C
  C5686    1.0000 0.16327  0.35288  0.84901  Biso   1.000  C
  C5687    1.0000 0.68254  0.33232  0.33184  Biso   1.000  C
  C5688    1.0000 0.66432  0.35091  0.35199  Biso   1.000  C
  C5689    1.0000 0.06907  0.41783  0.33123  Biso   1.000  C
  C5690    1.0000 0.08868  0.39956  0.35055  Biso   1.000  C
  C5691    1.0000 0.33322  0.83018  0.18108  Biso   1.000  C
  C5692    1.0000 0.35138  0.85042  0.16242  Biso   1.000  C
  C5693    1.0000 0.32991  0.32988  0.68179  Biso   1.000  C
  C5694    1.0000 0.34834  0.35075  0.66391  Biso   1.000  C
  C5695    1.0000 0.83214  0.41959  0.56743  Biso   1.000  C
  C5696    1.0000 0.85099  0.39911  0.58492  Biso   1.000  C
  C5697    1.0000 0.41980  0.33190  0.06700  Biso   1.000  C
  C5698    1.0000 0.40042  0.35056  0.08613  Biso   1.000  C
  C5699    1.0000 0.92098  0.33219  0.56736  Biso   1.000  C
  C5700    1.0000 0.90120  0.35098  0.58597  Biso   1.000  C
  C5701    1.0000 0.32953  0.30976  0.77288  Biso   1.000  C
  C5702    1.0000 0.24746  0.25940  0.79354  Biso   1.000  C
  C5703    1.0000 0.06909  0.95130  0.46223  Biso   1.000  C
  C5704    1.0000 0.10492  0.92555  0.39473  Biso   1.000  C
  C5705    1.0000 0.66812  0.92338  0.91457  Biso   1.000  C
  C5706    1.0000 0.16323  0.99442  0.44055  Biso   1.000  C
  C5707    1.0000 0.87955  0.39130  0.43325  Biso   1.000  C
  C5708    1.0000 0.32970  0.80653  0.25591  Biso   1.000  C
  C5709    1.0000 0.23507  0.74294  0.29262  Biso   1.000  C
  C5710    1.0000 0.07552  0.44391  0.95682  Biso   1.000  C
  C5711    1.0000 0.08980  0.44341  0.88646  Biso   1.000  C
  C5712    1.0000 0.67101  0.41284  0.39419  Biso   1.000  C
  C5713    1.0000 0.15332  0.47234  0.94252  Biso   1.000  C
  C5714    1.0000 0.83882  0.31414  0.26946  Biso   1.000  C
  C5715    1.0000 0.74860  0.25980  0.29276  Biso   1.000  C
  C5716    1.0000 0.56929  0.95131  0.96314  Biso   1.000  C
  C5717    1.0000 0.60611  0.92519  0.89550  Biso   1.000  C
  C5718    1.0000 0.16637  0.92058  0.41898  Biso   1.000  C
  C5719    1.0000 0.65809  0.98897  0.94481  Biso   1.000  C
  C5720    1.0000 0.83643  0.81497  0.75364  Biso   1.000  C
  C5721    1.0000 0.73499  0.74368  0.79071  Biso   1.000  C
  C5722    1.0000 0.59834  0.44070  0.39834  Biso   1.000  C
  C5723    1.0000 0.18693  0.41495  0.90290  Biso   1.000  C
  C5724    1.0000 0.65177  0.47134  0.44211  Biso   1.000  C
  C5725    1.0000 0.41528  0.92297  0.26613  Biso   1.000  C
  C5726    1.0000 0.65898  0.28642  0.97457  Biso   1.000  C
  C5727    1.0000 0.65460  0.32545  0.89020  Biso   1.000  C
  C5728    1.0000 0.58394  0.26556  0.91722  Biso   1.000  C
  C5729    1.0000 0.65917  0.78682  0.47573  Biso   1.000  C
  C5730    1.0000 0.64416  0.82427  0.39649  Biso   1.000  C
  C5731    1.0000 0.58405  0.76568  0.41770  Biso   1.000  C
  C5732    1.0000 0.91420  0.93376  0.76931  Biso   1.000  C
  C5733    1.0000 0.16291  0.28685  0.47475  Biso   1.000  C
  C5734    1.0000 0.15793  0.32290  0.38320  Biso   1.000  C
  C5735    1.0000 0.08571  0.26557  0.41784  Biso   1.000  C
  C5736    1.0000 0.93009  0.44341  0.27487  Biso   1.000  C
  C5737    1.0000 0.18279  0.80060  0.95939  Biso   1.000  C
  C5738    1.0000 0.14440  0.82460  0.89527  Biso   1.000  C
  C5739    1.0000 0.08457  0.76531  0.91769  Biso   1.000  C
  C5740    1.0000 0.36987  0.39035  0.81531  Biso   1.000  C
  C5741    1.0000 0.91514  0.81489  0.98088  Biso   1.000  C
  C5742    1.0000 0.00152  0.75919  0.95693  Biso   1.000  C
  C5743    1.0000 0.16245  0.44089  0.36370  Biso   1.000  C
  C5744    1.0000 0.57858  0.41107  0.85718  Biso   1.000  C
  C5745    1.0000 0.09287  0.48930  0.30472  Biso   1.000  C
  C5746    1.0000 0.37631  0.88687  0.33161  Biso   1.000  C
  C5747    1.0000 0.93404  0.30870  0.47469  Biso   1.000  C
  C5748    1.0000 0.15623  0.92721  0.86539  Biso   1.000  C
  C5749    1.0000 0.57693  0.91070  0.35731  Biso   1.000  C
  C5750    1.0000 0.10991  0.97374  0.82195  Biso   1.000  C
  C5751    1.0000 0.87215  0.39077  0.31806  Biso   1.000  C
  C5752    1.0000 0.41575  0.81846  0.48183  Biso   1.000  C
  C5753    1.0000 0.50422  0.75571  0.43732  Biso   1.000  C
  C5754    1.0000 0.66172  0.44147  0.86352  Biso   1.000  C
  C5755    1.0000 0.07948  0.41158  0.35701  Biso   1.000  C
  C5756    1.0000 0.58587  0.49431  0.81210  Biso   1.000  C
  C5757    1.0000 0.87418  0.88792  0.83287  Biso   1.000  C
  C5758    1.0000 0.43188  0.30746  0.97416  Biso   1.000  C
  C5759    1.0000 0.63520  0.93559  0.37811  Biso   1.000  C
  C5760    1.0000 0.07796  0.91136  0.85673  Biso   1.000  C
  C5761    1.0000 0.61033  0.97307  0.32333  Biso   1.000  C
  C5762    1.0000 0.83068  0.43797  0.47721  Biso   1.000  C
  C5763    1.0000 0.57332  0.80531  0.79420  Biso   1.000  C
  C5764    1.0000 0.59377  0.82206  0.87011  Biso   1.000  C
  C5765    1.0000 0.65596  0.76479  0.80127  Biso   1.000  C
  C5766    1.0000 0.83001  0.93876  0.97710  Biso   1.000  C
  C5767    1.0000 0.56866  0.30039  0.29156  Biso   1.000  C
  C5768    1.0000 0.60511  0.32456  0.35464  Biso   1.000  C
  C5769    1.0000 0.65917  0.26060  0.30673  Biso   1.000  C
  C5770    1.0000 0.33677  0.43438  0.98142  Biso   1.000  C
  C5771    1.0000 0.07348  0.80674  0.29434  Biso   1.000  C
  C5772    1.0000 0.09305  0.82266  0.36912  Biso   1.000  C
  C5773    1.0000 0.15750  0.76284  0.30308  Biso   1.000  C
  C5774    1.0000 0.33050  0.93768  0.47717  Biso   1.000  C
  C5775    1.0000 0.06848  0.30042  0.79064  Biso   1.000  C
  C5776    1.0000 0.10360  0.32574  0.85511  Biso   1.000  C
  C5777    1.0000 0.67175  0.33746  0.35769  Biso   1.000  C
  C5778    1.0000 0.16512  0.26790  0.83321  Biso   1.000  C
  C5779    1.0000 0.37671  0.11112  0.95039  Biso   1.000  C
  C5780    1.0000 0.41780  0.16559  0.98014  Biso   1.000  C
  C5781    1.0000 0.37313  0.61578  0.43512  Biso   1.000  C
  C5782    1.0000 0.91537  0.16612  0.42491  Biso   1.000  C
  C5783    1.0000 0.41792  0.66467  0.47933  Biso   1.000  C
  C5784    1.0000 0.31711  0.23903  0.75252  Biso   1.000  C
  C5785    1.0000 0.95994  0.07019  0.44881  Biso   1.000  C
  C5786    1.0000 0.86758  0.10666  0.43515  Biso   1.000  C
  C5787    1.0000 0.91833  0.16549  0.48012  Biso   1.000  C
  C5788    1.0000 0.87289  0.61628  0.93570  Biso   1.000  C
  C5789    1.0000 0.41475  0.16585  0.92388  Biso   1.000  C
  C5790    1.0000 0.91801  0.66605  0.98387  Biso   1.000  C
  C5791    1.0000 0.31792  0.50895  0.99732  Biso   1.000  C
  C5792    1.0000 0.95870  0.67970  0.30353  Biso   1.000  C
  C5793    1.0000 0.89971  0.65012  0.30936  Biso   1.000  C
  C5794    1.0000 0.92375  0.59735  0.25093  Biso   1.000  C
  C5795    1.0000 0.31862  0.00978  0.49823  Biso   1.000  C
  C5796    1.0000 0.88573  0.16112  0.80906  Biso   1.000  C
  C5797    1.0000 0.92108  0.09871  0.75109  Biso   1.000  C
  C5798    1.0000 0.81731  0.51085  0.49798  Biso   1.000  C
  C5799    1.0000 0.45914  0.68103  0.80294  Biso   1.000  C
  C5800    1.0000 0.38739  0.66109  0.80927  Biso   1.000  C
  C5801    1.0000 0.43874  0.61293  0.77084  Biso   1.000  C
  C5802    1.0000 0.81853  0.01058  0.99938  Biso   1.000  C
  C5803    1.0000 0.38667  0.16059  0.30924  Biso   1.000  C
  C5804    1.0000 0.90661  0.59321  0.33672  Biso   1.000  C
  C5805    1.0000 0.42003  0.09712  0.25188  Biso   1.000  C
  C5806    1.0000 0.93146  0.00988  0.75275  Biso   1.000  C
  C5807    1.0000 0.29010  0.17877  0.44842  Biso   1.000  C
  C5808    1.0000 0.37576  0.13167  0.43595  Biso   1.000  C
  C5809    1.0000 0.84407  0.59262  0.41394  Biso   1.000  C
  C5810    1.0000 0.33325  0.09624  0.49620  Biso   1.000  C
  C5811    1.0000 0.81493  0.87033  0.89167  Biso   1.000  C
  C5812    1.0000 0.93176  0.50975  0.25257  Biso   1.000  C
  C5813    1.0000 0.36344  0.66057  0.94083  Biso   1.000  C
  C5814    1.0000 0.33564  0.59677  0.99429  Biso   1.000  C
  C5815    1.0000 0.30614  0.37520  0.88653  Biso   1.000  C
  C5816    1.0000 0.78972  0.17867  0.94812  Biso   1.000  C
  C5817    1.0000 0.87687  0.13167  0.93505  Biso   1.000  C
  C5818    1.0000 0.34879  0.56886  0.92194  Biso   1.000  C
  C5819    1.0000 0.83284  0.09649  0.99765  Biso   1.000  C
  C5820    1.0000 0.31475  0.87008  0.39088  Biso   1.000  C
  C5821    1.0000 0.49427  0.41901  0.81025  Biso   1.000  C
  C5822    1.0000 0.43334  0.51169  0.74950  Biso   1.000  C
  C5823    1.0000 0.85145  0.65425  0.44009  Biso   1.000  C
  C5824    1.0000 0.80740  0.60869  0.48889  Biso   1.000  C
  C5825    1.0000 0.79079  0.57016  0.80201  Biso   1.000  C
  C5826    1.0000 0.88296  0.60533  0.81615  Biso   1.000  C
  C5827    1.0000 0.83300  0.66554  0.76783  Biso   1.000  C
  C5828    1.0000 0.87616  0.11738  0.31544  Biso   1.000  C
  C5829    1.0000 0.35991  0.67477  0.34023  Biso   1.000  C
  C5830    1.0000 0.80355  0.15351  0.26857  Biso   1.000  C
  C5831    1.0000 0.29475  0.57624  0.30665  Biso   1.000  C
  C5832    1.0000 0.37013  0.62002  0.31648  Biso   1.000  C
  C5833    1.0000 0.33256  0.66609  0.26437  Biso   1.000  C
  C5834    1.0000 0.27572  0.09129  0.78839  Biso   1.000  C
  C5835    1.0000 0.37635  0.11613  0.81491  Biso   1.000  C
  C5836    1.0000 0.85755  0.66944  0.83612  Biso   1.000  C
  C5837    1.0000 0.30383  0.15888  0.76035  Biso   1.000  C
  C5838    1.0000 0.32378  0.76773  0.33747  Biso   1.000  C
  C5839    1.0000 0.25584  0.81666  0.24360  Biso   1.000  C
  C5840    1.0000 0.96225  0.47335  0.08907  Biso   1.000  C
  C5841    1.0000 0.94007  0.39886  0.09915  Biso   1.000  C
  C5842    1.0000 0.99166  0.44586  0.15966  Biso   1.000  C
  C5843    1.0000 0.30750  0.27544  0.81960  Biso   1.000  C
  C5844    1.0000 0.24459  0.29004  0.73460  Biso   1.000  C
  C5845    1.0000 0.96319  0.97572  0.58309  Biso   1.000  C
  C5846    1.0000 0.94125  0.89861  0.59806  Biso   1.000  C
  C5847    1.0000 0.97861  0.94894  0.65234  Biso   1.000  C
  C5848    1.0000 0.82328  0.76769  0.83738  Biso   1.000  C
  C5849    1.0000 0.76327  0.80956  0.75059  Biso   1.000  C
  C5850    1.0000 0.46319  0.47412  0.58630  Biso   1.000  C
  C5851    1.0000 0.43975  0.39877  0.60202  Biso   1.000  C
  C5852    1.0000 0.48479  0.41806  0.66719  Biso   1.000  C
  C5853    1.0000 0.81572  0.26926  0.33787  Biso   1.000  C
  C5854    1.0000 0.74693  0.28958  0.23681  Biso   1.000  C
  C5855    1.0000 0.46298  0.97466  0.08533  Biso   1.000  C
  C5856    1.0000 0.44191  0.89847  0.09908  Biso   1.000  C
  C5857    1.0000 0.48281  0.94849  0.15384  Biso   1.000  C
  C5858    1.0000 0.31961  0.88882  0.63292  Biso   1.000  C
  C5859    1.0000 0.26121  0.94645  0.59258  Biso   1.000  C
  C5860    1.0000 0.36043  0.93974  0.37112  Biso   1.000  C
  C5861    1.0000 0.28710  0.47392  0.16381  Biso   1.000  C
  C5862    1.0000 0.31520  0.37408  0.13018  Biso   1.000  C
  C5863    1.0000 0.27233  0.43675  0.11175  Biso   1.000  C
  C5864    1.0000 0.78606  0.97496  0.16465  Biso   1.000  C
  C5865    1.0000 0.81419  0.86930  0.13421  Biso   1.000  C
  C5866    1.0000 0.76002  0.94491  0.09160  Biso   1.000  C
  C5867    1.0000 0.78600  0.47414  0.67172  Biso   1.000  C
  C5868    1.0000 0.81472  0.37481  0.62824  Biso   1.000  C
  C5869    1.0000 0.82495  0.90491  0.07663  Biso   1.000  C
  C5870    1.0000 0.77249  0.43611  0.61150  Biso   1.000  C
  C5871    1.0000 0.80966  0.97475  0.93243  Biso   1.000  C
  C5872    1.0000 0.43507  0.37688  0.13319  Biso   1.000  C
  C5873    1.0000 0.40545  0.85681  0.57337  Biso   1.000  C
  C5874    1.0000 0.49363  0.33562  0.09556  Biso   1.000  C
  C5875    1.0000 0.38852  0.31473  0.87061  Biso   1.000  C
  C5876    1.0000 0.81006  0.47381  0.43332  Biso   1.000  C
  C5877    1.0000 0.43574  0.87899  0.63483  Biso   1.000  C
  C5878    1.0000 0.48623  0.83298  0.58515  Biso   1.000  C
  C5879    1.0000 0.30932  0.97431  0.43281  Biso   1.000  C
  C5880    1.0000 0.24277  0.94770  0.52069  Biso   1.000  C
  C5881    1.0000 0.93440  0.37809  0.63380  Biso   1.000  C
  C5882    1.0000 0.91604  0.84556  0.09458  Biso   1.000  C
  C5883    1.0000 0.99284  0.33700  0.59688  Biso   1.000  C
  C5884    1.0000 0.31010  0.49480  0.91888  Biso   1.000  C
  C5885    1.0000 0.24203  0.44712  0.01986  Biso   1.000  C
  C5886    1.0000 0.93486  0.87938  0.13734  Biso   1.000  C
  C5887    1.0000 0.99490  0.83499  0.09648  Biso   1.000  C
  C5888    1.0000 0.81018  0.85049  0.59937  Biso   1.000  C
  C5889    1.0000 0.83634  0.35653  0.17176  Biso   1.000  C
  C5890    1.0000 0.75484  0.83385  0.65463  Biso   1.000  C
  C5891    1.0000 0.86509  0.83279  0.87487  Biso   1.000  C
  C5892    1.0000 0.50614  0.95900  0.23359  Biso   1.000  C
  C5893    1.0000 0.81408  0.37851  0.11557  Biso   1.000  C
  C5894    1.0000 0.83773  0.84357  0.65650  Biso   1.000  C
  C5895    1.0000 0.76195  0.30607  0.14127  Biso   1.000  C
  C5896    1.0000 0.92951  0.48260  0.33888  Biso   1.000  C
  C5897    1.0000 0.00756  0.44710  0.23130  Biso   1.000  C
  C5898    1.0000 0.32445  0.86970  0.08991  Biso   1.000  C
  C5899    1.0000 0.25906  0.83894  0.15338  Biso   1.000  C
  C5900    1.0000 0.36539  0.83249  0.37489  Biso   1.000  C
  C5901    1.0000 0.93684  0.98062  0.83332  Biso   1.000  C
  C5902    1.0000 0.32242  0.37125  0.59201  Biso   1.000  C
  C5903    1.0000 0.33627  0.85475  0.16717  Biso   1.000  C
  C5904    1.0000 0.25594  0.33377  0.65463  Biso   1.000  C
  C5905    1.0000 0.01177  0.49966  0.69763  Biso   1.000  C
  C5906    1.0000 0.69040  0.33723  0.11439  Biso   1.000  C
  C5907    1.0000 0.66320  0.92183  0.60643  Biso   1.000  C
  C5908    1.0000 0.73363  0.40010  0.08784  Biso   1.000  C
  C5909    1.0000 0.71266  0.84195  0.52681  Biso   1.000  C
  C5910    1.0000 0.68990  0.85078  0.60093  Biso   1.000  C
  C5911    1.0000 0.74468  0.90413  0.58607  Biso   1.000  C
  C5912    1.0000 0.50138  0.48895  0.18319  Biso   1.000  C
  C5913    1.0000 0.18980  0.35062  0.60114  Biso   1.000  C
  C5914    1.0000 0.24208  0.40389  0.58812  Biso   1.000  C
  C5915    1.0000 0.49354  0.98410  0.68593  Biso   1.000  C
  C5916    1.0000 0.21404  0.83647  0.02537  Biso   1.000  C
  C5917    1.0000 0.19113  0.85156  0.09984  Biso   1.000  C
  C5918    1.0000 0.16056  0.42298  0.60756  Biso   1.000  C
  C5919    1.0000 0.24883  0.90378  0.08007  Biso   1.000  C
  C5920    1.0000 0.75712  0.76584  0.20611  Biso   1.000  C
  C5921    1.0000 0.07449  0.90779  0.61163  Biso   1.000  C
  C5922    1.0000 0.00902  0.85854  0.55842  Biso   1.000  C
  C5923    1.0000 0.75652  0.26683  0.70703  Biso   1.000  C
  C5924    1.0000 0.05219  0.42838  0.04151  Biso   1.000  C
  C5925    1.0000 0.06575  0.38278  0.12735  Biso   1.000  C
  C5926    1.0000 0.08204  0.83347  0.60586  Biso   1.000  C
  C5927    1.0000 0.00543  0.34566  0.08551  Biso   1.000  C
  C5928    1.0000 0.25776  0.76926  0.69591  Biso   1.000  C
  C5929    1.0000 0.57109  0.90582  0.12590  Biso   1.000  C
  C5930    1.0000 0.50492  0.85526  0.05988  Biso   1.000  C
  C5931    1.0000 0.25710  0.26660  0.20774  Biso   1.000  C
  C5932    1.0000 0.55028  0.42726  0.54108  Biso   1.000  C
  C5933    1.0000 0.56566  0.39100  0.63231  Biso   1.000  C
  C5934    1.0000 0.50656  0.34542  0.58752  Biso   1.000  C
  C5935    1.0000 0.49151  0.26749  0.54386  Biso   1.000  C
  C5936    1.0000 0.18423  0.37885  0.13060  Biso   1.000  C
  C5937    1.0000 0.23577  0.33378  0.16918  Biso   1.000  C
  C5938    1.0000 0.13570  0.12590  0.16843  Biso   1.000  C
  C5939    1.0000 0.49232  0.76807  0.04453  Biso   1.000  C
  C5940    1.0000 0.19539  0.92831  0.70700  Biso   1.000  C
  C5941    1.0000 0.18553  0.87942  0.62356  Biso   1.000  C
  C5942    1.0000 0.16102  0.32493  0.14243  Biso   1.000  C
  C5943    1.0000 0.22448  0.85887  0.67501  Biso   1.000  C
  C5944    1.0000 0.64233  0.61833  0.18283  Biso   1.000  C
  C5945    1.0000 0.68358  0.37818  0.62997  Biso   1.000  C
  C5946    1.0000 0.65651  0.82281  0.14344  Biso   1.000  C
  C5947    1.0000 0.73514  0.33333  0.66850  Biso   1.000  C
  C5948    1.0000 0.63987  0.12190  0.67673  Biso   1.000  C
  C5949    1.0000 0.99042  0.76818  0.54409  Biso   1.000  C
  C5950    1.0000 0.69755  0.92692  0.20885  Biso   1.000  C
  C5951    1.0000 0.67569  0.90765  0.13401  Biso   1.000  C
  C5952    1.0000 0.65940  0.32442  0.64212  Biso   1.000  C
  C5953    1.0000 0.74370  0.85451  0.18997  Biso   1.000  C
  C5954    1.0000 0.23808  0.00022  0.05412  Biso   1.000  C
  C5955    1.0000 0.56557  0.87223  0.63142  Biso   1.000  C
  C5956    1.0000 0.52505  0.88975  0.67949  Biso   1.000  C
  C5957    1.0000 0.18460  0.58333  0.50282  Biso   1.000  C
  C5958    1.0000 0.24783  0.49128  0.56721  Biso   1.000  C
  C5959    1.0000 0.53888  0.34126  0.22225  Biso   1.000  C
  C5960    1.0000 0.55981  0.33781  0.13747  Biso   1.000  C
  C5961    1.0000 0.58940  0.92603  0.64173  Biso   1.000  C
  C5962    1.0000 0.50540  0.40236  0.16579  Biso   1.000  C
  C5963    1.0000 0.74255  0.99628  0.56355  Biso   1.000  C
  C5964    1.0000 0.04075  0.84394  0.22158  Biso   1.000  C
  C5965    1.0000 0.06512  0.86430  0.12048  Biso   1.000  C
  C5966    1.0000 0.00475  0.90287  0.16397  Biso   1.000  C
  C5967    1.0000 0.74954  0.48899  0.06805  Biso   1.000  C
  C5968    1.0000 0.03854  0.34171  0.72303  Biso   1.000  C
  C5969    1.0000 0.06408  0.36534  0.62251  Biso   1.000  C
  C5970    1.0000 0.08806  0.92238  0.14083  Biso   1.000  C
  C5971    1.0000 0.00337  0.40374  0.66855  Biso   1.000  C
  C5972    1.0000 0.83671  0.72493  0.53784  Biso   1.000  C
  C5973    1.0000 0.85379  0.62143  0.55080  Biso   1.000  C
  C5974    1.0000 0.89402  0.68886  0.50512  Biso   1.000  C
  C5975    1.0000 0.81791  0.21593  0.04445  Biso   1.000  C
  C5976    1.0000 0.86533  0.13726  0.05255  Biso   1.000  C
  C5977    1.0000 0.90373  0.16520  0.00349  Biso   1.000  C
  C5978    1.0000 0.12707  0.18384  0.10991  Biso   1.000  C
  C5979    1.0000 0.33886  0.72530  0.03585  Biso   1.000  C
  C5980    1.0000 0.36611  0.63724  0.05292  Biso   1.000  C
  C5981    1.0000 0.39557  0.69025  0.00389  Biso   1.000  C
  C5982    1.0000 0.31728  0.21608  0.54553  Biso   1.000  C
  C5983    1.0000 0.34228  0.13353  0.57537  Biso   1.000  C
  C5984    1.0000 0.41560  0.16695  0.51519  Biso   1.000  C
  C5985    1.0000 0.16281  0.51972  0.56571  Biso   1.000  C
  C5986    1.0000 0.26910  0.55136  0.49188  Biso   1.000  C
  C5987    1.0000 0.43057  0.20733  0.19587  Biso   1.000  C
  C5988    1.0000 0.40525  0.13028  0.17775  Biso   1.000  C
  C5989    1.0000 0.34395  0.17642  0.21943  Biso   1.000  C
  C5990    1.0000 0.26564  0.04149  0.99354  Biso   1.000  C
  C5991    1.0000 0.40637  0.63042  0.67794  Biso   1.000  C
  C5992    1.0000 0.34574  0.69818  0.73107  Biso   1.000  C
  C5993    1.0000 0.75080  0.54378  0.01020  Biso   1.000  C
  C5994    1.0000 0.93046  0.20907  0.69655  Biso   1.000  C
  C5995    1.0000 0.90595  0.13115  0.67789  Biso   1.000  C
  C5996    1.0000 0.84370  0.17687  0.71945  Biso   1.000  C
  C5997    1.0000 0.75190  0.04422  0.50906  Biso   1.000  C
  C5998    1.0000 0.93155  0.70805  0.19720  Biso   1.000  C
  C5999    1.0000 0.90705  0.63007  0.17780  Biso   1.000  C
  C6000    1.0000 0.84246  0.69475  0.23714  Biso   1.000  C
  C6001    1.0000 0.66955  0.24525  0.69037  Biso   1.000  C
  C6002    1.0000 0.88322  0.62586  0.06532  Biso   1.000  C
  C6003    1.0000 0.32351  0.10597  0.09240  Biso   1.000  C
  C6004    1.0000 0.83739  0.55835  0.00556  Biso   1.000  C
  C6005    1.0000 0.66683  0.74540  0.18503  Biso   1.000  C
  C6006    1.0000 0.75123  0.70686  0.23918  Biso   1.000  C
  C6007    1.0000 0.88576  0.12994  0.56477  Biso   1.000  C
  C6008    1.0000 0.33809  0.60242  0.58374  Biso   1.000  C
  C6009    1.0000 0.85826  0.07783  0.52601  Biso   1.000  C
  C6010    1.0000 0.16754  0.24656  0.18584  Biso   1.000  C
  C6011    1.0000 0.38754  0.63080  0.56522  Biso   1.000  C
  C6012    1.0000 0.82463  0.10673  0.59217  Biso   1.000  C
  C6013    1.0000 0.35634  0.55848  0.50527  Biso   1.000  C
  C6014    1.0000 0.16643  0.74534  0.68530  Biso   1.000  C
  C6015    1.0000 0.25155  0.70656  0.73939  Biso   1.000  C
  C6016    1.0000 0.38488  0.12880  0.06455  Biso   1.000  C
  C6017    1.0000 0.35747  0.07853  0.02627  Biso   1.000  C
  C6018    1.0000 0.33476  0.02445  0.71469  Biso   1.000  C
  C6019    1.0000 0.40916  0.05636  0.74302  Biso   1.000  C
  C6020    1.0000 0.12850  0.06253  0.14216  Biso   1.000  C
  C6021    1.0000 0.49809  0.20514  0.50965  Biso   1.000  C
  C6022    1.0000 0.32725  0.52540  0.21375  Biso   1.000  C
  C6023    1.0000 0.36988  0.62548  0.18505  Biso   1.000  C
  C6024    1.0000 0.90588  0.09442  0.16429  Biso   1.000  C
  C6025    1.0000 0.39153  0.57300  0.22476  Biso   1.000  C
  C6026    1.0000 0.86478  0.12931  0.18515  Biso   1.000  C
  C6027    1.0000 0.89126  0.05863  0.23927  Biso   1.000  C
  C6028    1.0000 0.62762  0.06287  0.64077  Biso   1.000  C
  C6029    1.0000 0.83940  0.52605  0.71169  Biso   1.000  C
  C6030    1.0000 0.86804  0.62722  0.68615  Biso   1.000  C
  C6031    1.0000 0.89247  0.57712  0.72499  Biso   1.000  C
  C6032    1.0000 0.50400  0.56067  0.16694  Biso   1.000  C
  C6033    1.0000 0.12883  0.19402  0.40892  Biso   1.000  C
  C6034    1.0000 0.66345  0.17495  0.83331  Biso   1.000  C
  C6035    1.0000 0.17400  0.24948  0.34780  Biso   1.000  C
  C6036    1.0000 0.51843  0.06605  0.66362  Biso   1.000  C
  C6037    1.0000 0.13746  0.69142  0.91207  Biso   1.000  C
  C6038    1.0000 0.65311  0.67268  0.32254  Biso   1.000  C
  C6039    1.0000 0.16460  0.74334  0.84670  Biso   1.000  C
  C6040    1.0000 0.01830  0.56747  0.66289  Biso   1.000  C
  C6041    1.0000 0.63581  0.19154  0.91199  Biso   1.000  C
  C6042    1.0000 0.15232  0.17339  0.32225  Biso   1.000  C
  C6043    1.0000 0.66534  0.24379  0.84632  Biso   1.000  C
  C6044    1.0000 0.01897  0.06772  0.16271  Biso   1.000  C
  C6045    1.0000 0.64105  0.69008  0.41120  Biso   1.000  C
  C6046    1.0000 0.14621  0.66617  0.83596  Biso   1.000  C
  C6047    1.0000 0.66643  0.74407  0.34786  Biso   1.000  C
  C6048    1.0000 0.19118  0.60964  0.62889  Biso   1.000  C
  C6049    1.0000 0.00414  0.18942  0.08178  Biso   1.000  C
  C6050    1.0000 0.06531  0.24816  0.98957  Biso   1.000  C
  C6051    1.0000 0.70958  0.55174  0.81967  Biso   1.000  C
  C6052    1.0000 0.63824  0.57477  0.84252  Biso   1.000  C
  C6053    1.0000 0.69540  0.50942  0.90798  Biso   1.000  C
  C6054    1.0000 0.18808  0.10965  0.13031  Biso   1.000  C
  C6055    1.0000 0.01707  0.68054  0.58769  Biso   1.000  C
  C6056    1.0000 0.71008  0.05191  0.31999  Biso   1.000  C
  C6057    1.0000 0.63937  0.07499  0.34197  Biso   1.000  C
  C6058    1.0000 0.69483  0.00923  0.40847  Biso   1.000  C
  C6059    1.0000 0.69184  0.60962  0.12927  Biso   1.000  C
  C6060    1.0000 0.50310  0.18794  0.58062  Biso   1.000  C
  C6061    1.0000 0.21058  0.55146  0.32046  Biso   1.000  C
  C6062    1.0000 0.13732  0.57478  0.34228  Biso   1.000  C
  C6063    1.0000 0.19672  0.51459  0.40664  Biso   1.000  C
  C6064    1.0000 0.68657  0.10863  0.63021  Biso   1.000  C
  C6065    1.0000 0.50650  0.69152  0.07770  Biso   1.000  C
  C6066    1.0000 0.20708  0.05544  0.82322  Biso   1.000  C
  C6067    1.0000 0.13121  0.07372  0.83961  Biso   1.000  C
  C6068    1.0000 0.16370  0.01310  0.89994  Biso   1.000  C
  C6069    1.0000 0.73003  0.06387  0.58387  Biso   1.000  C
  C6070    1.0000 0.04201  0.69558  0.32271  Biso   1.000  C
  C6071    1.0000 0.12112  0.67798  0.34094  Biso   1.000  C
  C6072    1.0000 0.58780  0.67418  0.91686  Biso   1.000  C
  C6073    1.0000 0.05528  0.74213  0.40986  Biso   1.000  C
  C6074    1.0000 0.72532  0.55656  0.07067  Biso   1.000  C
  C6075    1.0000 0.11266  0.19166  0.83971  Biso   1.000  C
  C6076    1.0000 0.58575  0.17327  0.41623  Biso   1.000  C
  C6077    1.0000 0.08509  0.24384  0.90381  Biso   1.000  C
  C6078    1.0000 0.23024  0.06409  0.08464  Biso   1.000  C
  C6079    1.0000 0.54257  0.69585  0.82281  Biso   1.000  C
  C6080    1.0000 0.62304  0.67778  0.84196  Biso   1.000  C
  C6081    1.0000 0.08836  0.67515  0.41680  Biso   1.000  C
  C6082    1.0000 0.55622  0.74186  0.91008  Biso   1.000  C
  C6083    1.0000 0.61480  0.19230  0.33850  Biso   1.000  C
  C6084    1.0000 0.09622  0.17142  0.92763  Biso   1.000  C
  C6085    1.0000 0.58488  0.24336  0.40448  Biso   1.000  C
  C6086    1.0000 0.22839  0.68903  0.67442  Biso   1.000  C
  C6087    1.0000 0.63158  0.06533  0.88988  Biso   1.000  C
  C6088    1.0000 0.10230  0.08303  0.33737  Biso   1.000  C
  C6089    1.0000 0.58596  0.00502  0.84659  Biso   1.000  C
  C6090    1.0000 0.06608  0.60818  0.62001  Biso   1.000  C
  C6091    1.0000 0.22719  0.19076  0.17348  Biso   1.000  C
  C6092    1.0000 0.61913  0.57271  0.40830  Biso   1.000  C
  C6093    1.0000 0.10550  0.59664  0.82275  Biso   1.000  C
  C6094    1.0000 0.55479  0.51054  0.34243  Biso   1.000  C
  C6095    1.0000 0.72755  0.68959  0.17513  Biso   1.000  C
  C6096    1.0000 0.13198  0.06482  0.38687  Biso   1.000  C
  C6097    1.0000 0.60758  0.08878  0.82659  Biso   1.000  C
  C6098    1.0000 0.08635  0.00663  0.34599  Biso   1.000  C
  C6099    1.0000 0.72802  0.19127  0.66947  Biso   1.000  C
  C6100    1.0000 0.11213  0.57528  0.90471  Biso   1.000  C
  C6101    1.0000 0.13102  0.56500  0.88649  Biso   1.000  C
  C6102    1.0000 0.60679  0.58665  0.33094  Biso   1.000  C
  C6103    1.0000 0.06092  0.52979  0.84828  Biso   1.000  C
  C6104    1.0000 0.12582  0.11290  0.05644  Biso   1.000  C
  C6105    1.0000 0.66917  0.69018  0.24584  Biso   1.000  C
  C6106    1.0000 0.92833  0.05492  0.54325  Biso   1.000  C
  C6107    1.0000 0.90776  0.07234  0.61932  Biso   1.000  C
  C6108    1.0000 0.84691  0.02730  0.55824  Biso   1.000  C
  C6109    1.0000 0.12737  0.61795  0.55570  Biso   1.000  C
  C6110    1.0000 0.66788  0.17655  0.74805  Biso   1.000  C
  C6111    1.0000 0.92497  0.55530  0.04375  Biso   1.000  C
  C6112    1.0000 0.90862  0.57169  0.11970  Biso   1.000  C
  C6113    1.0000 0.84670  0.52042  0.05294  Biso   1.000  C
  C6114    1.0000 0.62640  0.11481  0.55599  Biso   1.000  C
  C6115    1.0000 0.16431  0.68029  0.73273  Biso   1.000  C
  C6116    1.0000 0.42523  0.05633  0.04507  Biso   1.000  C
  C6117    1.0000 0.40675  0.07166  0.11964  Biso   1.000  C
  C6118    1.0000 0.34676  0.02723  0.05738  Biso   1.000  C
  C6119    1.0000 0.62901  0.61605  0.05581  Biso   1.000  C
  C6120    1.0000 0.16981  0.19208  0.24496  Biso   1.000  C
  C6121    1.0000 0.42938  0.55387  0.54181  Biso   1.000  C
  C6122    1.0000 0.40754  0.57173  0.62046  Biso   1.000  C
  C6123    1.0000 0.83087  0.58458  0.10689  Biso   1.000  C
  C6124    1.0000 0.34697  0.52704  0.55747  Biso   1.000  C
  C6125    1.0000 0.58081  0.06158  0.72841  Biso   1.000  C
  C6126    1.0000 0.34089  0.68867  0.10742  Biso   1.000  C
  C6127    1.0000 0.93080  0.67104  0.59668  Biso   1.000  C
  C6128    1.0000 0.40311  0.74459  0.08275  Biso   1.000  C
  C6129    1.0000 0.58361  0.56330  0.24686  Biso   1.000  C
  C6130    1.0000 0.34440  0.18978  0.60118  Biso   1.000  C
  C6131    1.0000 0.93585  0.16297  0.09559  Biso   1.000  C
  C6132    1.0000 0.40290  0.24474  0.58278  Biso   1.000  C
  C6133    1.0000 0.08443  0.08033  0.23478  Biso   1.000  C
  C6134    1.0000 0.84087  0.69028  0.61216  Biso   1.000  C
  C6135    1.0000 0.43076  0.67112  0.09712  Biso   1.000  C
  C6136    1.0000 0.90188  0.74814  0.57703  Biso   1.000  C
  C6137    1.0000 0.08296  0.56100  0.72817  Biso   1.000  C
  C6138    1.0000 0.83832  0.19046  0.11110  Biso   1.000  C
  C6139    1.0000 0.41489  0.17493  0.58537  Biso   1.000  C
  C6140    1.0000 0.90193  0.24094  0.08673  Biso   1.000  C
  C6141    1.0000 0.07940  0.18772  0.02146  Biso   1.000  C
  C6142    1.0000 0.98111  0.25675  0.04398  Biso   1.000  C
  C6143    1.0000 0.84423  0.57091  0.62496  Biso   1.000  C
  C6144    1.0000 0.42225  0.58737  0.14293  Biso   1.000  C
  C6145    1.0000 0.90263  0.52709  0.69155  Biso   1.000  C
  C6146    1.0000 0.08769  0.67663  0.51874  Biso   1.000  C
  C6147    1.0000 0.81991  0.05180  0.21023  Biso   1.000  C
  C6148    1.0000 0.84147  0.07421  0.13521  Biso   1.000  C
  C6149    1.0000 0.42461  0.09274  0.64345  Biso   1.000  C
  C6150    1.0000 0.90978  0.00931  0.19319  Biso   1.000  C
  C6151    1.0000 0.13028  0.60798  0.67329  Biso   1.000  C
  C6152    1.0000 0.58547  0.17233  0.51729  Biso   1.000  C
  C6153    1.0000 0.34450  0.57012  0.12519  Biso   1.000  C
  C6154    1.0000 0.91887  0.58430  0.64337  Biso   1.000  C
  C6155    1.0000 0.40552  0.51727  0.19749  Biso   1.000  C
  C6156    1.0000 0.58790  0.67427  0.01784  Biso   1.000  C
  C6157    1.0000 0.36621  0.06474  0.62422  Biso   1.000  C
  C6158    1.0000 0.38914  0.02675  0.67861  Biso   1.000  C
  C6159    1.0000 0.39802  0.19029  0.14909  Biso   1.000  C
  C6160    1.0000 0.82765  0.17602  0.65523  Biso   1.000  C
  C6161    1.0000 0.34707  0.24881  0.17299  Biso   1.000  C
  C6162    1.0000 0.16275  0.06295  0.02056  Biso   1.000  C
  C6163    1.0000 0.43135  0.69999  0.70999  Biso   1.000  C
  C6164    1.0000 0.39474  0.67525  0.64547  Biso   1.000  C
  C6165    1.0000 0.84022  0.66546  0.14999  Biso   1.000  C
  C6166    1.0000 0.33887  0.74399  0.69211  Biso   1.000  C
  C6167    1.0000 0.66361  0.56366  0.02022  Biso   1.000  C
  C6168    1.0000 0.89834  0.19089  0.64909  Biso   1.000  C
  C6169    1.0000 0.32774  0.17582  0.15494  Biso   1.000  C
  C6170    1.0000 0.84636  0.24903  0.67216  Biso   1.000  C
  C6171    1.0000 0.66416  0.06266  0.51997  Biso   1.000  C
  C6172    1.0000 0.89937  0.68967  0.14958  Biso   1.000  C
  C6173    1.0000 0.33403  0.67477  0.66269  Biso   1.000  C
  C6174    1.0000 0.84750  0.74838  0.17272  Biso   1.000  C
  C6175    1.0000 0.06377  0.11834  0.10897  Biso   1.000  C
  C6176    1.0000 0.19943  0.76908  0.75678  Biso   1.000  C
  C6177    1.0000 0.54100  0.93148  0.05001  Biso   1.000  C
  C6178    1.0000 0.60699  0.90189  0.07531  Biso   1.000  C
  C6179    1.0000 0.10559  0.32888  0.08688  Biso   1.000  C
  C6180    1.0000 0.55818  0.85781  0.01204  Biso   1.000  C
  C6181    1.0000 0.19956  0.27002  0.25912  Biso   1.000  C
  C6182    1.0000 0.62924  0.38289  0.56321  Biso   1.000  C
  C6183    1.0000 0.58056  0.33326  0.51683  Biso   1.000  C
  C6184    1.0000 0.56322  0.11934  0.61005  Biso   1.000  C
  C6185    1.0000 0.69851  0.76950  0.25809  Biso   1.000  C
  C6186    1.0000 0.04064  0.93153  0.54968  Biso   1.000  C
  C6187    1.0000 0.12501  0.87984  0.56392  Biso   1.000  C
  C6188    1.0000 0.59344  0.34229  0.58556  Biso   1.000  C
  C6189    1.0000 0.08249  0.84526  0.50537  Biso   1.000  C
  C6190    1.0000 0.56420  0.61913  0.10991  Biso   1.000  C
  C6191    1.0000 0.69833  0.26972  0.75844  Biso   1.000  C
  C6192    1.0000 0.13223  0.38547  0.06411  Biso   1.000  C
  C6193    1.0000 0.59573  0.84207  0.08538  Biso   1.000  C
  C6194    1.0000 0.08228  0.33305  0.01841  Biso   1.000  C
  C6195    1.0000 0.68490  0.49475  0.00746  Biso   1.000  C
  C6196    1.0000 0.12274  0.37079  0.68576  Biso   1.000  C
  C6197    1.0000 0.07281  0.38928  0.72552  Biso   1.000  C
  C6198    1.0000 0.69423  0.00082  0.51185  Biso   1.000  C
  C6199    1.0000 0.12806  0.86858  0.18471  Biso   1.000  C
  C6200    1.0000 0.59754  0.42975  0.17314  Biso   1.000  C
  C6201    1.0000 0.08666  0.90229  0.23687  Biso   1.000  C
  C6202    1.0000 0.24582  0.58070  0.56002  Biso   1.000  C
  C6203    1.0000 0.18209  0.49067  0.50218  Biso   1.000  C
  C6204    1.0000 0.60179  0.34818  0.19211  Biso   1.000  C
  C6205    1.0000 0.58488  0.39631  0.23385  Biso   1.000  C
  C6206    1.0000 0.18331  0.99442  0.00607  Biso   1.000  C
  C6207    1.0000 0.52574  0.83310  0.71489  Biso   1.000  C
  C6208    1.0000 0.62539  0.87147  0.68591  Biso   1.000  C
  C6209    1.0000 0.09653  0.42947  0.67299  Biso   1.000  C
  C6210    1.0000 0.57751  0.90328  0.74895  Biso   1.000  C
  C6211    1.0000 0.06460  0.99848  0.23860  Biso   1.000  C
  C6212    1.0000 0.63750  0.83947  0.56046  Biso   1.000  C
  C6213    1.0000 0.66508  0.90329  0.50682  Biso   1.000  C
  C6214    1.0000 0.06491  0.48251  0.75730  Biso   1.000  C
  C6215    1.0000 0.72168  0.34353  0.03935  Biso   1.000  C
  C6216    1.0000 0.65025  0.34911  0.06053  Biso   1.000  C
  C6217    1.0000 0.14592  0.92774  0.09553  Biso   1.000  C
  C6218    1.0000 0.66349  0.40278  0.00698  Biso   1.000  C
  C6219    1.0000 0.56681  0.98898  0.74853  Biso   1.000  C
  C6220    1.0000 0.13644  0.83903  0.05763  Biso   1.000  C
  C6221    1.0000 0.64333  0.42165  0.08916  Biso   1.000  C
  C6222    1.0000 0.18945  0.89520  0.00173  Biso   1.000  C
  C6223    1.0000 0.56446  0.48355  0.25493  Biso   1.000  C
  C6224    1.0000 0.22459  0.33725  0.53735  Biso   1.000  C
  C6225    1.0000 0.13581  0.33882  0.55963  Biso   1.000  C
  C6226    1.0000 0.17109  0.40215  0.50218  Biso   1.000  C
  C6227    1.0000 0.54178  0.26328  0.49610  Biso   1.000  C
  C6228    1.0000 0.20857  0.42912  0.19761  Biso   1.000  C
  C6229    1.0000 0.12542  0.37996  0.18590  Biso   1.000  C
  C6230    1.0000 0.16811  0.34604  0.24773  Biso   1.000  C
  C6231    1.0000 0.54121  0.76301  0.99803  Biso   1.000  C
  C6232    1.0000 0.13282  0.90721  0.67658  Biso   1.000  C
  C6233    1.0000 0.17183  0.84588  0.74879  Biso   1.000  C
  C6234    1.0000 0.70858  0.42922  0.69682  Biso   1.000  C
  C6235    1.0000 0.62441  0.38075  0.68514  Biso   1.000  C
  C6236    1.0000 0.14323  0.83430  0.66629  Biso   1.000  C
  C6237    1.0000 0.66737  0.34624  0.74676  Biso   1.000  C
  C6238    1.0000 0.04032  0.76364  0.49750  Biso   1.000  C
  C6239    1.0000 0.64533  0.89224  0.17684  Biso   1.000  C
  C6240    1.0000 0.66726  0.84537  0.24505  Biso   1.000  C
  C6241    1.0000 0.73977  0.20574  0.75125  Biso   1.000  C
  C6242    1.0000 0.05186  0.54173  0.93320  Biso   1.000  C
  C6243    1.0000 0.07345  0.61993  0.91054  Biso   1.000  C
  C6244    1.0000 0.00576  0.55869  0.85675  Biso   1.000  C
  C6245    1.0000 0.11518  0.58242  0.62696  Biso   1.000  C
  C6246    1.0000 0.03659  0.02357  0.41274  Biso   1.000  C
  C6247    1.0000 0.06043  0.10434  0.40729  Biso   1.000  C
  C6248    1.0000 0.01500  0.05148  0.34458  Biso   1.000  C
  C6249    1.0000 0.23933  0.20511  0.25032  Biso   1.000  C
  C6250    1.0000 0.53984  0.52853  0.40744  Biso   1.000  C
  C6251    1.0000 0.56595  0.62685  0.38374  Biso   1.000  C
  C6252    1.0000 0.50543  0.58376  0.34693  Biso   1.000  C
  C6253    1.0000 0.61474  0.58268  0.12762  Biso   1.000  C
  C6254    1.0000 0.53601  0.02368  0.91368  Biso   1.000  C
  C6255    1.0000 0.57173  0.11883  0.90586  Biso   1.000  C
  C6256    1.0000 0.52763  0.05728  0.84805  Biso   1.000  C
  C6257    1.0000 0.05853  0.74551  0.58396  Biso   1.000  C
  C6258    1.0000 0.01040  0.70751  0.49796  Biso   1.000  C
  C6259    1.0000 0.68616  0.12709  0.36810  Biso   1.000  C
  C6260    1.0000 0.65238  0.60409  0.92770  Biso   1.000  C
  C6261    1.0000 0.72379  0.07440  0.39071  Biso   1.000  C
  C6262    1.0000 0.06205  0.24391  0.08127  Biso   1.000  C
  C6263    1.0000 0.68620  0.62710  0.86750  Biso   1.000  C
  C6264    1.0000 0.65162  0.10429  0.42743  Biso   1.000  C
  C6265    1.0000 0.72327  0.57349  0.89092  Biso   1.000  C
  C6266    1.0000 0.56396  0.74524  0.08511  Biso   1.000  C
  C6267    1.0000 0.51100  0.70760  0.99820  Biso   1.000  C
  C6268    1.0000 0.18515  0.13242  0.85913  Biso   1.000  C
  C6269    1.0000 0.16613  0.60337  0.41278  Biso   1.000  C
  C6270    1.0000 0.22327  0.07311  0.89078  Biso   1.000  C
  C6271    1.0000 0.56299  0.24531  0.58355  Biso   1.000  C
  C6272    1.0000 0.18626  0.63108  0.36368  Biso   1.000  C
  C6273    1.0000 0.15937  0.10665  0.92224  Biso   1.000  C
  C6274    1.0000 0.22446  0.57155  0.39071  Biso   1.000  C
  C6275    1.0000 0.18258  0.01672  0.08818  Biso   1.000  C
  C6276    1.0000 0.57482  0.64504  0.85424  Biso   1.000  C
  C6277    1.0000 0.51183  0.69411  0.90884  Biso   1.000  C
  C6278    1.0000 0.54657  0.21522  0.31869  Biso   1.000  C
  C6279    1.0000 0.57554  0.14135  0.34586  Biso   1.000  C
  C6280    1.0000 0.50344  0.18619  0.41388  Biso   1.000  C
  C6281    1.0000 0.68159  0.01786  0.58825  Biso   1.000  C
  C6282    1.0000 0.07475  0.64486  0.35480  Biso   1.000  C
  C6283    1.0000 0.01141  0.69417  0.40917  Biso   1.000  C
  C6284    1.0000 0.68092  0.51732  0.08873  Biso   1.000  C
  C6285    1.0000 0.04568  0.21621  0.81868  Biso   1.000  C
  C6286    1.0000 0.05052  0.12234  0.85115  Biso   1.000  C
  C6287    1.0000 0.00620  0.16391  0.90236  Biso   1.000  C
  C6288    1.0000 0.13442  0.69364  0.62881  Biso   1.000  C
  C6289    1.0000 0.56528  0.51875  0.16655  Biso   1.000  C
  C6290    1.0000 0.49595  0.54290  0.26601  Biso   1.000  C
  C6291    1.0000 0.19952  0.20926  0.43203  Biso   1.000  C
  C6292    1.0000 0.17584  0.14530  0.39326  Biso   1.000  C
  C6293    1.0000 0.23171  0.16666  0.33405  Biso   1.000  C
  C6294    1.0000 0.55871  0.02577  0.68364  Biso   1.000  C
  C6295    1.0000 0.49526  0.04254  0.76600  Biso   1.000  C
  C6296    1.0000 0.20450  0.71456  0.93143  Biso   1.000  C
  C6297    1.0000 0.19109  0.65023  0.89748  Biso   1.000  C
  C6298    1.0000 0.23651  0.69745  0.84461  Biso   1.000  C
  C6299    1.0000 0.63406  0.69297  0.12782  Biso   1.000  C
  C6300    1.0000 0.07696  0.51512  0.66481  Biso   1.000  C
  C6301    1.0000 0.99914  0.53855  0.76371  Biso   1.000  C
  C6302    1.0000 0.70360  0.21475  0.93195  Biso   1.000  C
  C6303    1.0000 0.67401  0.14052  0.90196  Biso   1.000  C
  C6304    1.0000 0.73395  0.16783  0.83351  Biso   1.000  C
  C6305    1.0000 0.63744  0.18937  0.62148  Biso   1.000  C
  C6306    1.0000 0.05869  0.02548  0.18351  Biso   1.000  C
  C6307    1.0000 0.99402  0.04102  0.26549  Biso   1.000  C
  C6308    1.0000 0.71416  0.72631  0.41262  Biso   1.000  C
  C6309    1.0000 0.69994  0.63191  0.38448  Biso   1.000  C
  C6310    1.0000 0.74537  0.69236  0.35489  Biso   1.000  C
  C6311    1.0000 0.36570  0.87638  0.44354  Biso   1.000  C
  C6312    1.0000 0.99906  0.50830  0.31655  Biso   1.000  C
  C6313    1.0000 0.29582  0.68107  0.96538  Biso   1.000  C
  C6314    1.0000 0.32508  0.64286  0.89553  Biso   1.000  C
  C6315    1.0000 0.33855  0.07693  0.39264  Biso   1.000  C
  C6316    1.0000 0.25751  0.59630  0.91220  Biso   1.000  C
  C6317    1.0000 0.36049  0.36980  0.93666  Biso   1.000  C
  C6318    1.0000 0.99843  0.01029  0.81642  Biso   1.000  C
  C6319    1.0000 0.31494  0.13960  0.36764  Biso   1.000  C
  C6320    1.0000 0.25695  0.09642  0.41332  Biso   1.000  C
  C6321    1.0000 0.86540  0.87664  0.94417  Biso   1.000  C
  C6322    1.0000 0.43337  0.41995  0.75409  Biso   1.000  C
  C6323    1.0000 0.49866  0.50898  0.81547  Biso   1.000  C
  C6324    1.0000 0.79847  0.68298  0.46321  Biso   1.000  C
  C6325    1.0000 0.81055  0.66313  0.38625  Biso   1.000  C
  C6326    1.0000 0.83794  0.07715  0.89284  Biso   1.000  C
  C6327    1.0000 0.75473  0.60526  0.43719  Biso   1.000  C
  C6328    1.0000 0.49991  0.00975  0.31612  Biso   1.000  C
  C6329    1.0000 0.81456  0.13993  0.86782  Biso   1.000  C
  C6330    1.0000 0.75658  0.09633  0.91353  Biso   1.000  C
  C6331    1.0000 0.93594  0.11618  0.37295  Biso   1.000  C
  C6332    1.0000 0.91208  0.67072  0.89361  Biso   1.000  C
  C6333    1.0000 0.98875  0.15707  0.44414  Biso   1.000  C
  C6334    1.0000 0.94772  0.57018  0.95964  Biso   1.000  C
  C6335    1.0000 0.93615  0.61415  0.86993  Biso   1.000  C
  C6336    1.0000 0.98256  0.66619  0.91803  Biso   1.000  C
  C6337    1.0000 0.46440  0.08492  0.97540  Biso   1.000  C
  C6338    1.0000 0.43379  0.12029  0.88215  Biso   1.000  C
  C6339    1.0000 0.41541  0.66637  0.39762  Biso   1.000  C
  C6340    1.0000 0.48084  0.15365  0.94657  Biso   1.000  C
  C6341    1.0000 0.44900  0.57125  0.46001  Biso   1.000  C
  C6342    1.0000 0.43597  0.61296  0.36847  Biso   1.000  C
  C6343    1.0000 0.48283  0.66611  0.41964  Biso   1.000  C
  C6344    1.0000 0.81420  0.61630  0.87827  Biso   1.000  C
  C6345    1.0000 0.82747  0.17819  0.34913  Biso   1.000  C
  C6346    1.0000 0.77535  0.66210  0.83129  Biso   1.000  C
  C6347    1.0000 0.49979  0.23825  0.93257  Biso   1.000  C
  C6348    1.0000 0.80182  0.07110  0.29067  Biso   1.000  C
  C6349    1.0000 0.81453  0.11733  0.37773  Biso   1.000  C
  C6350    1.0000 0.76246  0.16758  0.33306  Biso   1.000  C
  C6351    1.0000 0.31470  0.61935  0.37582  Biso   1.000  C
  C6352    1.0000 0.32829  0.18104  0.84928  Biso   1.000  C
  C6353    1.0000 0.26825  0.66598  0.33151  Biso   1.000  C
  C6354    1.0000 0.99964  0.23863  0.43259  Biso   1.000  C
  C6355    1.0000 0.30431  0.11171  0.85644  Biso   1.000  C
  C6356    1.0000 0.26457  0.16644  0.83431  Biso   1.000  C
  C6357    1.0000 0.75184  0.00910  0.93422  Biso   1.000  C
  C6358    1.0000 0.44969  0.18253  0.28871  Biso   1.000  C
  C6359    1.0000 0.44057  0.16090  0.35991  Biso   1.000  C
  C6360    1.0000 0.41548  0.58077  0.85524  Biso   1.000  C
  C6361    1.0000 0.49468  0.09696  0.33500  Biso   1.000  C
  C6362    1.0000 0.75087  0.50888  0.43261  Biso   1.000  C
  C6363    1.0000 0.44242  0.66239  0.86480  Biso   1.000  C
  C6364    1.0000 0.41554  0.08185  0.35657  Biso   1.000  C
  C6365    1.0000 0.49579  0.60555  0.80931  Biso   1.000  C
  C6366    1.0000 0.25163  0.00870  0.43416  Biso   1.000  C
  C6367    1.0000 0.94928  0.18385  0.78914  Biso   1.000  C
  C6368    1.0000 0.94005  0.16076  0.85866  Biso   1.000  C
  C6369    1.0000 0.97451  0.11064  0.82128  Biso   1.000  C
  C6370    1.0000 0.24503  0.51670  0.93710  Biso   1.000  C
  C6371    1.0000 0.94235  0.66146  0.36708  Biso   1.000  C
  C6372    1.0000 0.91321  0.07998  0.85598  Biso   1.000  C
  C6373    1.0000 0.99313  0.59687  0.33694  Biso   1.000  C
  C6374    1.0000 0.01620  0.95802  0.74469  Biso   1.000  C
  C6375    1.0000 0.15860  0.37244  0.42945  Biso   1.000  C
  C6376    1.0000 0.58602  0.85393  0.41625  Biso   1.000  C
  C6377    1.0000 0.09729  0.32823  0.49879  Biso   1.000  C
  C6378    1.0000 0.15887  0.87037  0.92670  Biso   1.000  C
  C6379    1.0000 0.59446  0.34384  0.91469  Biso   1.000  C
  C6380    1.0000 0.09808  0.82672  0.99852  Biso   1.000  C
  C6381    1.0000 0.41352  0.98244  0.31872  Biso   1.000  C
  C6382    1.0000 0.65937  0.36986  0.92736  Biso   1.000  C
  C6383    1.0000 0.08445  0.85494  0.91694  Biso   1.000  C
  C6384    1.0000 0.59606  0.33311  0.99558  Biso   1.000  C
  C6385    1.0000 0.86894  0.32186  0.39165  Biso   1.000  C
  C6386    1.0000 0.41623  0.49941  0.82069  Biso   1.000  C
  C6387    1.0000 0.51898  0.44886  0.74232  Biso   1.000  C
  C6388    1.0000 0.66091  0.86106  0.44073  Biso   1.000  C
  C6389    1.0000 0.09465  0.34297  0.41388  Biso   1.000  C
  C6390    1.0000 0.59661  0.83377  0.49485  Biso   1.000  C
  C6391    1.0000 0.73487  0.45813  0.50513  Biso   1.000  C
  C6392    1.0000 0.61690  0.88161  0.81430  Biso   1.000  C
  C6393    1.0000 0.16695  0.35695  0.83349  Biso   1.000  C
  C6394    1.0000 0.66838  0.82656  0.75718  Biso   1.000  C
  C6395    1.0000 0.73527  0.95715  0.00500  Biso   1.000  C
  C6396    1.0000 0.62041  0.37441  0.31398  Biso   1.000  C
  C6397    1.0000 0.16538  0.85243  0.33463  Biso   1.000  C
  C6398    1.0000 0.65204  0.32663  0.25066  Biso   1.000  C
  C6399    1.0000 0.11888  0.88118  0.31358  Biso   1.000  C
  C6400    1.0000 0.16794  0.82353  0.25724  Biso   1.000  C
  C6401    1.0000 0.09123  0.37221  0.82215  Biso   1.000  C
  C6402    1.0000 0.66440  0.85214  0.83424  Biso   1.000  C
  C6403    1.0000 0.16585  0.32384  0.75783  Biso   1.000  C
  C6404    1.0000 0.88029  0.93273  0.89181  Biso   1.000  C
  C6405    1.0000 0.11708  0.37422  0.93438  Biso   1.000  C
  C6406    1.0000 0.16036  0.44319  0.99262  Biso   1.000  C
  C6407    1.0000 0.87312  0.44415  0.38557  Biso   1.000  C
  C6408    1.0000 0.11710  0.86970  0.43534  Biso   1.000  C
  C6409    1.0000 0.16068  0.94118  0.49398  Biso   1.000  C
  C6410    1.0000 0.58405  0.47465  0.46454  Biso   1.000  C
  C6411    1.0000 0.61606  0.37288  0.43506  Biso   1.000  C
  C6412    1.0000 0.64222  0.44116  0.49432  Biso   1.000  C
  C6413    1.0000 0.37971  0.43336  0.89234  Biso   1.000  C
  C6414    1.0000 0.61828  0.87003  0.93608  Biso   1.000  C
  C6415    1.0000 0.66117  0.94067  0.99399  Biso   1.000  C
  C6416    1.0000 0.41447  0.26756  0.92401  Biso   1.000  C
  C6417    1.0000 0.51999  0.30139  0.00722  Biso   1.000  C
  C6418    1.0000 0.66418  0.97478  0.28571  Biso   1.000  C
  C6419    1.0000 0.66019  0.89189  0.31151  Biso   1.000  C
  C6420    1.0000 0.59081  0.94238  0.25723  Biso   1.000  C
  C6421    1.0000 0.41522  0.76764  0.42452  Biso   1.000  C
  C6422    1.0000 0.50723  0.81807  0.49503  Biso   1.000  C
  C6423    1.0000 0.66158  0.47525  0.78557  Biso   1.000  C
  C6424    1.0000 0.65708  0.39708  0.81040  Biso   1.000  C
  C6425    1.0000 0.58427  0.41774  0.76539  Biso   1.000  C
  C6426    1.0000 0.91461  0.26783  0.42408  Biso   1.000  C
  C6427    1.0000 0.02123  0.30129  0.50736  Biso   1.000  C
  C6428    1.0000 0.17989  0.95640  0.80460  Biso   1.000  C
  C6429    1.0000 0.15772  0.87486  0.82154  Biso   1.000  C
  C6430    1.0000 0.08518  0.92016  0.76653  Biso   1.000  C
  C6431    1.0000 0.91414  0.76780  0.92381  Biso   1.000  C
  C6432    1.0000 0.00513  0.81618  0.99260  Biso   1.000  C
  C6433    1.0000 0.16102  0.47497  0.28660  Biso   1.000  C
  C6434    1.0000 0.15771  0.39661  0.31141  Biso   1.000  C
  C6435    1.0000 0.08416  0.41704  0.26561  Biso   1.000  C
  C6436    1.0000 0.77491  0.78696  0.58976  Biso   1.000  C
  C6437    1.0000 0.86983  0.82212  0.59316  Biso   1.000  C
  C6438    1.0000 0.83274  0.76655  0.66559  Biso   1.000  C
  C6439    1.0000 0.47531  0.94159  0.31860  Biso   1.000  C
  C6440    1.0000 0.43552  0.99019  0.24912  Biso   1.000  C
  C6441    1.0000 0.79030  0.30232  0.07073  Biso   1.000  C
  C6442    1.0000 0.86539  0.32463  0.09321  Biso   1.000  C
  C6443    1.0000 0.34595  0.32709  0.67953  Biso   1.000  C
  C6444    1.0000 0.80578  0.25622  0.15983  Biso   1.000  C
  C6445    1.0000 0.97858  0.44080  0.33133  Biso   1.000  C
  C6446    1.0000 0.27863  0.78920  0.09596  Biso   1.000  C
  C6447    1.0000 0.36021  0.82473  0.09719  Biso   1.000  C
  C6448    1.0000 0.33396  0.75381  0.15336  Biso   1.000  C
  C6449    1.0000 0.97448  0.94009  0.81524  Biso   1.000  C
  C6450    1.0000 0.93174  0.99766  0.74190  Biso   1.000  C
  C6451    1.0000 0.27550  0.28794  0.59165  Biso   1.000  C
  C6452    1.0000 0.35833  0.32569  0.59877  Biso   1.000  C
  C6453    1.0000 0.33139  0.26203  0.66642  Biso   1.000  C
  C6454    1.0000 0.81264  0.39023  0.37043  Biso   1.000  C
  C6455    1.0000 0.95586  0.74336  0.01779  Biso   1.000  C
  C6456    1.0000 0.36218  0.44042  0.16046  Biso   1.000  C
  C6457    1.0000 0.85719  0.40690  0.57186  Biso   1.000  C
  C6458    1.0000 0.30280  0.48627  0.09323  Biso   1.000  C
  C6459    1.0000 0.98009  0.31440  0.41443  Biso   1.000  C
  C6460    1.0000 0.95864  0.24345  0.51684  Biso   1.000  C
  C6461    1.0000 0.28956  0.94856  0.68168  Biso   1.000  C
  C6462    1.0000 0.35990  0.92483  0.65723  Biso   1.000  C
  C6463    1.0000 0.30818  0.99183  0.59008  Biso   1.000  C
  C6464    1.0000 0.49769  0.81597  0.41497  Biso   1.000  C
  C6465    1.0000 0.45007  0.74353  0.52068  Biso   1.000  C
  C6466    1.0000 0.86272  0.44142  0.65963  Biso   1.000  C
  C6467    1.0000 0.35656  0.40682  0.07351  Biso   1.000  C
  C6468    1.0000 0.80375  0.48678  0.59256  Biso   1.000  C
  C6469    1.0000 0.48064  0.31471  0.91370  Biso   1.000  C
  C6470    1.0000 0.45691  0.24342  0.01593  Biso   1.000  C
  C6471    1.0000 0.85987  0.92471  0.15547  Biso   1.000  C
  C6472    1.0000 0.33831  0.92444  0.58239  Biso   1.000  C
  C6473    1.0000 0.81302  0.99527  0.08646  Biso   1.000  C
  C6474    1.0000 0.26898  0.93257  0.41284  Biso   1.000  C
  C6475    1.0000 0.95521  0.30558  0.67383  Biso   1.000  C
  C6476    1.0000 0.88020  0.32267  0.65550  Biso   1.000  C
  C6477    1.0000 0.39407  0.33823  0.07731  Biso   1.000  C
  C6478    1.0000 0.94686  0.26781  0.59557  Biso   1.000  C
  C6479    1.0000 0.27556  0.43880  0.93426  Biso   1.000  C
  C6480    1.0000 0.95885  0.80270  0.17762  Biso   1.000  C
  C6481    1.0000 0.88036  0.82120  0.15647  Biso   1.000  C
  C6482    1.0000 0.94638  0.76690  0.09553  Biso   1.000  C
  C6483    1.0000 0.76959  0.93490  0.91249  Biso   1.000  C
  C6484    1.0000 0.45719  0.30383  0.17460  Biso   1.000  C
  C6485    1.0000 0.38093  0.32205  0.15628  Biso   1.000  C
  C6486    1.0000 0.89500  0.33867  0.57699  Biso   1.000  C
  C6487    1.0000 0.44596  0.26747  0.09489  Biso   1.000  C
  C6488    1.0000 0.76855  0.43518  0.41412  Biso   1.000  C
  C6489    1.0000 0.45857  0.80122  0.68074  Biso   1.000  C
  C6490    1.0000 0.39500  0.82351  0.64428  Biso   1.000  C
  C6491    1.0000 0.44800  0.76704  0.59596  Biso   1.000  C
  C6492    1.0000 0.93712  0.89001  0.87854  Biso   1.000  C
  C6493    1.0000 0.77544  0.31042  0.31725  Biso   1.000  C
  C6494    1.0000 0.81602  0.25576  0.24658  Biso   1.000  C
  C6495    1.0000 0.36996  0.93540  0.11555  Biso   1.000  C
  C6496    1.0000 0.89449  0.90615  0.67592  Biso   1.000  C
  C6497    1.0000 0.41337  0.98539  0.15061  Biso   1.000  C
  C6498    1.0000 0.94153  0.38981  0.37782  Biso   1.000  C
  C6499    1.0000 0.77540  0.80759  0.81948  Biso   1.000  C
  C6500    1.0000 0.81710  0.75204  0.74189  Biso   1.000  C
  C6501    1.0000 0.38583  0.44140  0.58969  Biso   1.000  C
  C6502    1.0000 0.89298  0.41167  0.17236  Biso   1.000  C
  C6503    1.0000 0.44680  0.48170  0.65393  Biso   1.000  C
  C6504    1.0000 0.44491  0.88445  0.37205  Biso   1.000  C
  C6505    1.0000 0.26729  0.31850  0.83749  Biso   1.000  C
  C6506    1.0000 0.87205  0.93505  0.61779  Biso   1.000  C
  C6507    1.0000 0.39415  0.91205  0.16981  Biso   1.000  C
  C6508    1.0000 0.92313  0.97459  0.64173  Biso   1.000  C
  C6509    1.0000 0.43762  0.39152  0.87938  Biso   1.000  C
  C6510    1.0000 0.27622  0.80831  0.31796  Biso   1.000  C
  C6511    1.0000 0.28967  0.75250  0.24048  Biso   1.000  C
  C6512    1.0000 0.88065  0.42663  0.09369  Biso   1.000  C
  C6513    1.0000 0.39239  0.41206  0.67278  Biso   1.000  C
  C6514    1.0000 0.94268  0.47288  0.15302  Biso   1.000  C
  N1       1.0000 0.33743  0.29895  0.78270  Biso   1.000  N
  N2       1.0000 0.24977  0.27229  0.78318  Biso   1.000  N
  N3       1.0000 0.05467  0.94351  0.46496  Biso   1.000  N
  N4       1.0000 0.10603  0.91438  0.40702  Biso   1.000  N
  N5       1.0000 0.66218  0.93807  0.91966  Biso   1.000  N
  N6       1.0000 0.35558  0.87736  0.45675  Biso   1.000  N
  N7       1.0000 0.33397  0.79157  0.25000  Biso   1.000  N
  N8       1.0000 0.22239  0.73994  0.28228  Biso   1.000  N
  N9       1.0000 0.07243  0.42837  0.95182  Biso   1.000  N
  N10      1.0000 0.07386  0.44634  0.89013  Biso   1.000  N
  N11      1.0000 0.67024  0.41734  0.37816  Biso   1.000  N
  N12      1.0000 0.15341  0.45739  0.94997  Biso   1.000  N
  N13      1.0000 0.34516  0.36438  0.94031  Biso   1.000  N
  N14      1.0000 0.85291  0.30805  0.27603  Biso   1.000  N
  N15      1.0000 0.75083  0.27271  0.28240  Biso   1.000  N
  N16      1.0000 0.55480  0.94393  0.96653  Biso   1.000  N
  N17      1.0000 0.60875  0.91431  0.90784  Biso   1.000  N
  N18      1.0000 0.15902  0.93324  0.42704  Biso   1.000  N
  N19      1.0000 0.66054  0.98949  0.96120  Biso   1.000  N
  N20      1.0000 0.85518  0.87762  0.95732  Biso   1.000  N
  N21      1.0000 0.84843  0.80771  0.74459  Biso   1.000  N
  N22      1.0000 0.72315  0.74138  0.77927  Biso   1.000  N
  N23      1.0000 0.59222  0.44269  0.41370  Biso   1.000  N
  N24      1.0000 0.20178  0.41932  0.89681  Biso   1.000  N
  N25      1.0000 0.65177  0.45642  0.44960  Biso   1.000  N
  N26      1.0000 0.40070  0.91560  0.26936  Biso   1.000  N
  N27      1.0000 0.64925  0.28367  0.98777  Biso   1.000  N
  N28      1.0000 0.66165  0.33788  0.89860  Biso   1.000  N
  N29      1.0000 0.57292  0.27020  0.90558  Biso   1.000  N
  N30      1.0000 0.64968  0.78398  0.48910  Biso   1.000  N
  N31      1.0000 0.64002  0.83499  0.40859  Biso   1.000  N
  N32      1.0000 0.57334  0.77071  0.40597  Biso   1.000  N
  N33      1.0000 0.90049  0.94046  0.77587  Biso   1.000  N
  N34      1.0000 0.15348  0.28406  0.48812  Biso   1.000  N
  N35      1.0000 0.16987  0.33422  0.38513  Biso   1.000  N
  N36      1.0000 0.07479  0.26893  0.40570  Biso   1.000  N
  N37      1.0000 0.93316  0.45542  0.28604  Biso   1.000  N
  N38      1.0000 0.19452  0.81230  0.95780  Biso   1.000  N
  N39      1.0000 0.14053  0.83569  0.90711  Biso   1.000  N
  N40      1.0000 0.07379  0.77028  0.90597  Biso   1.000  N
  N41      1.0000 0.90249  0.80699  0.97349  Biso   1.000  N
  N42      1.0000 0.17844  0.44366  0.35996  Biso   1.000  N
  N43      1.0000 0.57958  0.41517  0.87327  Biso   1.000  N
  N44      1.0000 0.09014  0.49009  0.28839  Biso   1.000  N
  N45      1.0000 0.93767  0.29729  0.46303  Biso   1.000  N
  N46      1.0000 0.16792  0.91573  0.86300  Biso   1.000  N
  N47      1.0000 0.57568  0.91324  0.37378  Biso   1.000  N
  N48      1.0000 0.12150  0.96308  0.82749  Biso   1.000  N
  N49      1.0000 0.40158  0.81202  0.47587  Biso   1.000  N
  N50      1.0000 0.50066  0.76875  0.42771  Biso   1.000  N
  N51      1.0000 0.67774  0.44433  0.85995  Biso   1.000  N
  N52      1.0000 0.08023  0.41554  0.37315  Biso   1.000  N
  N53      1.0000 0.57443  0.50514  0.80672  Biso   1.000  N
  N54      1.0000 0.43481  0.29553  0.96286  Biso   1.000  N
  N55      1.0000 0.62374  0.93396  0.39001  Biso   1.000  N
  N56      1.0000 0.07888  0.91528  0.87285  Biso   1.000  N
  N57      1.0000 0.62182  0.96233  0.32894  Biso   1.000  N
  N58      1.0000 0.83877  0.44879  0.46754  Biso   1.000  N
  N59      1.0000 0.56586  0.81967  0.79798  Biso   1.000  N
  N60      1.0000 0.58093  0.83212  0.87335  Biso   1.000  N
  N61      1.0000 0.65681  0.76874  0.78513  Biso   1.000  N
  N62      1.0000 0.83736  0.95012  0.96748  Biso   1.000  N
  N63      1.0000 0.55725  0.31239  0.29338  Biso   1.000  N
  N64      1.0000 0.60823  0.33524  0.34222  Biso   1.000  N
  N65      1.0000 0.66251  0.25941  0.29054  Biso   1.000  N
  N66      1.0000 0.34958  0.44212  0.97412  Biso   1.000  N
  N67      1.0000 0.06724  0.82150  0.29872  Biso   1.000  N
  N68      1.0000 0.08035  0.83296  0.37213  Biso   1.000  N
  N69      1.0000 0.16080  0.76262  0.28683  Biso   1.000  N
  N70      1.0000 0.33806  0.94898  0.46765  Biso   1.000  N
  N71      1.0000 0.05672  0.31214  0.79201  Biso   1.000  N
  N72      1.0000 0.10587  0.33693  0.84300  Biso   1.000  N
  N73      1.0000 0.67088  0.33314  0.37378  Biso   1.000  N
  N74      1.0000 0.17549  0.27438  0.84454  Biso   1.000  N
  N75      1.0000 0.37097  0.12109  0.96233  Biso   1.000  N
  N76      1.0000 0.40642  0.17616  0.97417  Biso   1.000  N
  N77      1.0000 0.36393  0.62936  0.43291  Biso   1.000  N
  N78      1.0000 0.92253  0.15944  0.43849  Biso   1.000  N
  N79      1.0000 0.40804  0.67294  0.46882  Biso   1.000  N
  N80      1.0000 0.33198  0.23454  0.75854  Biso   1.000  N
  N81      1.0000 0.95770  0.05931  0.43646  Biso   1.000  N
  N82      1.0000 0.85150  0.11012  0.43268  Biso   1.000  N
  N83      1.0000 0.90712  0.17589  0.47359  Biso   1.000  N
  N84      1.0000 0.86487  0.63061  0.93346  Biso   1.000  N
  N85      1.0000 0.42128  0.15923  0.93781  Biso   1.000  N
  N86      1.0000 0.90656  0.67752  0.98028  Biso   1.000  N
  N87      1.0000 0.33278  0.51268  0.99082  Biso   1.000  N
  N88      1.0000 0.95705  0.68995  0.31646  Biso   1.000  N
  N89      1.0000 0.91561  0.65415  0.30640  Biso   1.000  N
  N90      1.0000 0.91422  0.59680  0.23725  Biso   1.000  N
  N91      1.0000 0.95089  0.40320  0.38112  Biso   1.000  N
  N92      1.0000 0.33345  0.01486  0.49257  Biso   1.000  N
  N93      1.0000 0.89118  0.17665  0.80706  Biso   1.000  N
  N94      1.0000 0.91033  0.09835  0.73835  Biso   1.000  N
  N95      1.0000 0.94086  0.90540  0.88338  Biso   1.000  N
  N96      1.0000 0.83224  0.51629  0.49293  Biso   1.000  N
  N97      1.0000 0.45748  0.69114  0.81595  Biso   1.000  N
  N98      1.0000 0.39198  0.67685  0.80679  Biso   1.000  N
  N99      1.0000 0.44345  0.62666  0.77901  Biso   1.000  N
  N100     1.0000 0.44270  0.40654  0.88437  Biso   1.000  N
  N101     1.0000 0.83341  0.01558  0.99374  Biso   1.000  N
  N102     1.0000 0.39278  0.17586  0.30711  Biso   1.000  N
  N103     1.0000 0.90455  0.60908  0.33217  Biso   1.000  N
  N104     1.0000 0.40889  0.09662  0.23948  Biso   1.000  N
  N105     1.0000 0.45867  0.89365  0.37020  Biso   1.000  N
  N106     1.0000 0.91730  0.01352  0.76066  Biso   1.000  N
  N107     1.0000 0.29240  0.18925  0.43574  Biso   1.000  N
  N108     1.0000 0.38450  0.11761  0.43448  Biso   1.000  N
  N109     1.0000 0.84647  0.60826  0.41916  Biso   1.000  N
  N110     1.0000 0.34787  0.09615  0.50414  Biso   1.000  N
  N111     1.0000 0.91703  0.51343  0.25941  Biso   1.000  N
  N112     1.0000 0.35926  0.67650  0.94328  Biso   1.000  N
  N113     1.0000 0.79152  0.18943  0.93558  Biso   1.000  N
  N114     1.0000 0.88592  0.11783  0.93351  Biso   1.000  N
  N115     1.0000 0.35618  0.56149  0.93491  Biso   1.000  N
  N116     1.0000 0.50171  0.41000  0.79842  Biso   1.000  N
  N117     1.0000 0.41840  0.51656  0.75502  Biso   1.000  N
  N118     1.0000 0.83700  0.66224  0.44155  Biso   1.000  N
  N119     1.0000 0.79665  0.62133  0.48903  Biso   1.000  N
  N120     1.0000 0.81115  0.40593  0.36536  Biso   1.000  N
  N121     1.0000 0.79309  0.55966  0.81468  Biso   1.000  N
  N122     1.0000 0.89924  0.60715  0.81900  Biso   1.000  N
  N123     1.0000 0.84453  0.67674  0.77224  Biso   1.000  N
  N124     1.0000 0.88356  0.13207  0.31763  Biso   1.000  N
  N125     1.0000 0.37642  0.67631  0.33841  Biso   1.000  N
  N126     1.0000 0.78771  0.15291  0.27347  Biso   1.000  N
  N127     1.0000 0.29942  0.57300  0.32228  Biso   1.000  N
  N128     1.0000 0.37043  0.63598  0.32082  Biso   1.000  N
  N129     1.0000 0.34393  0.67828  0.26497  Biso   1.000  N
  N130     1.0000 0.26290  0.10167  0.78636  Biso   1.000  N
  N131     1.0000 0.38488  0.13021  0.81688  Biso   1.000  N
  N132     1.0000 0.87285  0.66617  0.83048  Biso   1.000  N
  N133     1.0000 0.28935  0.16448  0.75439  Biso   1.000  N
  N134     1.0000 0.32334  0.77181  0.35363  Biso   1.000  N
  N135     1.0000 0.26660  0.82924  0.24354  Biso   1.000  N
  N136     1.0000 0.96427  0.48724  0.09792  Biso   1.000  N
  N137     1.0000 0.94251  0.41477  0.09489  Biso   1.000  N
  N138     1.0000 0.99585  0.46142  0.16378  Biso   1.000  N
  N139     1.0000 0.29583  0.28703  0.81685  Biso   1.000  N
  N140     1.0000 0.24429  0.27714  0.72419  Biso   1.000  N
  N141     1.0000 0.96734  0.99077  0.58876  Biso   1.000  N
  N142     1.0000 0.94328  0.91415  0.59256  Biso   1.000  N
  N143     1.0000 0.96932  0.96266  0.65195  Biso   1.000  N
  N144     1.0000 0.82276  0.77176  0.85355  Biso   1.000  N
  N145     1.0000 0.77882  0.81221  0.75586  Biso   1.000  N
  N146     1.0000 0.46731  0.48933  0.59152  Biso   1.000  N
  N147     1.0000 0.44249  0.41493  0.59902  Biso   1.000  N
  N148     1.0000 0.47958  0.40666  0.67809  Biso   1.000  N
  N149     1.0000 0.81112  0.27549  0.35259  Biso   1.000  N
  N150     1.0000 0.74797  0.27565  0.22789  Biso   1.000  N
  N151     1.0000 0.46676  0.98919  0.09243  Biso   1.000  N
  N152     1.0000 0.44423  0.91433  0.09462  Biso   1.000  N
  N153     1.0000 0.47594  0.96352  0.15444  Biso   1.000  N
  N154     1.0000 0.32698  0.89682  0.62034  Biso   1.000  N
  N155     1.0000 0.25622  0.96160  0.58782  Biso   1.000  N
  N156     1.0000 0.28385  0.48796  0.15559  Biso   1.000  N
  N157     1.0000 0.31770  0.36721  0.11523  Biso   1.000  N
  N158     1.0000 0.28157  0.43961  0.12541  Biso   1.000  N
  N159     1.0000 0.38539  0.43329  0.90798  Biso   1.000  N
  N160     1.0000 0.78183  0.98992  0.15867  Biso   1.000  N
  N161     1.0000 0.81584  0.85927  0.12106  Biso   1.000  N
  N162     1.0000 0.75505  0.96002  0.08688  Biso   1.000  N
  N163     1.0000 0.88461  0.92984  0.90761  Biso   1.000  N
  N164     1.0000 0.78131  0.48951  0.67600  Biso   1.000  N
  N165     1.0000 0.81745  0.36918  0.61281  Biso   1.000  N
  N166     1.0000 0.80880  0.90103  0.07598  Biso   1.000  N
  N167     1.0000 0.78145  0.43865  0.62539  Biso   1.000  N
  N168     1.0000 0.87250  0.45731  0.39582  Biso   1.000  N
  N169     1.0000 0.79817  0.96297  0.93539  Biso   1.000  N
  N170     1.0000 0.43302  0.38588  0.11939  Biso   1.000  N
  N171     1.0000 0.39946  0.87093  0.56687  Biso   1.000  N
  N172     1.0000 0.49812  0.35158  0.09646  Biso   1.000  N
  N173     1.0000 0.79876  0.46204  0.43691  Biso   1.000  N
  N174     1.0000 0.43399  0.88921  0.62178  Biso   1.000  N
  N175     1.0000 0.48416  0.84476  0.57352  Biso   1.000  N
  N176     1.0000 0.29787  0.96261  0.43624  Biso   1.000  N
  N177     1.0000 0.23799  0.94836  0.53665  Biso   1.000  N
  N178     1.0000 0.93261  0.38688  0.61982  Biso   1.000  N
  N179     1.0000 0.92043  0.84758  0.11057  Biso   1.000  N
  N180     1.0000 0.99698  0.35305  0.59782  Biso   1.000  N
  N181     1.0000 0.86371  0.32705  0.40658  Biso   1.000  N
  N182     1.0000 0.29944  0.50259  0.90868  Biso   1.000  N
  N183     1.0000 0.23697  0.44876  0.03567  Biso   1.000  N
  N184     1.0000 0.93301  0.89265  0.12754  Biso   1.000  N
  N185     1.0000 0.80767  0.83456  0.59515  Biso   1.000  N
  N186     1.0000 0.83239  0.37271  0.17156  Biso   1.000  N
  N187     1.0000 0.74635  0.84816  0.65529  Biso   1.000  N
  N188     1.0000 0.50788  0.97083  0.22205  Biso   1.000  N
  N189     1.0000 0.81570  0.39025  0.12717  Biso   1.000  N
  N190     1.0000 0.83312  0.84551  0.64059  Biso   1.000  N
  N191     1.0000 0.76297  0.29617  0.12796  Biso   1.000  N
  N192     1.0000 0.93130  0.47768  0.35471  Biso   1.000  N
  N193     1.0000 0.01240  0.44796  0.21536  Biso   1.000  N
  N194     1.0000 0.33440  0.87309  0.07693  Biso   1.000  N
  N195     1.0000 0.25432  0.85484  0.15249  Biso   1.000  N
  N196     1.0000 0.94491  0.97353  0.84596  Biso   1.000  N
  N197     1.0000 0.33228  0.37520  0.57916  Biso   1.000  N
  N198     1.0000 0.32958  0.86933  0.16291  Biso   1.000  N
  N199     1.0000 0.24988  0.34924  0.65516  Biso   1.000  N
  N200     1.0000 0.02764  0.50477  0.69805  Biso   1.000  N
  N201     1.0000 0.69265  0.32128  0.11012  Biso   1.000  N
  N202     1.0000 0.66760  0.92075  0.62248  Biso   1.000  N
  N203     1.0000 0.73180  0.39799  0.10419  Biso   1.000  N
  N204     1.0000 0.63102  0.60704  0.04193  Biso   1.000  N
  N205     1.0000 0.71554  0.85140  0.51341  Biso   1.000  N
  N206     1.0000 0.69263  0.84775  0.58473  Biso   1.000  N
  N207     1.0000 0.75133  0.90392  0.60134  Biso   1.000  N
  N208     1.0000 0.62735  0.10476  0.54274  Biso   1.000  N
  N209     1.0000 0.50672  0.48388  0.16822  Biso   1.000  N
  N210     1.0000 0.19249  0.34778  0.58491  Biso   1.000  N
  N211     1.0000 0.24768  0.40307  0.60378  Biso   1.000  N
  N212     1.0000 0.12794  0.60797  0.54236  Biso   1.000  N
  N213     1.0000 0.49133  0.97132  0.67549  Biso   1.000  N
  N214     1.0000 0.21758  0.84350  0.01078  Biso   1.000  N
  N215     1.0000 0.19380  0.84896  0.08355  Biso   1.000  N
  N216     1.0000 0.16424  0.42266  0.62382  Biso   1.000  N
  N217     1.0000 0.25855  0.90451  0.09357  Biso   1.000  N
  N218     1.0000 0.12736  0.10300  0.04313  Biso   1.000  N
  N219     1.0000 0.76018  0.77938  0.21529  Biso   1.000  N
  N220     1.0000 0.08619  0.91854  0.60690  Biso   1.000  N
  N221     1.0000 0.00719  0.86984  0.54636  Biso   1.000  N
  N222     1.0000 0.75950  0.28004  0.71672  Biso   1.000  N
  N223     1.0000 0.06470  0.43909  0.04352  Biso   1.000  N
  N224     1.0000 0.06791  0.36882  0.13602  Biso   1.000  N
  N225     1.0000 0.07519  0.83871  0.62011  Biso   1.000  N
  N226     1.0000 0.26275  0.78503  0.69795  Biso   1.000  N
  N227     1.0000 0.57850  0.91605  0.13662  Biso   1.000  N
  N228     1.0000 0.49447  0.86274  0.04926  Biso   1.000  N
  N229     1.0000 0.26006  0.27958  0.21773  Biso   1.000  N
  N230     1.0000 0.56274  0.43801  0.54324  Biso   1.000  N
  N231     1.0000 0.56830  0.38735  0.64833  Biso   1.000  N
  N232     1.0000 0.50105  0.34599  0.60322  Biso   1.000  N
  N233     1.0000 0.48766  0.28173  0.53608  Biso   1.000  N
  N234     1.0000 0.17987  0.36291  0.13022  Biso   1.000  N
  N235     1.0000 0.23386  0.32190  0.15760  Biso   1.000  N
  N236     1.0000 0.49025  0.78102  0.03426  Biso   1.000  N
  N237     1.0000 0.18148  0.93696  0.70405  Biso   1.000  N
  N238     1.0000 0.18304  0.86503  0.61574  Biso   1.000  N
  N239     1.0000 0.16303  0.32274  0.12598  Biso   1.000  N
  N240     1.0000 0.21410  0.87075  0.66955  Biso   1.000  N
  N241     1.0000 0.67921  0.36222  0.62989  Biso   1.000  N
  N242     1.0000 0.65326  0.81771  0.12793  Biso   1.000  N
  N243     1.0000 0.73315  0.32141  0.65698  Biso   1.000  N
  N244     1.0000 0.98727  0.78183  0.53507  Biso   1.000  N
  N245     1.0000 0.68315  0.93439  0.20552  Biso   1.000  N
  N246     1.0000 0.66401  0.91933  0.13528  Biso   1.000  N
  N247     1.0000 0.66080  0.32187  0.62565  Biso   1.000  N
  N248     1.0000 0.74788  0.86520  0.20196  Biso   1.000  N
  N249     1.0000 0.22219  0.00496  0.05589  Biso   1.000  N
  N250     1.0000 0.56944  0.88819  0.62915  Biso   1.000  N
  N251     1.0000 0.53601  0.87771  0.67564  Biso   1.000  N
  N252     1.0000 0.19465  0.59370  0.49465  Biso   1.000  N
  N253     1.0000 0.24066  0.48819  0.58187  Biso   1.000  N
  N254     1.0000 0.53866  0.35353  0.23351  Biso   1.000  N
  N255     1.0000 0.55711  0.32189  0.14159  Biso   1.000  N
  N256     1.0000 0.58744  0.92773  0.62519  Biso   1.000  N
  N257     1.0000 0.49809  0.40266  0.15084  Biso   1.000  N
  N258     1.0000 0.73051  0.99672  0.57500  Biso   1.000  N
  N259     1.0000 0.04136  0.85723  0.23154  Biso   1.000  N
  N260     1.0000 0.06661  0.87543  0.10828  Biso   1.000  N
  N261     1.0000 0.74458  0.48385  0.08313  Biso   1.000  N
  N262     1.0000 0.03866  0.35368  0.73459  Biso   1.000  N
  N263     1.0000 0.06578  0.37721  0.61102  Biso   1.000  N
  N264     1.0000 0.08428  0.92173  0.12456  Biso   1.000  N
  N265     1.0000 0.13420  0.59385  0.66543  Biso   1.000  N
  N266     1.0000 0.84513  0.73900  0.53527  Biso   1.000  N
  N267     1.0000 0.85498  0.60988  0.53885  Biso   1.000  N
  N268     1.0000 0.88350  0.70071  0.50025  Biso   1.000  N
  N269     1.0000 0.80310  0.22096  0.05014  Biso   1.000  N
  N270     1.0000 0.87832  0.14350  0.04418  Biso   1.000  N
  N271     1.0000 0.34684  0.73954  0.03267  Biso   1.000  N
  N272     1.0000 0.37867  0.64406  0.04440  Biso   1.000  N
  N273     1.0000 0.30249  0.22179  0.55063  Biso   1.000  N
  N274     1.0000 0.33069  0.13478  0.58717  Biso   1.000  N
  N275     1.0000 0.42676  0.15537  0.51963  Biso   1.000  N
  N276     1.0000 0.14972  0.52623  0.55785  Biso   1.000  N
  N277     1.0000 0.28464  0.54775  0.48708  Biso   1.000  N
  N278     1.0000 0.44130  0.20537  0.18322  Biso   1.000  N
  N279     1.0000 0.41756  0.13050  0.16665  Biso   1.000  N
  N280     1.0000 0.34153  0.17307  0.20332  Biso   1.000  N
  N281     1.0000 0.27750  0.02999  0.99195  Biso   1.000  N
  N282     1.0000 0.41885  0.62927  0.66710  Biso   1.000  N
  N283     1.0000 0.34499  0.71339  0.72448  Biso   1.000  N
  N284     1.0000 0.14481  0.70662  0.62980  Biso   1.000  N
  N285     1.0000 0.74897  0.53330  0.02303  Biso   1.000  N
  N286     1.0000 0.94153  0.20743  0.68417  Biso   1.000  N
  N287     1.0000 0.91827  0.13136  0.66681  Biso   1.000  N
  N288     1.0000 0.84131  0.17347  0.70334  Biso   1.000  N
  N289     1.0000 0.65182  0.19649  0.61716  Biso   1.000  N
  N290     1.0000 0.74988  0.03442  0.52240  Biso   1.000  N
  N291     1.0000 0.94309  0.70667  0.18522  Biso   1.000  N
  N292     1.0000 0.91915  0.63079  0.16650  Biso   1.000  N
  N293     1.0000 0.83929  0.71099  0.23667  Biso   1.000  N
  N294     1.0000 0.64411  0.70621  0.12885  Biso   1.000  N
  N295     1.0000 0.66217  0.25249  0.70340  Biso   1.000  N
  N296     1.0000 0.86885  0.63402  0.06729  Biso   1.000  N
  N297     1.0000 0.31873  0.12162  0.09507  Biso   1.000  N
  N298     1.0000 0.65671  0.75336  0.19551  Biso   1.000  N
  N299     1.0000 0.74882  0.71585  0.22530  Biso   1.000  N
  N300     1.0000 0.87459  0.14219  0.56650  Biso   1.000  N
  N301     1.0000 0.34837  0.61331  0.57663  Biso   1.000  N
  N302     1.0000 0.86866  0.08477  0.53709  Biso   1.000  N
  N303     1.0000 0.15760  0.25437  0.19661  Biso   1.000  N
  N304     1.0000 0.37835  0.64464  0.56694  Biso   1.000  N
  N305     1.0000 0.82047  0.12269  0.59393  Biso   1.000  N
  N306     1.0000 0.36717  0.54702  0.50003  Biso   1.000  N
  N307     1.0000 0.15621  0.75341  0.69558  Biso   1.000  N
  N308     1.0000 0.24815  0.71447  0.72508  Biso   1.000  N
  N309     1.0000 0.37246  0.13981  0.06626  Biso   1.000  N
  N310     1.0000 0.36751  0.08584  0.03746  Biso   1.000  N
  N311     1.0000 0.34065  0.00949  0.71904  Biso   1.000  N
  N312     1.0000 0.41547  0.04274  0.75022  Biso   1.000  N
  N313     1.0000 0.50126  0.21339  0.52386  Biso   1.000  N
  N314     1.0000 0.32278  0.51004  0.21831  Biso   1.000  N
  N315     1.0000 0.38420  0.63358  0.18264  Biso   1.000  N
  N316     1.0000 0.89022  0.09688  0.16952  Biso   1.000  N
  N317     1.0000 0.38031  0.57860  0.21370  Biso   1.000  N
  N318     1.0000 0.60578  0.59660  0.12975  Biso   1.000  N
  N319     1.0000 0.87594  0.14147  0.18334  Biso   1.000  N
  N320     1.0000 0.87848  0.04804  0.23942  Biso   1.000  N
  N321     1.0000 0.84973  0.51313  0.71311  Biso   1.000  N
  N322     1.0000 0.88116  0.63726  0.68453  Biso   1.000  N
  N323     1.0000 0.88206  0.58434  0.71410  Biso   1.000  N
  N324     1.0000 0.10637  0.59635  0.62979  Biso   1.000  N
  N325     1.0000 0.49613  0.54999  0.15685  Biso   1.000  N
  N326     1.0000 0.12376  0.20004  0.42359  Biso   1.000  N
  N327     1.0000 0.66867  0.18952  0.83955  Biso   1.000  N
  N328     1.0000 0.16393  0.26276  0.34747  Biso   1.000  N
  N329     1.0000 0.52433  0.06167  0.64870  Biso   1.000  N
  N330     1.0000 0.14250  0.69412  0.92774  Biso   1.000  N
  N331     1.0000 0.64570  0.68630  0.31654  Biso   1.000  N
  N332     1.0000 0.14885  0.74857  0.84727  Biso   1.000  N
  N333     1.0000 0.02269  0.56550  0.64695  Biso   1.000  N
  N334     1.0000 0.63971  0.19497  0.92785  Biso   1.000  N
  N335     1.0000 0.14516  0.18738  0.31681  Biso   1.000  N
  N336     1.0000 0.65042  0.25115  0.84619  Biso   1.000  N
  N337     1.0000 0.02494  0.06338  0.14778  Biso   1.000  N
  N338     1.0000 0.64856  0.69204  0.42593  Biso   1.000  N
  N339     1.0000 0.13437  0.67393  0.84468  Biso   1.000  N
  N340     1.0000 0.65127  0.75088  0.34794  Biso   1.000  N
  N341     1.0000 0.08011  0.24238  0.98473  Biso   1.000  N
  N342     1.0000 0.70816  0.56404  0.80860  Biso   1.000  N
  N343     1.0000 0.64454  0.58658  0.83273  Biso   1.000  N
  N344     1.0000 0.71060  0.50453  0.91257  Biso   1.000  N
  N345     1.0000 0.02114  0.68224  0.60375  Biso   1.000  N
  N346     1.0000 0.70864  0.06404  0.30873  Biso   1.000  N
  N347     1.0000 0.64599  0.08683  0.33240  Biso   1.000  N
  N348     1.0000 0.70949  0.00346  0.41374  Biso   1.000  N
  N349     1.0000 0.49546  0.20000  0.58912  Biso   1.000  N
  N350     1.0000 0.20938  0.56329  0.30886  Biso   1.000  N
  N351     1.0000 0.14092  0.58622  0.33080  Biso   1.000  N
  N352     1.0000 0.21238  0.51993  0.40757  Biso   1.000  N
  N353     1.0000 0.50151  0.70695  0.08118  Biso   1.000  N
  N354     1.0000 0.20367  0.07040  0.81681  Biso   1.000  N
  N355     1.0000 0.13341  0.08536  0.82802  Biso   1.000  N
  N356     1.0000 0.14730  0.01324  0.89775  Biso   1.000  N
  N357     1.0000 0.72364  0.05490  0.59627  Biso   1.000  N
  N358     1.0000 0.04514  0.68096  0.31551  Biso   1.000  N
  N359     1.0000 0.12506  0.66830  0.32796  Biso   1.000  N
  N360     1.0000 0.58342  0.68907  0.91081  Biso   1.000  N
  N361     1.0000 0.04165  0.74886  0.41667  Biso   1.000  N
  N362     1.0000 0.71362  0.54508  0.06758  Biso   1.000  N
  N363     1.0000 0.10738  0.19438  0.82415  Biso   1.000  N
  N364     1.0000 0.58103  0.18818  0.41037  Biso   1.000  N
  N365     1.0000 0.10062  0.24971  0.90337  Biso   1.000  N
  N366     1.0000 0.06001  0.11263  0.09377  Biso   1.000  N
  N367     1.0000 0.22410  0.05542  0.09737  Biso   1.000  N
  N368     1.0000 0.54560  0.68120  0.81564  Biso   1.000  N
  N369     1.0000 0.62780  0.66829  0.82912  Biso   1.000  N
  N370     1.0000 0.08408  0.69010  0.41087  Biso   1.000  N
  N371     1.0000 0.54262  0.74872  0.91684  Biso   1.000  N
  N372     1.0000 0.56010  0.61387  0.09460  Biso   1.000  N
  N373     1.0000 0.61103  0.19609  0.32269  Biso   1.000  N
  N374     1.0000 0.10304  0.18563  0.93283  Biso   1.000  N
  N375     1.0000 0.59976  0.25076  0.40483  Biso   1.000  N
  N376     1.0000 0.56054  0.11392  0.59451  Biso   1.000  N
  N377     1.0000 0.21855  0.70228  0.67258  Biso   1.000  N
  N378     1.0000 0.64723  0.06765  0.88473  Biso   1.000  N
  N379     1.0000 0.11314  0.07597  0.34773  Biso   1.000  N
  N380     1.0000 0.21729  0.20408  0.17289  Biso   1.000  N
  N381     1.0000 0.61887  0.58393  0.42047  Biso   1.000  N
  N382     1.0000 0.12033  0.60147  0.81691  Biso   1.000  N
  N383     1.0000 0.53899  0.50836  0.33797  Biso   1.000  N
  N384     1.0000 0.71737  0.70270  0.17455  Biso   1.000  N
  N385     1.0000 0.14586  0.06653  0.37772  Biso   1.000  N
  N386     1.0000 0.62406  0.08646  0.82559  Biso   1.000  N
  N387     1.0000 0.10218  0.00167  0.34665  Biso   1.000  N
  N388     1.0000 0.71960  0.20436  0.66369  Biso   1.000  N
  N389     1.0000 0.10326  0.58780  0.91084  Biso   1.000  N
  N390     1.0000 0.14361  0.56688  0.87570  Biso   1.000  N
  N391     1.0000 0.62207  0.58110  0.33421  Biso   1.000  N
  N392     1.0000 0.05256  0.54422  0.84802  Biso   1.000  N
  N393     1.0000 0.66170  0.70339  0.25265  Biso   1.000  N
  N394     1.0000 0.93620  0.06914  0.54665  Biso   1.000  N
  N395     1.0000 0.92053  0.08291  0.62009  Biso   1.000  N
  N396     1.0000 0.84749  0.04183  0.55027  Biso   1.000  N
  N397     1.0000 0.65566  0.17495  0.75927  Biso   1.000  N
  N398     1.0000 0.92835  0.57084  0.04852  Biso   1.000  N
  N399     1.0000 0.92143  0.58209  0.12160  Biso   1.000  N
  N400     1.0000 0.84641  0.52938  0.03901  Biso   1.000  N
  N401     1.0000 0.14916  0.68473  0.72737  Biso   1.000  N
  N402     1.0000 0.42857  0.07183  0.05007  Biso   1.000  N
  N403     1.0000 0.41979  0.08174  0.12176  Biso   1.000  N
  N404     1.0000 0.34717  0.04205  0.04992  Biso   1.000  N
  N405     1.0000 0.16303  0.20561  0.25185  Biso   1.000  N
  N406     1.0000 0.43721  0.56813  0.54514  Biso   1.000  N
  N407     1.0000 0.42045  0.58167  0.62369  Biso   1.000  N
  N408     1.0000 0.83360  0.57911  0.12238  Biso   1.000  N
  N409     1.0000 0.34711  0.54139  0.54899  Biso   1.000  N
  N410     1.0000 0.58893  0.05070  0.71883  Biso   1.000  N
  N411     1.0000 0.32729  0.69011  0.09796  Biso   1.000  N
  N412     1.0000 0.93771  0.68440  0.60382  Biso   1.000  N
  N413     1.0000 0.40352  0.75265  0.09733  Biso   1.000  N
  N414     1.0000 0.59509  0.55432  0.25496  Biso   1.000  N
  N415     1.0000 0.33697  0.19142  0.58639  Biso   1.000  N
  N416     1.0000 0.95059  0.16749  0.10186  Biso   1.000  N
  N417     1.0000 0.40337  0.25276  0.59738  Biso   1.000  N
  N418     1.0000 0.09882  0.08826  0.23201  Biso   1.000  N
  N419     1.0000 0.82612  0.69187  0.60472  Biso   1.000  N
  N420     1.0000 0.43818  0.68395  0.10472  Biso   1.000  N
  N421     1.0000 0.90269  0.76086  0.58780  Biso   1.000  N
  N422     1.0000 0.09233  0.55015  0.71972  Biso   1.000  N
  N423     1.0000 0.82260  0.19283  0.10621  Biso   1.000  N
  N424     1.0000 0.40858  0.18933  0.57978  Biso   1.000  N
  N425     1.0000 0.90063  0.24487  0.10283  Biso   1.000  N
  N426     1.0000 0.08533  0.19965  0.03134  Biso   1.000  N
  N427     1.0000 0.96770  0.25994  0.03463  Biso   1.000  N
  N428     1.0000 0.83311  0.57909  0.61569  Biso   1.000  N
  N429     1.0000 0.42172  0.58364  0.12673  Biso   1.000  N
  N430     1.0000 0.90260  0.54196  0.69890  Biso   1.000  N
  N431     1.0000 0.10329  0.67248  0.52275  Biso   1.000  N
  N432     1.0000 0.80943  0.06446  0.20804  Biso   1.000  N
  N433     1.0000 0.83050  0.08624  0.13833  Biso   1.000  N
  N434     1.0000 0.42735  0.09202  0.62698  Biso   1.000  N
  N435     1.0000 0.91469  0.00522  0.20849  Biso   1.000  N
  N436     1.0000 0.60116  0.16830  0.52105  Biso   1.000  N
  N437     1.0000 0.33284  0.57871  0.11702  Biso   1.000  N
  N438     1.0000 0.91358  0.57809  0.62888  Biso   1.000  N
  N439     1.0000 0.40669  0.52356  0.21278  Biso   1.000  N
  N440     1.0000 0.60356  0.67000  0.02152  Biso   1.000  N
  N441     1.0000 0.37887  0.06653  0.61364  Biso   1.000  N
  N442     1.0000 0.37744  0.03749  0.67338  Biso   1.000  N
  N443     1.0000 0.40041  0.19346  0.16535  Biso   1.000  N
  N444     1.0000 0.82811  0.19235  0.65229  Biso   1.000  N
  N445     1.0000 0.34668  0.26302  0.16428  Biso   1.000  N
  N446     1.0000 0.14485  0.12732  0.15454  Biso   1.000  N
  N447     1.0000 0.14964  0.05488  0.02697  Biso   1.000  N
  N448     1.0000 0.44402  0.68916  0.70959  Biso   1.000  N
  N449     1.0000 0.39080  0.66469  0.65777  Biso   1.000  N
  N450     1.0000 0.85242  0.67327  0.14191  Biso   1.000  N
  N451     1.0000 0.33217  0.75182  0.70521  Biso   1.000  N
  N452     1.0000 0.64988  0.55651  0.02641  Biso   1.000  N
  N453     1.0000 0.90067  0.19415  0.66535  Biso   1.000  N
  N454     1.0000 0.32845  0.19218  0.15217  Biso   1.000  N
  N455     1.0000 0.84585  0.26312  0.66325  Biso   1.000  N
  N456     1.0000 0.65441  0.11864  0.66948  Biso   1.000  N
  N457     1.0000 0.65184  0.05359  0.52658  Biso   1.000  N
  N458     1.0000 0.90250  0.69263  0.16575  Biso   1.000  N
  N459     1.0000 0.34033  0.68952  0.66712  Biso   1.000  N
  N460     1.0000 0.84696  0.76208  0.16323  Biso   1.000  N
  N461     1.0000 0.65813  0.61315  0.18237  Biso   1.000  N
  N462     1.0000 0.20257  0.78476  0.76140  Biso   1.000  N
  N463     1.0000 0.54234  0.94349  0.06150  Biso   1.000  N
  N464     1.0000 0.59741  0.90835  0.08724  Biso   1.000  N
  N465     1.0000 0.12075  0.33216  0.08103  Biso   1.000  N
  N466     1.0000 0.54797  0.87089  0.01243  Biso   1.000  N
  N467     1.0000 0.20160  0.28579  0.26412  Biso   1.000  N
  N468     1.0000 0.64126  0.37140  0.56428  Biso   1.000  N
  N469     1.0000 0.59177  0.32188  0.52125  Biso   1.000  N
  N470     1.0000 0.70096  0.78532  0.26274  Biso   1.000  N
  N471     1.0000 0.04196  0.94376  0.56093  Biso   1.000  N
  N472     1.0000 0.13237  0.86505  0.56570  Biso   1.000  N
  N473     1.0000 0.59604  0.35810  0.58081  Biso   1.000  N
  N474     1.0000 0.09732  0.84473  0.49783  Biso   1.000  N
  N475     1.0000 0.69973  0.28551  0.76358  Biso   1.000  N
  N476     1.0000 0.14571  0.37573  0.06555  Biso   1.000  N
  N477     1.0000 0.59846  0.85758  0.07997  Biso   1.000  N
  N478     1.0000 0.09362  0.32212  0.02383  Biso   1.000  N
  N479     1.0000 0.67364  0.49603  0.01961  Biso   1.000  N
  N480     1.0000 0.12846  0.38625  0.68369  Biso   1.000  N
  N481     1.0000 0.07772  0.37763  0.71455  Biso   1.000  N
  N482     1.0000 0.06490  0.59248  0.61480  Biso   1.000  N
  N483     1.0000 0.69285  0.00583  0.52771  Biso   1.000  N
  N484     1.0000 0.13610  0.88294  0.18230  Biso   1.000  N
  N485     1.0000 0.60430  0.43660  0.18668  Biso   1.000  N
  N486     1.0000 0.10291  0.89971  0.23528  Biso   1.000  N
  N487     1.0000 0.25372  0.58962  0.54842  Biso   1.000  N
  N488     1.0000 0.16707  0.48637  0.50794  Biso   1.000  N
  N489     1.0000 0.58591  0.34397  0.19476  Biso   1.000  N
  N490     1.0000 0.59997  0.39105  0.22961  Biso   1.000  N
  N491     1.0000 0.17198  0.99542  0.01823  Biso   1.000  N
  N492     1.0000 0.51059  0.83773  0.71983  Biso   1.000  N
  N493     1.0000 0.63236  0.88644  0.68393  Biso   1.000  N
  N494     1.0000 0.10383  0.43607  0.68638  Biso   1.000  N
  N495     1.0000 0.58805  0.90413  0.76187  Biso   1.000  N
  N496     1.0000 0.64249  0.82373  0.55832  Biso   1.000  N
  N497     1.0000 0.64941  0.90317  0.50129  Biso   1.000  N
  N498     1.0000 0.69153  0.09356  0.63518  Biso   1.000  N
  N499     1.0000 0.07528  0.46964  0.75928  Biso   1.000  N
  N500     1.0000 0.73325  0.35543  0.03822  Biso   1.000  N
  N501     1.0000 0.66645  0.34636  0.05770  Biso   1.000  N
  N502     1.0000 0.13148  0.93426  0.10054  Biso   1.000  N
  N503     1.0000 0.64815  0.40230  0.00055  Biso   1.000  N
  N504     1.0000 0.70018  0.59569  0.13298  Biso   1.000  N
  N505     1.0000 0.58165  0.98407  0.74275  Biso   1.000  N
  N506     1.0000 0.14159  0.82339  0.05531  Biso   1.000  N
  N507     1.0000 0.62710  0.42121  0.08544  Biso   1.000  N
  N508     1.0000 0.19512  0.09535  0.13504  Biso   1.000  N
  N509     1.0000 0.57699  0.47262  0.25518  Biso   1.000  N
  N510     1.0000 0.23921  0.34379  0.53282  Biso   1.000  N
  N511     1.0000 0.14154  0.32335  0.55758  Biso   1.000  N
  N512     1.0000 0.16047  0.40239  0.48932  Biso   1.000  N
  N513     1.0000 0.19872  0.59525  0.63261  Biso   1.000  N
  N514     1.0000 0.52886  0.27365  0.49578  Biso   1.000  N
  N515     1.0000 0.20600  0.43950  0.18483  Biso   1.000  N
  N516     1.0000 0.11747  0.36545  0.18439  Biso   1.000  N
  N517     1.0000 0.15400  0.34571  0.25654  Biso   1.000  N
  N518     1.0000 0.52733  0.77201  0.99889  Biso   1.000  N
  N519     1.0000 0.13553  0.91885  0.66510  Biso   1.000  N
  N520     1.0000 0.16158  0.84548  0.76194  Biso   1.000  N
  N521     1.0000 0.70625  0.43979  0.68416  Biso   1.000  N
  N522     1.0000 0.61657  0.36617  0.68369  Biso   1.000  N
  N523     1.0000 0.13156  0.84311  0.67422  Biso   1.000  N
  N524     1.0000 0.65335  0.34596  0.75573  Biso   1.000  N
  N525     1.0000 0.02651  0.77278  0.49791  Biso   1.000  N
  N526     1.0000 0.65728  0.88790  0.16599  Biso   1.000  N
  N527     1.0000 0.65241  0.84525  0.25253  Biso   1.000  N
  N528     1.0000 0.72585  0.21447  0.74833  Biso   1.000  N
  N529     1.0000 0.06359  0.54335  0.94494  Biso   1.000  N
  N530     1.0000 0.08350  0.62354  0.92336  Biso   1.000  N
  N531     1.0000 0.03278  0.00850  0.40675  Biso   1.000  N
  N532     1.0000 0.05913  0.09211  0.41851  Biso   1.000  N
  N533     1.0000 0.02120  0.03612  0.34458  Biso   1.000  N
  N534     1.0000 0.13367  0.06076  0.15785  Biso   1.000  N
  N535     1.0000 0.22561  0.21417  0.24749  Biso   1.000  N
  N536     1.0000 0.54117  0.51872  0.39413  Biso   1.000  N
  N537     1.0000 0.56822  0.63546  0.36973  Biso   1.000  N
  N538     1.0000 0.49785  0.59856  0.34657  Biso   1.000  N
  N539     1.0000 0.53142  0.00877  0.90784  Biso   1.000  N
  N540     1.0000 0.58275  0.11929  0.91822  Biso   1.000  N
  N541     1.0000 0.54195  0.04878  0.84878  Biso   1.000  N
  N542     1.0000 0.63254  0.05924  0.65624  Biso   1.000  N
  N543     1.0000 0.04646  0.75245  0.59305  Biso   1.000  N
  N544     1.0000 0.02381  0.71694  0.50112  Biso   1.000  N
  N545     1.0000 0.68468  0.13708  0.38137  Biso   1.000  N
  N546     1.0000 0.64687  0.61851  0.93396  Biso   1.000  N
  N547     1.0000 0.71309  0.07942  0.37891  Biso   1.000  N
  N548     1.0000 0.05066  0.25143  0.09071  Biso   1.000  N
  N549     1.0000 0.68464  0.63717  0.88072  Biso   1.000  N
  N550     1.0000 0.64567  0.11847  0.43384  Biso   1.000  N
  N551     1.0000 0.71249  0.57867  0.87922  Biso   1.000  N
  N552     1.0000 0.55651  0.75387  0.09731  Biso   1.000  N
  N553     1.0000 0.18272  0.14848  0.86272  Biso   1.000  N
  N554     1.0000 0.17332  0.61552  0.40408  Biso   1.000  N
  N555     1.0000 0.21270  0.07790  0.87873  Biso   1.000  N
  N556     1.0000 0.55489  0.25395  0.59531  Biso   1.000  N
  N557     1.0000 0.18478  0.64427  0.37384  Biso   1.000  N
  N558     1.0000 0.16251  0.12302  0.92243  Biso   1.000  N
  N559     1.0000 0.21333  0.57403  0.37846  Biso   1.000  N
  N560     1.0000 0.18605  0.02129  0.10382  Biso   1.000  N
  N561     1.0000 0.58586  0.65683  0.85838  Biso   1.000  N
  N562     1.0000 0.50979  0.71014  0.91242  Biso   1.000  N
  N563     1.0000 0.55264  0.22043  0.30407  Biso   1.000  N
  N564     1.0000 0.58803  0.15118  0.34137  Biso   1.000  N
  N565     1.0000 0.49248  0.19008  0.42583  Biso   1.000  N
  N566     1.0000 0.68435  0.02291  0.60390  Biso   1.000  N
  N567     1.0000 0.08579  0.65676  0.35864  Biso   1.000  N
  N568     1.0000 0.00959  0.71024  0.41264  Biso   1.000  N
  N569     1.0000 0.68427  0.52221  0.10430  Biso   1.000  N
  N570     1.0000 0.05169  0.22133  0.80400  Biso   1.000  N
  N571     1.0000 0.03907  0.11030  0.85013  Biso   1.000  N
  N572     1.0000 0.00050  0.14830  0.90200  Biso   1.000  N
  N573     1.0000 0.13202  0.18659  0.09428  Biso   1.000  N
  N574     1.0000 0.55713  0.52533  0.15372  Biso   1.000  N
  N575     1.0000 0.49561  0.53012  0.27653  Biso   1.000  N
  N576     1.0000 0.18848  0.20830  0.44450  Biso   1.000  N
  N577     1.0000 0.16526  0.15743  0.38890  Biso   1.000  N
  N578     1.0000 0.22499  0.15519  0.32400  Biso   1.000  N
  N579     1.0000 0.54730  0.03750  0.68699  Biso   1.000  N
  N580     1.0000 0.49502  0.02955  0.77626  Biso   1.000  N
  N581     1.0000 0.19900  0.71982  0.94626  Biso   1.000  N
  N582     1.0000 0.19421  0.66656  0.89888  Biso   1.000  N
  N583     1.0000 0.23069  0.71299  0.84496  Biso   1.000  N
  N584     1.0000 0.08350  0.51779  0.64970  Biso   1.000  N
  N585     1.0000 0.69823  0.22020  0.94675  Biso   1.000  N
  N586     1.0000 0.66158  0.15038  0.90648  Biso   1.000  N
  N587     1.0000 0.72954  0.15651  0.82207  Biso   1.000  N
  N588     1.0000 0.04699  0.03695  0.18689  Biso   1.000  N
  N589     1.0000 0.99199  0.02931  0.27709  Biso   1.000  N
  N590     1.0000 0.71743  0.74091  0.40537  Biso   1.000  N
  N591     1.0000 0.71014  0.63279  0.37141  Biso   1.000  N
  N592     1.0000 0.74857  0.70430  0.36594  Biso   1.000  N
  N593     1.0000 0.99235  0.51182  0.33136  Biso   1.000  N
  N594     1.0000 0.30115  0.69592  0.97069  Biso   1.000  N
  N595     1.0000 0.33582  0.63886  0.90767  Biso   1.000  N
  N596     1.0000 0.33492  0.07740  0.37635  Biso   1.000  N
  N597     1.0000 0.25263  0.59714  0.89630  Biso   1.000  N
  N598     1.0000 0.99158  0.01419  0.83105  Biso   1.000  N
  N599     1.0000 0.31725  0.13423  0.35203  Biso   1.000  N
  N600     1.0000 0.25100  0.09718  0.39780  Biso   1.000  N
  N601     1.0000 0.44203  0.40854  0.74573  Biso   1.000  N
  N602     1.0000 0.49121  0.51230  0.82995  Biso   1.000  N
  N603     1.0000 0.80745  0.69685  0.46520  Biso   1.000  N
  N604     1.0000 0.80794  0.67939  0.38866  Biso   1.000  N
  N605     1.0000 0.83394  0.07753  0.87663  Biso   1.000  N
  N606     1.0000 0.74570  0.61393  0.44813  Biso   1.000  N
  N607     1.0000 0.88380  0.40739  0.43383  Biso   1.000  N
  N608     1.0000 0.49401  0.01432  0.33099  Biso   1.000  N
  N609     1.0000 0.81674  0.13486  0.85210  Biso   1.000  N
  N610     1.0000 0.75058  0.09695  0.89801  Biso   1.000  N
  N611     1.0000 0.93459  0.12977  0.36344  Biso   1.000  N
  N612     1.0000 0.91716  0.66833  0.87799  Biso   1.000  N
  N613     1.0000 0.98986  0.15998  0.46044  Biso   1.000  N
  N614     1.0000 0.93514  0.55959  0.95734  Biso   1.000  N
  N615     1.0000 0.93495  0.62527  0.85751  Biso   1.000  N
  N616     1.0000 0.97841  0.67761  0.90660  Biso   1.000  N
  N617     1.0000 0.46928  0.09037  0.99039  Biso   1.000  N
  N618     1.0000 0.43047  0.13655  0.88198  Biso   1.000  N
  N619     1.0000 0.42319  0.65822  0.38549  Biso   1.000  N
  N620     1.0000 0.47529  0.15475  0.96219  Biso   1.000  N
  N621     1.0000 0.43677  0.56018  0.45816  Biso   1.000  N
  N622     1.0000 0.43444  0.62232  0.35472  Biso   1.000  N
  N623     1.0000 0.47764  0.67741  0.40856  Biso   1.000  N
  N624     1.0000 0.81565  0.62971  0.88802  Biso   1.000  N
  N625     1.0000 0.81316  0.18316  0.35587  Biso   1.000  N
  N626     1.0000 0.78729  0.66920  0.84037  Biso   1.000  N
  N627     1.0000 0.49415  0.23317  0.91779  Biso   1.000  N
  N628     1.0000 0.81420  0.06021  0.29258  Biso   1.000  N
  N629     1.0000 0.81614  0.13131  0.38660  Biso   1.000  N
  N630     1.0000 0.76323  0.18000  0.34422  Biso   1.000  N
  N631     1.0000 0.31647  0.63416  0.38316  Biso   1.000  N
  N632     1.0000 0.31606  0.18904  0.85712  Biso   1.000  N
  N633     1.0000 0.27224  0.67732  0.34296  Biso   1.000  N
  N634     1.0000 0.99305  0.23434  0.41794  Biso   1.000  N
  N635     1.0000 0.29683  0.12073  0.84455  Biso   1.000  N
  N636     1.0000 0.26562  0.17878  0.84552  Biso   1.000  N
  N637     1.0000 0.75948  0.01204  0.91975  Biso   1.000  N
  N638     1.0000 0.43981  0.19598  0.28826  Biso   1.000  N
  N639     1.0000 0.44326  0.17592  0.35330  Biso   1.000  N
  N640     1.0000 0.42223  0.58498  0.86987  Biso   1.000  N
  N641     1.0000 0.50090  0.09786  0.35040  Biso   1.000  N
  N642     1.0000 0.37829  0.89615  0.34533  Biso   1.000  N
  N643     1.0000 0.75851  0.51128  0.41805  Biso   1.000  N
  N644     1.0000 0.44599  0.67859  0.86323  Biso   1.000  N
  N645     1.0000 0.42190  0.08629  0.37129  Biso   1.000  N
  N646     1.0000 0.50274  0.61517  0.79767  Biso   1.000  N
  N647     1.0000 0.36453  0.40586  0.81269  Biso   1.000  N
  N648     1.0000 0.25875  0.01199  0.41951  Biso   1.000  N
  N649     1.0000 0.93942  0.19732  0.78878  Biso   1.000  N
  N650     1.0000 0.94275  0.17603  0.85262  Biso   1.000  N
  N651     1.0000 0.96357  0.12240  0.82585  Biso   1.000  N
  N652     1.0000 0.87523  0.89784  0.84621  Biso   1.000  N
  N653     1.0000 0.24346  0.52900  0.92595  Biso   1.000  N
  N654     1.0000 0.94612  0.67770  0.36688  Biso   1.000  N
  N655     1.0000 0.91850  0.08240  0.87159  Biso   1.000  N
  N656     1.0000 0.99868  0.59816  0.35255  Biso   1.000  N
  N657     1.0000 0.86733  0.40666  0.31849  Biso   1.000  N
  N658     1.0000 0.02698  0.97057  0.74446  Biso   1.000  N
  N659     1.0000 0.17152  0.37658  0.41978  Biso   1.000  N
  N660     1.0000 0.59457  0.86594  0.42395  Biso   1.000  N
  N661     1.0000 0.09658  0.33950  0.51106  Biso   1.000  N
  N662     1.0000 0.17182  0.87305  0.91659  Biso   1.000  N
  N663     1.0000 0.60992  0.34655  0.92029  Biso   1.000  N
  N664     1.0000 0.39830  0.97721  0.31433  Biso   1.000  N
  N665     1.0000 0.67244  0.37311  0.91753  Biso   1.000  N
  N666     1.0000 0.08944  0.86909  0.92412  Biso   1.000  N
  N667     1.0000 0.40398  0.31442  0.86474  Biso   1.000  N
  N668     1.0000 0.40436  0.51103  0.82184  Biso   1.000  N
  N669     1.0000 0.53437  0.45301  0.73750  Biso   1.000  N
  N670     1.0000 0.67606  0.85453  0.44292  Biso   1.000  N
  N671     1.0000 0.11046  0.34474  0.41891  Biso   1.000  N
  N672     1.0000 0.59627  0.84885  0.50189  Biso   1.000  N
  N673     1.0000 0.72484  0.47129  0.50504  Biso   1.000  N
  N674     1.0000 0.62769  0.89421  0.81626  Biso   1.000  N
  N675     1.0000 0.16278  0.37169  0.82699  Biso   1.000  N
  N676     1.0000 0.68217  0.83225  0.74979  Biso   1.000  N
  N677     1.0000 0.85588  0.84655  0.87283  Biso   1.000  N
  N678     1.0000 0.72505  0.97017  0.00509  Biso   1.000  N
  N679     1.0000 0.63546  0.38134  0.31542  Biso   1.000  N
  N680     1.0000 0.15560  0.86360  0.32733  Biso   1.000  N
  N681     1.0000 0.65225  0.33680  0.23744  Biso   1.000  N
  N682     1.0000 0.12952  0.89393  0.31545  Biso   1.000  N
  N683     1.0000 0.18193  0.82982  0.25076  Biso   1.000  N
  N684     1.0000 0.35642  0.84642  0.37281  Biso   1.000  N
  N685     1.0000 0.07839  0.37594  0.83210  Biso   1.000  N
  N686     1.0000 0.65434  0.86318  0.82710  Biso   1.000  N
  N687     1.0000 0.17973  0.33100  0.75203  Biso   1.000  N
  N688     1.0000 0.13206  0.36756  0.93186  Biso   1.000  N
  N689     1.0000 0.16661  0.45681  0.99984  Biso   1.000  N
  N690     1.0000 0.13058  0.86003  0.43400  Biso   1.000  N
  N691     1.0000 0.16728  0.95417  0.50204  Biso   1.000  N
  N692     1.0000 0.34596  0.94680  0.36698  Biso   1.000  N
  N693     1.0000 0.59008  0.48959  0.46841  Biso   1.000  N
  N694     1.0000 0.62955  0.36327  0.43363  Biso   1.000  N
  N695     1.0000 0.63130  0.45240  0.49978  Biso   1.000  N
  N696     1.0000 0.63181  0.86041  0.93471  Biso   1.000  N
  N697     1.0000 0.39838  0.27165  0.92293  Biso   1.000  N
  N698     1.0000 0.53572  0.29947  0.01234  Biso   1.000  N
  N699     1.0000 0.65854  0.98981  0.28128  Biso   1.000  N
  N700     1.0000 0.67253  0.90297  0.31046  Biso   1.000  N
  N701     1.0000 0.58462  0.95612  0.25018  Biso   1.000  N
  N702     1.0000 0.39955  0.77123  0.42016  Biso   1.000  N
  N703     1.0000 0.50762  0.83143  0.48513  Biso   1.000  N
  N704     1.0000 0.65413  0.48971  0.78203  Biso   1.000  N
  N705     1.0000 0.66647  0.41064  0.80859  Biso   1.000  N
  N706     1.0000 0.57355  0.40599  0.77013  Biso   1.000  N
  N707     1.0000 0.89878  0.27141  0.42045  Biso   1.000  N
  N708     1.0000 0.03703  0.29921  0.51220  Biso   1.000  N
  N709     1.0000 0.18879  0.95379  0.81844  Biso   1.000  N
  N710     1.0000 0.17020  0.86917  0.83102  Biso   1.000  N
  N711     1.0000 0.07336  0.90872  0.76889  Biso   1.000  N
  N712     1.0000 0.89898  0.77137  0.91793  Biso   1.000  N
  N713     1.0000 0.00584  0.82943  0.98253  Biso   1.000  N
  N714     1.0000 0.15323  0.48927  0.28322  Biso   1.000  N
  N715     1.0000 0.16700  0.41023  0.30963  Biso   1.000  N
  N716     1.0000 0.07319  0.40552  0.27030  Biso   1.000  N
  N717     1.0000 0.76078  0.78303  0.59760  Biso   1.000  N
  N718     1.0000 0.86951  0.83320  0.58084  Biso   1.000  N
  N719     1.0000 0.84491  0.77007  0.67639  Biso   1.000  N
  N720     1.0000 0.46392  0.95313  0.31465  Biso   1.000  N
  N721     1.0000 0.42583  0.97699  0.25179  Biso   1.000  N
  N722     1.0000 0.79327  0.31627  0.06228  Biso   1.000  N
  N723     1.0000 0.86360  0.33657  0.08185  Biso   1.000  N
  N724     1.0000 0.35320  0.31319  0.68492  Biso   1.000  N
  N725     1.0000 0.79043  0.25246  0.16475  Biso   1.000  N
  N726     1.0000 0.96955  0.45291  0.33813  Biso   1.000  N
  N727     1.0000 0.26875  0.78936  0.10934  Biso   1.000  N
  N728     1.0000 0.35114  0.83744  0.09190  Biso   1.000  N
  N729     1.0000 0.34872  0.74612  0.15373  Biso   1.000  N
  N730     1.0000 0.96277  0.95066  0.80973  Biso   1.000  N
  N731     1.0000 0.91802  0.98876  0.73937  Biso   1.000  N
  N732     1.0000 0.26271  0.28523  0.60193  Biso   1.000  N
  N733     1.0000 0.34879  0.33831  0.59404  Biso   1.000  N
  N734     1.0000 0.34254  0.26299  0.67883  Biso   1.000  N
  N735     1.0000 0.96560  0.74023  0.03092  Biso   1.000  N
  N736     1.0000 0.35584  0.44242  0.17569  Biso   1.000  N
  N737     1.0000 0.87259  0.40387  0.56637  Biso   1.000  N
  N738     1.0000 0.28658  0.48561  0.09001  Biso   1.000  N
  N739     1.0000 0.29414  0.37453  0.89803  Biso   1.000  N
  N740     1.0000 0.97221  0.30578  0.40268  Biso   1.000  N
  N741     1.0000 0.96869  0.24023  0.52971  Biso   1.000  N
  N742     1.0000 0.28997  0.93776  0.69440  Biso   1.000  N
  N743     1.0000 0.35259  0.91274  0.66586  Biso   1.000  N
  N744     1.0000 0.29280  0.99567  0.58540  Biso   1.000  N
  N745     1.0000 0.31255  0.86547  0.40677  Biso   1.000  N
  N746     1.0000 0.50672  0.80934  0.40257  Biso   1.000  N
  N747     1.0000 0.45259  0.73878  0.53646  Biso   1.000  N
  N748     1.0000 0.85772  0.44371  0.67531  Biso   1.000  N
  N749     1.0000 0.37213  0.40438  0.06823  Biso   1.000  N
  N750     1.0000 0.78757  0.48620  0.58917  Biso   1.000  N
  N751     1.0000 0.47331  0.30679  0.90114  Biso   1.000  N
  N752     1.0000 0.46712  0.24027  0.02870  Biso   1.000  N
  N753     1.0000 0.85115  0.91253  0.16257  Biso   1.000  N
  N754     1.0000 0.33386  0.93944  0.58805  Biso   1.000  N
  N755     1.0000 0.81279  0.86607  0.90768  Biso   1.000  N
  N756     1.0000 0.27420  0.93671  0.39758  Biso   1.000  N
  N757     1.0000 0.95052  0.32101  0.67777  Biso   1.000  N
  N758     1.0000 0.88092  0.33392  0.66766  Biso   1.000  N
  N759     1.0000 0.37801  0.33406  0.07826  Biso   1.000  N
  N760     1.0000 0.96213  0.27419  0.59574  Biso   1.000  N
  N761     1.0000 0.28760  0.44907  0.93961  Biso   1.000  N
  N762     1.0000 0.95624  0.81643  0.18659  Biso   1.000  N
  N763     1.0000 0.87932  0.83193  0.16907  Biso   1.000  N
  N764     1.0000 0.96177  0.77300  0.09538  Biso   1.000  N
  N765     1.0000 0.77509  0.93979  0.89755  Biso   1.000  N
  N766     1.0000 0.45324  0.31885  0.18052  Biso   1.000  N
  N767     1.0000 0.38183  0.33328  0.16845  Biso   1.000  N
  N768     1.0000 0.87892  0.33459  0.57747  Biso   1.000  N
  N769     1.0000 0.46122  0.27384  0.09470  Biso   1.000  N
  N770     1.0000 0.77432  0.44009  0.39931  Biso   1.000  N
  N771     1.0000 0.45688  0.81282  0.69259  Biso   1.000  N
  N772     1.0000 0.40727  0.83462  0.64228  Biso   1.000  N
  N773     1.0000 0.46375  0.77218  0.59681  Biso   1.000  N
  N774     1.0000 0.78695  0.29857  0.31494  Biso   1.000  N
  N775     1.0000 0.82708  0.26810  0.24745  Biso   1.000  N
  N776     1.0000 0.35753  0.93346  0.12653  Biso   1.000  N
  N777     1.0000 0.87910  0.90282  0.68108  Biso   1.000  N
  N778     1.0000 0.39771  0.98155  0.14689  Biso   1.000  N
  N779     1.0000 0.78694  0.79580  0.81706  Biso   1.000  N
  N780     1.0000 0.83167  0.75957  0.73945  Biso   1.000  N
  N781     1.0000 0.38992  0.44371  0.57373  Biso   1.000  N
  N782     1.0000 0.87679  0.41532  0.17189  Biso   1.000  N
  N783     1.0000 0.46204  0.47526  0.65452  Biso   1.000  N
  N784     1.0000 0.27270  0.31558  0.85297  Biso   1.000  N
  N785     1.0000 0.86180  0.93300  0.63079  Biso   1.000  N
  N786     1.0000 0.37807  0.91583  0.16850  Biso   1.000  N
  N787     1.0000 0.91615  0.96395  0.63095  Biso   1.000  N
  N788     1.0000 0.28784  0.79660  0.31550  Biso   1.000  N
  N789     1.0000 0.27537  0.76010  0.23714  Biso   1.000  N
  N790     1.0000 0.88048  0.41537  0.08153  Biso   1.000  N
  N791     1.0000 0.37624  0.41590  0.67223  Biso   1.000  N
  N792     1.0000 0.95108  0.45847  0.15339  Biso   1.000  N
  F1       1.0000 0.81412  0.93934  0.88635  Biso   1.000  F
  F2       1.0000 0.81151  0.43935  0.38799  Biso   1.000  F
  F3       1.0000 0.31206  0.81163  0.36243  Biso   1.000  F
  F4       1.0000 0.31037  0.31257  0.86298  Biso   1.000  F
  F5       1.0000 0.93631  0.31355  0.38564  Biso   1.000  F
  F6       1.0000 0.43796  0.31322  0.88477  Biso   1.000  F
  F7       1.0000 0.43763  0.81205  0.38693  Biso   1.000  F
  F8       1.0000 0.43746  0.44033  0.86255  Biso   1.000  F
  F9       1.0000 0.43809  0.93791  0.36330  Biso   1.000  F
  F10      1.0000 0.93691  0.43964  0.36390  Biso   1.000  F
  F11      1.0000 0.94001  0.93900  0.86204  Biso   1.000  F
  F12      1.0000 0.68702  0.06044  0.61378  Biso   1.000  F
  F13      1.0000 0.68806  0.56062  0.11451  Biso   1.000  F
  F14      1.0000 0.56131  0.56199  0.13761  Biso   1.000  F
  F15      1.0000 0.56214  0.06112  0.63848  Biso   1.000  F
  F16      1.0000 0.06164  0.55964  0.63664  Biso   1.000  F
  F17      1.0000 0.06313  0.06098  0.13889  Biso   1.000  F
  F18      1.0000 0.06067  0.18547  0.11213  Biso   1.000  F
  F19      1.0000 0.55967  0.18701  0.61288  Biso   1.000  F
  F20      1.0000 0.18763  0.68711  0.63776  Biso   1.000  F
  F21      1.0000 0.18640  0.18823  0.13570  Biso   1.000  F
  F22      1.0000 0.18767  0.06020  0.11492  Biso   1.000  F
  F23      1.0000 0.18788  0.56009  0.61090  Biso   1.000  F
  F24      1.0000 0.68613  0.18896  0.63590  Biso   1.000  F
  F25      1.0000 0.68705  0.68640  0.13660  Biso   1.000  F
  F26      1.0000 0.06046  0.68736  0.61516  Biso   1.000  F
  F27      1.0000 0.56067  0.68626  0.11310  Biso   1.000  F
  F28      1.0000 0.31202  0.93887  0.38702  Biso   1.000  F
  F29      1.0000 0.31147  0.43786  0.88919  Biso   1.000  F
  F30      1.0000 0.93788  0.81199  0.88792  Biso   1.000  F
  F31      1.0000 0.81002  0.31340  0.36193  Biso   1.000  F
  F32      1.0000 0.81221  0.81088  0.86316  Biso   1.000  F
  F33      1.0000 0.12832  0.37087  0.50176  Biso   1.000  F
  F34      1.0000 0.12834  0.87010  0.99891  Biso   1.000  F
  F35      1.0000 0.62088  0.87510  0.00077  Biso   1.000  F
  F36      1.0000 0.62199  0.37891  0.49846  Biso   1.000  F
  F37      1.0000 0.12498  0.87119  0.24918  Biso   1.000  F
  F38      1.0000 0.12030  0.37103  0.75057  Biso   1.000  F
  F39      1.0000 0.62853  0.37798  0.75039  Biso   1.000  F
  F40      1.0000 0.62922  0.87707  0.25166  Biso   1.000  F
  F41      1.0000 0.50082  0.12842  0.37133  Biso   1.000  F
  F42      1.0000 0.99966  0.12712  0.86925  Biso   1.000  F
  F43      1.0000 0.00088  0.62051  0.87774  Biso   1.000  F
  F44      1.0000 0.50050  0.62227  0.37810  Biso   1.000  F
  F45      1.0000 0.25079  0.11999  0.87435  Biso   1.000  F
  F46      1.0000 0.74996  0.12163  0.37273  Biso   1.000  F
  F47      1.0000 0.75217  0.63087  0.37673  Biso   1.000  F
  F48      1.0000 0.25101  0.62884  0.87585  Biso   1.000  F
  F49      1.0000 0.37156  0.49844  0.12911  Biso   1.000  F
  F50      1.0000 0.87788  0.99943  0.62226  Biso   1.000  F
  F51      1.0000 0.87916  0.49941  0.12157  Biso   1.000  F
  F52      1.0000 0.86966  0.25015  0.12223  Biso   1.000  F
  F53      1.0000 0.87250  0.74806  0.62051  Biso   1.000  F
  F54      1.0000 0.37823  0.74854  0.62665  Biso   1.000  F
  F55      1.0000 0.37681  0.24895  0.12829  Biso   1.000  F
  F56      1.0000 0.12243  0.37736  0.99941  Biso   1.000  F
  F57      1.0000 0.12112  0.87591  0.49948  Biso   1.000  F
  F58      1.0000 0.62758  0.87174  0.50048  Biso   1.000  F
  F59      1.0000 0.62698  0.37104  0.00082  Biso   1.000  F
  F60      1.0000 0.62190  0.36899  0.25239  Biso   1.000  F
  F61      1.0000 0.62146  0.87387  0.74949  Biso   1.000  F
  F62      1.0000 0.12835  0.87736  0.74929  Biso   1.000  F
  F63      1.0000 0.12923  0.37723  0.25126  Biso   1.000  F
  F64      1.0000 0.87750  0.74835  0.12870  Biso   1.000  F
  F65      1.0000 0.87682  0.24932  0.62763  Biso   1.000  F
  F66      1.0000 0.37139  0.24962  0.62118  Biso   1.000  F
  F67      1.0000 0.37237  0.74878  0.12129  Biso   1.000  F
  F68      1.0000 0.87164  0.50006  0.62916  Biso   1.000  F
  F69      1.0000 0.86985  0.99937  0.12784  Biso   1.000  F
  F70      1.0000 0.37552  0.99939  0.12000  Biso   1.000  F
  F71      1.0000 0.37780  0.49945  0.62039  Biso   1.000  F
  F72      1.0000 0.24985  0.62236  0.37234  Biso   1.000  F
  F73      1.0000 0.75021  0.62041  0.87325  Biso   1.000  F
  F74      1.0000 0.74920  0.12791  0.87724  Biso   1.000  F
  F75      1.0000 0.24932  0.12796  0.37727  Biso   1.000  F
  F76      1.0000 0.00000  0.11953  0.37681  Biso   1.000  F
  F77      1.0000 0.49879  0.11982  0.87812  Biso   1.000  F
  F78      1.0000 0.50109  0.62751  0.86994  Biso   1.000  F
  F79      1.0000 0.00137  0.62816  0.37215  Biso   1.000  F
  F80      1.0000 0.87023  0.62792  0.50024  Biso   1.000  F
  F81      1.0000 0.37828  0.12153  0.00079  Biso   1.000  F
  F82      1.0000 0.37712  0.62044  0.50082  Biso   1.000  F
  F83      1.0000 0.87796  0.12977  0.75156  Biso   1.000  F
  F84      1.0000 0.87961  0.62696  0.25095  Biso   1.000  F
  F85      1.0000 0.37369  0.62044  0.25012  Biso   1.000  F
  F86      1.0000 0.37081  0.12174  0.75038  Biso   1.000  F
  F87      1.0000 0.49930  0.87389  0.63233  Biso   1.000  F
  F88      1.0000 0.00014  0.87140  0.12793  Biso   1.000  F
  F89      1.0000 0.49996  0.37762  0.62400  Biso   1.000  F
  F90      1.0000 0.74893  0.87712  0.12888  Biso   1.000  F
  F91      1.0000 0.25204  0.87689  0.62889  Biso   1.000  F
  F92      1.0000 0.24953  0.37205  0.62410  Biso   1.000  F
  F93      1.0000 0.74979  0.36819  0.12533  Biso   1.000  F
  F94      1.0000 0.62771  0.49993  0.87095  Biso   1.000  F
  F95      1.0000 0.62786  0.00038  0.37025  Biso   1.000  F
  F96      1.0000 0.12274  0.50050  0.88107  Biso   1.000  F
  F97      1.0000 0.12808  0.75117  0.87921  Biso   1.000  F
  F98      1.0000 0.13032  0.24894  0.37770  Biso   1.000  F
  F99      1.0000 0.62240  0.25123  0.37309  Biso   1.000  F
  F100     1.0000 0.62322  0.74929  0.87158  Biso   1.000  F
  F101     1.0000 0.87762  0.62162  0.00123  Biso   1.000  F
  F102     1.0000 0.87829  0.12151  0.49996  Biso   1.000  F
  F103     1.0000 0.37117  0.12793  0.50070  Biso   1.000  F
  F104     1.0000 0.37322  0.62945  0.00097  Biso   1.000  F
  F105     1.0000 0.37878  0.62948  0.75120  Biso   1.000  F
  F106     1.0000 0.37752  0.12900  0.25186  Biso   1.000  F
  F107     1.0000 0.87317  0.12136  0.24998  Biso   1.000  F
  F108     1.0000 0.87239  0.62109  0.75131  Biso   1.000  F
  F109     1.0000 0.12154  0.25150  0.87272  Biso   1.000  F
  F110     1.0000 0.12180  0.74949  0.37121  Biso   1.000  F
  F111     1.0000 0.62884  0.74985  0.37883  Biso   1.000  F
  F112     1.0000 0.62774  0.25063  0.87817  Biso   1.000  F
  F113     1.0000 0.12920  0.49991  0.37242  Biso   1.000  F
  F114     1.0000 0.12579  0.00030  0.86772  Biso   1.000  F
  F115     1.0000 0.62193  0.99962  0.87741  Biso   1.000  F
  F116     1.0000 0.62264  0.50036  0.38091  Biso   1.000  F
  F117     1.0000 0.74948  0.37798  0.62665  Biso   1.000  F
  F118     1.0000 0.25024  0.37846  0.12772  Biso   1.000  F
  F119     1.0000 0.25130  0.87449  0.12028  Biso   1.000  F
  F120     1.0000 0.75026  0.87258  0.62342  Biso   1.000  F
  F121     1.0000 0.00080  0.88092  0.62204  Biso   1.000  F
  F122     1.0000 0.50195  0.87967  0.12143  Biso   1.000  F
  F123     1.0000 0.50068  0.37163  0.12773  Biso   1.000  F
  F124     1.0000 0.99956  0.37335  0.62953  Biso   1.000  F
  F125     1.0000 0.12436  0.33455  0.62606  Biso   1.000  F
  F126     1.0000 0.62353  0.83568  0.62573  Biso   1.000  F
  F127     1.0000 0.62414  0.91588  0.12665  Biso   1.000  F
  F128     1.0000 0.12634  0.41492  0.12574  Biso   1.000  F
  F129     1.0000 0.12529  0.83398  0.12398  Biso   1.000  F
  F130     1.0000 0.62645  0.41462  0.62433  Biso   1.000  F
  F131     1.0000 0.62735  0.12681  0.33258  Biso   1.000  F
  F132     1.0000 0.62629  0.62592  0.83296  Biso   1.000  F
  F133     1.0000 0.12616  0.62635  0.91716  Biso   1.000  F
  F134     1.0000 0.12484  0.12639  0.41559  Biso   1.000  F
  F135     1.0000 0.12579  0.12711  0.83242  Biso   1.000  F
  F136     1.0000 0.62591  0.62501  0.41727  Biso   1.000  F
  F137     1.0000 0.33453  0.62365  0.12631  Biso   1.000  F
  F138     1.0000 0.83529  0.62530  0.62692  Biso   1.000  F
  F139     1.0000 0.91636  0.12439  0.62642  Biso   1.000  F
  F140     1.0000 0.83262  0.12612  0.12540  Biso   1.000  F
  F141     1.0000 0.41662  0.62337  0.62663  Biso   1.000  F
  F142     1.0000 0.41583  0.12376  0.12644  Biso   1.000  F
  F143     1.0000 0.08359  0.37740  0.87506  Biso   1.000  F
  F144     1.0000 0.66657  0.87554  0.37577  Biso   1.000  F
  F145     1.0000 0.58411  0.37621  0.37357  Biso   1.000  F
  F146     1.0000 0.58538  0.87420  0.87540  Biso   1.000  F
  F147     1.0000 0.16643  0.87515  0.87378  Biso   1.000  F
  F148     1.0000 0.16738  0.37583  0.37699  Biso   1.000  F
  F149     1.0000 0.87368  0.87276  0.16699  Biso   1.000  F
  F150     1.0000 0.37480  0.37678  0.58505  Biso   1.000  F
  F151     1.0000 0.87285  0.37548  0.66446  Biso   1.000  F
  F152     1.0000 0.37689  0.87528  0.08270  Biso   1.000  F
  F153     1.0000 0.37444  0.58398  0.37434  Biso   1.000  F
  F154     1.0000 0.87439  0.16560  0.87453  Biso   1.000  F
  F155     1.0000 0.87503  0.08325  0.37455  Biso   1.000  F
  F156     1.0000 0.87480  0.58299  0.87628  Biso   1.000  F
  F157     1.0000 0.37610  0.66540  0.87571  Biso   1.000  F
  F158     1.0000 0.37457  0.16579  0.37518  Biso   1.000  F
  F159     1.0000 0.87613  0.66584  0.37536  Biso   1.000  F
  F160     1.0000 0.37559  0.08317  0.87486  Biso   1.000  F
  F161     1.0000 0.37453  0.87327  0.66740  Biso   1.000  F
  F162     1.0000 0.37415  0.37477  0.16549  Biso   1.000  F
  F163     1.0000 0.87412  0.37553  0.08450  Biso   1.000  F
  F164     1.0000 0.87613  0.87464  0.58354  Biso   1.000  F
  F165     1.0000 0.66724  0.37711  0.87527  Biso   1.000  F
  F166     1.0000 0.08541  0.87482  0.37384  Biso   1.000  F
  F167     1.0000 0.91680  0.62365  0.12617  Biso   1.000  F
  F168     1.0000 0.33317  0.12387  0.62640  Biso   1.000  F
  F169     1.0000 0.12542  0.62569  0.33266  Biso   1.000  F
  F170     1.0000 0.62293  0.12523  0.91597  Biso   1.000  F
  F171     1.0000 0.12737  0.91583  0.62311  Biso   1.000  F
  F172     1.0000 0.62568  0.33352  0.12653  Biso   1.000  F
  F173     1.0000 0.26855  0.19584  0.77252  Biso   1.000  F
  F174     1.0000 0.27196  0.69525  0.27147  Biso   1.000  F
  F175     1.0000 0.77058  0.69430  0.77197  Biso   1.000  F
  F176     1.0000 0.47982  0.05297  0.26959  Biso   1.000  F
  F177     1.0000 0.98074  0.05459  0.77009  Biso   1.000  F
  F178     1.0000 0.97818  0.69575  0.98037  Biso   1.000  F
  F179     1.0000 0.97929  0.19562  0.47978  Biso   1.000  F
  F180     1.0000 0.47837  0.69498  0.48271  Biso   1.000  F
  F181     1.0000 0.47824  0.19656  0.97999  Biso   1.000  F
  F182     1.0000 0.76930  0.55466  0.47732  Biso   1.000  F
  F183     1.0000 0.76993  0.05419  0.98000  Biso   1.000  F
  F184     1.0000 0.77108  0.26733  0.19765  Biso   1.000  F
  F185     1.0000 0.77195  0.77121  0.69687  Biso   1.000  F
  F186     1.0000 0.26985  0.48038  0.05246  Biso   1.000  F
  F187     1.0000 0.27202  0.98040  0.55304  Biso   1.000  F
  F188     1.0000 0.97764  0.98229  0.69700  Biso   1.000  F
  F189     1.0000 0.97997  0.48080  0.19817  Biso   1.000  F
  F190     1.0000 0.47853  0.98258  0.19718  Biso   1.000  F
  F191     1.0000 0.48164  0.47852  0.69622  Biso   1.000  F
  F192     1.0000 0.48192  0.77227  0.55406  Biso   1.000  F
  F193     1.0000 0.98100  0.77003  0.05316  Biso   1.000  F
  F194     1.0000 0.19736  0.76904  0.26962  Biso   1.000  F
  F195     1.0000 0.69800  0.77135  0.76706  Biso   1.000  F
  F196     1.0000 0.05465  0.26943  0.47838  Biso   1.000  F
  F197     1.0000 0.05351  0.76833  0.97925  Biso   1.000  F
  F198     1.0000 0.69528  0.97889  0.98072  Biso   1.000  F
  F199     1.0000 0.69509  0.48022  0.48064  Biso   1.000  F
  F200     1.0000 0.19614  0.97857  0.48116  Biso   1.000  F
  F201     1.0000 0.19756  0.47905  0.98100  Biso   1.000  F
  F202     1.0000 0.55461  0.47732  0.76978  Biso   1.000  F
  F203     1.0000 0.55510  0.97878  0.26956  Biso   1.000  F
  F204     1.0000 0.94528  0.52000  0.73091  Biso   1.000  F
  F205     1.0000 0.94674  0.02077  0.22908  Biso   1.000  F
  F206     1.0000 0.80359  0.72830  0.22976  Biso   1.000  F
  F207     1.0000 0.30227  0.73161  0.72826  Biso   1.000  F
  F208     1.0000 0.44512  0.22877  0.51902  Biso   1.000  F
  F209     1.0000 0.44623  0.72938  0.01945  Biso   1.000  F
  F210     1.0000 0.30485  0.02140  0.01861  Biso   1.000  F
  F211     1.0000 0.30268  0.52033  0.51943  Biso   1.000  F
  F212     1.0000 0.80436  0.02204  0.51887  Biso   1.000  F
  F213     1.0000 0.80249  0.52088  0.01804  Biso   1.000  F
  F214     1.0000 0.02105  0.01697  0.30203  Biso   1.000  F
  F215     1.0000 0.02246  0.51953  0.80577  Biso   1.000  F
  F216     1.0000 0.52024  0.01904  0.80455  Biso   1.000  F
  F217     1.0000 0.52051  0.51992  0.30457  Biso   1.000  F
  F218     1.0000 0.23069  0.52027  0.44794  Biso   1.000  F
  F219     1.0000 0.22890  0.02150  0.94591  Biso   1.000  F
  F220     1.0000 0.72971  0.22980  0.80409  Biso   1.000  F
  F221     1.0000 0.72972  0.73069  0.30265  Biso   1.000  F
  F222     1.0000 0.52207  0.72978  0.94666  Biso   1.000  F
  F223     1.0000 0.02160  0.72978  0.44679  Biso   1.000  F
  F224     1.0000 0.52008  0.44336  0.23055  Biso   1.000  F
  F225     1.0000 0.02076  0.44442  0.73258  Biso   1.000  F
  F226     1.0000 0.01961  0.30422  0.02101  Biso   1.000  F
  F227     1.0000 0.01803  0.80451  0.52097  Biso   1.000  F
  F228     1.0000 0.52010  0.30446  0.51988  Biso   1.000  F
  F229     1.0000 0.51945  0.80408  0.02251  Biso   1.000  F
  F230     1.0000 0.73048  0.94604  0.51939  Biso   1.000  F
  F231     1.0000 0.72944  0.44516  0.02041  Biso   1.000  F
  F232     1.0000 0.23052  0.80247  0.72667  Biso   1.000  F
  F233     1.0000 0.23044  0.30425  0.23045  Biso   1.000  F
  F234     1.0000 0.72965  0.30404  0.72990  Biso   1.000  F
  F235     1.0000 0.73045  0.80283  0.22904  Biso   1.000  F
  F236     1.0000 0.51824  0.94539  0.72827  Biso   1.000  F
  F237     1.0000 0.02109  0.94649  0.22927  Biso   1.000  F
  F238     1.0000 0.22995  0.44644  0.52186  Biso   1.000  F
  F239     1.0000 0.22859  0.94561  0.01740  Biso   1.000  F
  F240     1.0000 0.22945  0.73209  0.80200  Biso   1.000  F
  F241     1.0000 0.23148  0.22819  0.30350  Biso   1.000  F
  F242     1.0000 0.73041  0.52110  0.94691  Biso   1.000  F
  F243     1.0000 0.73010  0.02170  0.44661  Biso   1.000  F
  F244     1.0000 0.52085  0.22885  0.44639  Biso   1.000  F
  F245     1.0000 0.01876  0.22840  0.94622  Biso   1.000  F
  F246     1.0000 0.80345  0.22766  0.73009  Biso   1.000  F
  F247     1.0000 0.30372  0.22708  0.23034  Biso   1.000  F
  F248     1.0000 0.94516  0.72829  0.51831  Biso   1.000  F
  F249     1.0000 0.94510  0.22933  0.01992  Biso   1.000  F
  F250     1.0000 0.44785  0.51993  0.23134  Biso   1.000  F
  F251     1.0000 0.44637  0.02068  0.73026  Biso   1.000  F
  F252     1.0000 0.05468  0.47737  0.26862  Biso   1.000  F
  F253     1.0000 0.05550  0.98008  0.77097  Biso   1.000  F
  F254     1.0000 0.19538  0.26862  0.77125  Biso   1.000  F
  F255     1.0000 0.69653  0.26970  0.27130  Biso   1.000  F
  F256     1.0000 0.55407  0.76996  0.47977  Biso   1.000  F
  F257     1.0000 0.55388  0.26960  0.97917  Biso   1.000  F
  F258     1.0000 0.77040  0.48042  0.55340  Biso   1.000  F
  F259     1.0000 0.77122  0.97976  0.05374  Biso   1.000  F
  F260     1.0000 0.27010  0.77181  0.19502  Biso   1.000  F
  F261     1.0000 0.26990  0.26760  0.69490  Biso   1.000  F
  F262     1.0000 0.48119  0.27025  0.05265  Biso   1.000  F
  F263     1.0000 0.98290  0.27089  0.55369  Biso   1.000  F
  F264     1.0000 0.48164  0.55489  0.77020  Biso   1.000  F
  F265     1.0000 0.98097  0.55343  0.27150  Biso   1.000  F
  F266     1.0000 0.27012  0.05375  0.47967  Biso   1.000  F
  F267     1.0000 0.27101  0.55530  0.97996  Biso   1.000  F
  F268     1.0000 0.77005  0.19651  0.27171  Biso   1.000  F
  H1       1.0000 0.33037  0.29421  0.75365  Biso   1.000  H
  H2       1.0000 0.22541  0.24721  0.82430  Biso   1.000  H
  H3       1.0000 0.10613  0.95537  0.47577  Biso   1.000  H
  H4       1.0000 0.09660  0.94310  0.41034  Biso   1.000  H
  H5       1.0000 0.10810  0.95875  0.36430  Biso   1.000  H
  H6       1.0000 0.11469  0.93200  0.35678  Biso   1.000  H
  H7       1.0000 0.64852  0.91914  0.89984  Biso   1.000  H
  H8       1.0000 0.16425  0.96148  0.41841  Biso   1.000  H
  H9       1.0000 0.13978  0.97108  0.40983  Biso   1.000  H
  H10      1.0000 0.33888  0.80124  0.27832  Biso   1.000  H
  H11      1.0000 0.24692  0.76710  0.32178  Biso   1.000  H
  H12      1.0000 0.08785  0.46573  0.98753  Biso   1.000  H
  H13      1.0000 0.08469  0.42012  0.87906  Biso   1.000  H
  H14      1.0000 0.12623  0.45910  0.88727  Biso   1.000  H
  H15      1.0000 0.13293  0.43331  0.87814  Biso   1.000  H
  H16      1.0000 0.68532  0.43224  0.39999  Biso   1.000  H
  H17      1.0000 0.12844  0.47351  0.94229  Biso   1.000  H
  H18      1.0000 0.17717  0.49945  0.92593  Biso   1.000  H
  H19      1.0000 0.15210  0.51048  0.91832  Biso   1.000  H
  H20      1.0000 0.84102  0.30075  0.24861  Biso   1.000  H
  H21      1.0000 0.72676  0.24750  0.32363  Biso   1.000  H
  H22      1.0000 0.60691  0.95460  0.97528  Biso   1.000  H
  H23      1.0000 0.59854  0.94287  0.91138  Biso   1.000  H
  H24      1.0000 0.60594  0.95774  0.86424  Biso   1.000  H
  H25      1.0000 0.61258  0.93106  0.85675  Biso   1.000  H
  H26      1.0000 0.14557  0.91504  0.40642  Biso   1.000  H
  H27      1.0000 0.67164  0.97310  0.91095  Biso   1.000  H
  H28      1.0000 0.64790  0.98397  0.90110  Biso   1.000  H
  H29      1.0000 0.84888  0.81242  0.77512  Biso   1.000  H
  H30      1.0000 0.74515  0.76659  0.82147  Biso   1.000  H
  H31      1.0000 0.56779  0.43353  0.45564  Biso   1.000  H
  H32      1.0000 0.58922  0.46587  0.48726  Biso   1.000  H
  H33      1.0000 0.59683  0.41599  0.39973  Biso   1.000  H
  H34      1.0000 0.61558  0.46066  0.36876  Biso   1.000  H
  H35      1.0000 0.62084  0.43405  0.35969  Biso   1.000  H
  H36      1.0000 0.18021  0.40380  0.88154  Biso   1.000  H
  H37      1.0000 0.62688  0.47259  0.44175  Biso   1.000  H
  H38      1.0000 0.67581  0.49876  0.42627  Biso   1.000  H
  H39      1.0000 0.65086  0.50994  0.41864  Biso   1.000  H
  H40      1.0000 0.84844  0.36659  0.43362  Biso   1.000  H
  H41      1.0000 0.41051  0.92483  0.24171  Biso   1.000  H
  H42      1.0000 0.51587  0.99518  0.27643  Biso   1.000  H
  H43      1.0000 0.51638  0.99424  0.32653  Biso   1.000  H
  H44      1.0000 0.68567  0.31127  0.95900  Biso   1.000  H
  H45      1.0000 0.66543  0.30845  0.90477  Biso   1.000  H
  H46      1.0000 0.63552  0.29050  0.86887  Biso   1.000  H
  H47      1.0000 0.62944  0.31702  0.86076  Biso   1.000  H
  H48      1.0000 0.05362  0.33199  0.39857  Biso   1.000  H
  H49      1.0000 0.07045  0.34894  0.38298  Biso   1.000  H
  H50      1.0000 0.58806  0.25948  0.95633  Biso   1.000  H
  H51      1.0000 0.61346  0.24973  0.94763  Biso   1.000  H
  H52      1.0000 0.60136  0.26088  0.90027  Biso   1.000  H
  H53      1.0000 0.40268  0.38381  0.92854  Biso   1.000  H
  H54      1.0000 0.41860  0.45680  0.75228  Biso   1.000  H
  H55      1.0000 0.41196  0.45091  0.77903  Biso   1.000  H
  H56      1.0000 0.51787  0.49669  0.77647  Biso   1.000  H
  H57      1.0000 0.51399  0.49262  0.82624  Biso   1.000  H
  H58      1.0000 0.68575  0.81173  0.45994  Biso   1.000  H
  H59      1.0000 0.65075  0.80655  0.41279  Biso   1.000  H
  H60      1.0000 0.64742  0.79198  0.36510  Biso   1.000  H
  H61      1.0000 0.64118  0.81864  0.35729  Biso   1.000  H
  H62      1.0000 0.06741  0.81738  0.89847  Biso   1.000  H
  H63      1.0000 0.08316  0.83494  0.88264  Biso   1.000  H
  H64      1.0000 0.58754  0.75903  0.45675  Biso   1.000  H
  H65      1.0000 0.61308  0.74936  0.44829  Biso   1.000  H
  H66      1.0000 0.60168  0.76119  0.40093  Biso   1.000  H
  H67      1.0000 0.39661  0.87592  0.41058  Biso   1.000  H
  H68      1.0000 0.90974  0.94446  0.74745  Biso   1.000  H
  H69      1.0000 0.01385  0.99391  0.82707  Biso   1.000  H
  H70      1.0000 0.18481  0.31433  0.45635  Biso   1.000  H
  H71      1.0000 0.17317  0.30446  0.39011  Biso   1.000  H
  H72      1.0000 0.12554  0.29144  0.38251  Biso   1.000  H
  H73      1.0000 0.11937  0.31804  0.37549  Biso   1.000  H
  H74      1.0000 0.55467  0.33031  0.89821  Biso   1.000  H
  H75      1.0000 0.57152  0.34708  0.88246  Biso   1.000  H
  H76      1.0000 0.08992  0.26436  0.45738  Biso   1.000  H
  H77      1.0000 0.11571  0.25468  0.44994  Biso   1.000  H
  H78      1.0000 0.10304  0.25884  0.40156  Biso   1.000  H
  H79      1.0000 0.90324  0.38407  0.43301  Biso   1.000  H
  H80      1.0000 0.93509  0.45837  0.25577  Biso   1.000  H
  H81      1.0000 0.01693  0.49622  0.27684  Biso   1.000  H
  H82      1.0000 0.01532  0.49246  0.32676  Biso   1.000  H
  H83      1.0000 0.15398  0.78778  0.98348  Biso   1.000  H
  H84      1.0000 0.15144  0.80736  0.91194  Biso   1.000  H
  H85      1.0000 0.14923  0.79194  0.86439  Biso   1.000  H
  H86      1.0000 0.14215  0.81827  0.85611  Biso   1.000  H
  H87      1.0000 0.56369  0.81928  0.39761  Biso   1.000  H
  H88      1.0000 0.57989  0.83601  0.38134  Biso   1.000  H
  H89      1.0000 0.08778  0.75796  0.95664  Biso   1.000  H
  H90      1.0000 0.11361  0.74892  0.94823  Biso   1.000  H
  H91      1.0000 0.10248  0.76163  0.90103  Biso   1.000  H
  H92      1.0000 0.89667  0.87634  0.91153  Biso   1.000  H
  H93      1.0000 0.02380  0.74500  0.92726  Biso   1.000  H
  H94      1.0000 0.18385  0.43662  0.29334  Biso   1.000  H
  H95      1.0000 0.15377  0.46484  0.26504  Biso   1.000  H
  H96      1.0000 0.16665  0.41687  0.36925  Biso   1.000  H
  H97      1.0000 0.12739  0.45893  0.36802  Biso   1.000  H
  H98      1.0000 0.11993  0.43313  0.37679  Biso   1.000  H
  H99      1.0000 0.56183  0.42896  0.85283  Biso   1.000  H
  H100     1.0000 0.11463  0.50120  0.30257  Biso   1.000  H
  H101     1.0000 0.07883  0.47449  0.33884  Biso   1.000  H
  H102     1.0000 0.10281  0.48518  0.34860  Biso   1.000  H
  H103     1.0000 0.90385  0.36688  0.31694  Biso   1.000  H
  H104     1.0000 0.93998  0.29344  0.49332  Biso   1.000  H
  H105     1.0000 0.01703  0.25263  0.47186  Biso   1.000  H
  H106     1.0000 0.01528  0.25472  0.42178  Biso   1.000  H
  H107     1.0000 0.18421  0.93339  0.79627  Biso   1.000  H
  H108     1.0000 0.15967  0.96359  0.76485  Biso   1.000  H
  H109     1.0000 0.17113  0.94537  0.85704  Biso   1.000  H
  H110     1.0000 0.12396  0.95873  0.86677  Biso   1.000  H
  H111     1.0000 0.11809  0.93241  0.87487  Biso   1.000  H
  H112     1.0000 0.56079  0.92896  0.35211  Biso   1.000  H
  H113     1.0000 0.09190  0.95664  0.82246  Biso   1.000  H
  H114     1.0000 0.89360  0.87729  0.79983  Biso   1.000  H
  H115     1.0000 0.41242  0.80814  0.50422  Biso   1.000  H
  H116     1.0000 0.52541  0.74584  0.46940  Biso   1.000  H
  H117     1.0000 0.68363  0.43651  0.79269  Biso   1.000  H
  H118     1.0000 0.65478  0.46535  0.76377  Biso   1.000  H
  H119     1.0000 0.66595  0.41744  0.86885  Biso   1.000  H
  H120     1.0000 0.62656  0.45939  0.86770  Biso   1.000  H
  H121     1.0000 0.61909  0.43343  0.87617  Biso   1.000  H
  H122     1.0000 0.06271  0.42939  0.35260  Biso   1.000  H
  H123     1.0000 0.60337  0.51195  0.81451  Biso   1.000  H
  H124     1.0000 0.59071  0.45659  0.82367  Biso   1.000  H
  H125     1.0000 0.61570  0.46667  0.83178  Biso   1.000  H
  H126     1.0000 0.40135  0.36865  0.82613  Biso   1.000  H
  H127     1.0000 0.43705  0.29239  0.99316  Biso   1.000  H
  H128     1.0000 0.51501  0.25395  0.97212  Biso   1.000  H
  H129     1.0000 0.51603  0.25389  0.92198  Biso   1.000  H
  H130     1.0000 0.68213  0.93442  0.29537  Biso   1.000  H
  H131     1.0000 0.65808  0.96484  0.26371  Biso   1.000  H
  H132     1.0000 0.66489  0.94183  0.34465  Biso   1.000  H
  H133     1.0000 0.65873  0.91564  0.35313  Biso   1.000  H
  H134     1.0000 0.63356  0.96037  0.37901  Biso   1.000  H
  H135     1.0000 0.06169  0.92971  0.85243  Biso   1.000  H
  H136     1.0000 0.59278  0.95560  0.32182  Biso   1.000  H
  H137     1.0000 0.39358  0.87806  0.29686  Biso   1.000  H
  H138     1.0000 0.83165  0.45337  0.49647  Biso   1.000  H
  H139     1.0000 0.73028  0.50014  0.47187  Biso   1.000  H
  H140     1.0000 0.73567  0.49180  0.42277  Biso   1.000  H
  H141     1.0000 0.59161  0.78544  0.76511  Biso   1.000  H
  H142     1.0000 0.57887  0.80334  0.86333  Biso   1.000  H
  H143     1.0000 0.62772  0.79279  0.86460  Biso   1.000  H
  H144     1.0000 0.63321  0.81952  0.87271  Biso   1.000  H
  H145     1.0000 0.19055  0.81989  0.35309  Biso   1.000  H
  H146     1.0000 0.17449  0.83655  0.36973  Biso   1.000  H
  H147     1.0000 0.63215  0.75813  0.79906  Biso   1.000  H
  H148     1.0000 0.67611  0.76445  0.83554  Biso   1.000  H
  H149     1.0000 0.65147  0.75468  0.84511  Biso   1.000  H
  H150     1.0000 0.85399  0.87646  0.84162  Biso   1.000  H
  H151     1.0000 0.83077  0.95380  0.99661  Biso   1.000  H
  H152     1.0000 0.73690  0.99215  0.92377  Biso   1.000  H
  H153     1.0000 0.59648  0.28660  0.26687  Biso   1.000  H
  H154     1.0000 0.59773  0.30665  0.33892  Biso   1.000  H
  H155     1.0000 0.60463  0.29244  0.38639  Biso   1.000  H
  H156     1.0000 0.61101  0.31926  0.39357  Biso   1.000  H
  H157     1.0000 0.18206  0.31799  0.85066  Biso   1.000  H
  H158     1.0000 0.16634  0.33534  0.86682  Biso   1.000  H
  H159     1.0000 0.63694  0.24978  0.30383  Biso   1.000  H
  H160     1.0000 0.67294  0.27464  0.34128  Biso   1.000  H
  H161     1.0000 0.64807  0.26506  0.35027  Biso   1.000  H
  H162     1.0000 0.84874  0.38303  0.31938  Biso   1.000  H
  H163     1.0000 0.24516  0.48567  0.96993  Biso   1.000  H
  H164     1.0000 0.22558  0.50415  0.92775  Biso   1.000  H
  H165     1.0000 0.08878  0.78606  0.26415  Biso   1.000  H
  H166     1.0000 0.07793  0.80409  0.36239  Biso   1.000  H
  H167     1.0000 0.12657  0.79280  0.36432  Biso   1.000  H
  H168     1.0000 0.13242  0.81951  0.37218  Biso   1.000  H
  H169     1.0000 0.69013  0.81989  0.85242  Biso   1.000  H
  H170     1.0000 0.67430  0.83652  0.86925  Biso   1.000  H
  H171     1.0000 0.13437  0.75454  0.29922  Biso   1.000  H
  H172     1.0000 0.17267  0.77086  0.33895  Biso   1.000  H
  H173     1.0000 0.14732  0.76168  0.34707  Biso   1.000  H
  H174     1.0000 0.35671  0.87501  0.34109  Biso   1.000  H
  H175     1.0000 0.33136  0.95263  0.49675  Biso   1.000  H
  H176     1.0000 0.23632  0.99200  0.42391  Biso   1.000  H
  H177     1.0000 0.09758  0.28742  0.76704  Biso   1.000  H
  H178     1.0000 0.09570  0.30822  0.83916  Biso   1.000  H
  H179     1.0000 0.10466  0.29265  0.88587  Biso   1.000  H
  H180     1.0000 0.11136  0.31931  0.89349  Biso   1.000  H
  H181     1.0000 0.68635  0.31810  0.35217  Biso   1.000  H
  H182     1.0000 0.16243  0.25766  0.79486  Biso   1.000  H
  H183     1.0000 0.13713  0.24786  0.80389  Biso   1.000  H
  H184     1.0000 0.14752  0.26425  0.85013  Biso   1.000  H
  H185     1.0000 0.34719  0.38110  0.81157  Biso   1.000  H
  H186     1.0000 0.74405  0.34295  0.31847  Biso   1.000  H
  H187     1.0000 0.77150  0.34951  0.32288  Biso   1.000  H
  H188     1.0000 0.78431  0.22363  0.24731  Biso   1.000  H
  H189     1.0000 0.82465  0.24545  0.26745  Biso   1.000  H
  H190     1.0000 0.45271  0.06812  0.93512  Biso   1.000  H
  H191     1.0000 0.48686  0.08873  0.96531  Biso   1.000  H
  H192     1.0000 0.40200  0.08161  0.94277  Biso   1.000  H
  H193     1.0000 0.39394  0.08738  0.91618  Biso   1.000  H
  H194     1.0000 0.36366  0.12333  0.93310  Biso   1.000  H
  H195     1.0000 0.90102  0.67629  0.93707  Biso   1.000  H
  H196     1.0000 0.88531  0.65956  0.92069  Biso   1.000  H
  H197     1.0000 0.45633  0.16198  0.98923  Biso   1.000  H
  H198     1.0000 0.44743  0.13683  0.99860  Biso   1.000  H
  H199     1.0000 0.40085  0.14794  0.98358  Biso   1.000  H
  H200     1.0000 0.42973  0.34936  0.86542  Biso   1.000  H
  H201     1.0000 0.74384  0.83990  0.82161  Biso   1.000  H
  H202     1.0000 0.77115  0.84644  0.82637  Biso   1.000  H
  H203     1.0000 0.77747  0.73343  0.75294  Biso   1.000  H
  H204     1.0000 0.82720  0.73573  0.75774  Biso   1.000  H
  H205     1.0000 0.46087  0.56256  0.43995  Biso   1.000  H
  H206     1.0000 0.48149  0.60248  0.46190  Biso   1.000  H
  H207     1.0000 0.39957  0.57995  0.44242  Biso   1.000  H
  H208     1.0000 0.39117  0.58611  0.41600  Biso   1.000  H
  H209     1.0000 0.37434  0.61960  0.45969  Biso   1.000  H
  H210     1.0000 0.90180  0.14569  0.42035  Biso   1.000  H
  H211     1.0000 0.45414  0.66426  0.49560  Biso   1.000  H
  H212     1.0000 0.44486  0.63909  0.50511  Biso   1.000  H
  H213     1.0000 0.40140  0.64647  0.48133  Biso   1.000  H
  H214     1.0000 0.41068  0.85507  0.37410  Biso   1.000  H
  H215     1.0000 0.24954  0.33209  0.79823  Biso   1.000  H
  H216     1.0000 0.27662  0.33842  0.80442  Biso   1.000  H
  H217     1.0000 0.27834  0.23048  0.75437  Biso   1.000  H
  H218     1.0000 0.98216  0.10068  0.46115  Biso   1.000  H
  H219     1.0000 0.90940  0.09137  0.44267  Biso   1.000  H
  H220     1.0000 0.90112  0.09720  0.41622  Biso   1.000  H
  H221     1.0000 0.86483  0.10589  0.45996  Biso   1.000  H
  H222     1.0000 0.39788  0.68309  0.43571  Biso   1.000  H
  H223     1.0000 0.38237  0.66560  0.41953  Biso   1.000  H
  H224     1.0000 0.95660  0.16207  0.49036  Biso   1.000  H
  H225     1.0000 0.94732  0.13707  0.50005  Biso   1.000  H
  H226     1.0000 0.90132  0.14786  0.48337  Biso   1.000  H
  H227     1.0000 0.91970  0.35151  0.36793  Biso   1.000  H
  H228     1.0000 0.24443  0.84040  0.32023  Biso   1.000  H
  H229     1.0000 0.27174  0.84710  0.32498  Biso   1.000  H
  H230     1.0000 0.27865  0.73759  0.25683  Biso   1.000  H
  H231     1.0000 0.32853  0.73394  0.25389  Biso   1.000  H
  H232     1.0000 0.95946  0.56197  0.93924  Biso   1.000  H
  H233     1.0000 0.98120  0.60023  0.96299  Biso   1.000  H
  H234     1.0000 0.89708  0.57895  0.94330  Biso   1.000  H
  H235     1.0000 0.88892  0.58527  0.91687  Biso   1.000  H
  H236     1.0000 0.87447  0.62025  0.96023  Biso   1.000  H
  H237     1.0000 0.40052  0.14586  0.91947  Biso   1.000  H
  H238     1.0000 0.95702  0.65853  0.98431  Biso   1.000  H
  H239     1.0000 0.94775  0.63380  0.99465  Biso   1.000  H
  H240     1.0000 0.90059  0.64999  0.99109  Biso   1.000  H
  H241     1.0000 0.92398  0.84825  0.86768  Biso   1.000  H
  H242     1.0000 0.24222  0.41030  0.92311  Biso   1.000  H
  H243     1.0000 0.26937  0.40241  0.91945  Biso   1.000  H
  H244     1.0000 0.98220  0.65239  0.28693  Biso   1.000  H
  H245     1.0000 0.90298  0.64974  0.33404  Biso   1.000  H
  H246     1.0000 0.86627  0.63955  0.29093  Biso   1.000  H
  H247     1.0000 0.85826  0.63431  0.31783  Biso   1.000  H
  H248     1.0000 0.39942  0.06863  0.31653  Biso   1.000  H
  H249     1.0000 0.38303  0.08404  0.33393  Biso   1.000  H
  H250     1.0000 0.95355  0.59770  0.28487  Biso   1.000  H
  H251     1.0000 0.94458  0.62226  0.27387  Biso   1.000  H
  H252     1.0000 0.92369  0.57259  0.25355  Biso   1.000  H
  H253     1.0000 0.25139  0.91538  0.45074  Biso   1.000  H
  H254     1.0000 0.27839  0.90955  0.44381  Biso   1.000  H
  H255     1.0000 0.27982  0.01811  0.49694  Biso   1.000  H
  H256     1.0000 0.96143  0.19149  0.80961  Biso   1.000  H
  H257     1.0000 0.97895  0.14981  0.78822  Biso   1.000  H
  H258     1.0000 0.87962  0.16535  0.83292  Biso   1.000  H
  H259     1.0000 0.88217  0.12599  0.79098  Biso   1.000  H
  H260     1.0000 0.87311  0.11850  0.81663  Biso   1.000  H
  H261     1.0000 0.39863  0.56830  0.81521  Biso   1.000  H
  H262     1.0000 0.38277  0.58391  0.83302  Biso   1.000  H
  H263     1.0000 0.95411  0.09836  0.78186  Biso   1.000  H
  H264     1.0000 0.94484  0.12306  0.77161  Biso   1.000  H
  H265     1.0000 0.92067  0.07394  0.75377  Biso   1.000  H
  H266     1.0000 0.74934  0.41647  0.45043  Biso   1.000  H
  H267     1.0000 0.77634  0.41022  0.44399  Biso   1.000  H
  H268     1.0000 0.77837  0.51783  0.49468  Biso   1.000  H
  H269     1.0000 0.48192  0.65280  0.78683  Biso   1.000  H
  H270     1.0000 0.38134  0.66561  0.83313  Biso   1.000  H
  H271     1.0000 0.38562  0.62532  0.79219  Biso   1.000  H
  H272     1.0000 0.37721  0.61809  0.81804  Biso   1.000  H
  H273     1.0000 0.89927  0.07143  0.81384  Biso   1.000  H
  H274     1.0000 0.88276  0.08661  0.83141  Biso   1.000  H
  H275     1.0000 0.45345  0.59832  0.78453  Biso   1.000  H
  H276     1.0000 0.42148  0.57452  0.75431  Biso   1.000  H
  H277     1.0000 0.41213  0.59949  0.74454  Biso   1.000  H
  H278     1.0000 0.75107  0.91596  0.94908  Biso   1.000  H
  H279     1.0000 0.77803  0.91006  0.94229  Biso   1.000  H
  H280     1.0000 0.46170  0.19030  0.30920  Biso   1.000  H
  H281     1.0000 0.47972  0.14881  0.28785  Biso   1.000  H
  H282     1.0000 0.38121  0.16507  0.33323  Biso   1.000  H
  H283     1.0000 0.38149  0.12558  0.29131  Biso   1.000  H
  H284     1.0000 0.37275  0.11846  0.31719  Biso   1.000  H
  H285     1.0000 0.91896  0.58754  0.31584  Biso   1.000  H
  H286     1.0000 0.45392  0.09693  0.28166  Biso   1.000  H
  H287     1.0000 0.44477  0.12151  0.27111  Biso   1.000  H
  H288     1.0000 0.41942  0.07241  0.25509  Biso   1.000  H
  H289     1.0000 0.97938  0.90322  0.82927  Biso   1.000  H
  H290     1.0000 0.96917  0.02187  0.74924  Biso   1.000  H
  H291     1.0000 0.26769  0.14888  0.46172  Biso   1.000  H
  H292     1.0000 0.35252  0.16990  0.44180  Biso   1.000  H
  H293     1.0000 0.36243  0.16315  0.41583  Biso   1.000  H
  H294     1.0000 0.37239  0.12786  0.46026  Biso   1.000  H
  H295     1.0000 0.83183  0.58627  0.43466  Biso   1.000  H
  H296     1.0000 0.29201  0.09492  0.47800  Biso   1.000  H
  H297     1.0000 0.30155  0.11909  0.48939  Biso   1.000  H
  H298     1.0000 0.33530  0.07243  0.48933  Biso   1.000  H
  H299     1.0000 0.31596  0.90202  0.36718  Biso   1.000  H
  H300     1.0000 0.97571  0.40607  0.31238  Biso   1.000  H
  H301     1.0000 0.96992  0.52068  0.25176  Biso   1.000  H
  H302     1.0000 0.28145  0.69120  0.94759  Biso   1.000  H
  H303     1.0000 0.27671  0.64187  0.95376  Biso   1.000  H
  H304     1.0000 0.36838  0.66436  0.91660  Biso   1.000  H
  H305     1.0000 0.36885  0.62600  0.95958  Biso   1.000  H
  H306     1.0000 0.37762  0.61830  0.93376  Biso   1.000  H
  H307     1.0000 0.84922  0.07343  0.93649  Biso   1.000  H
  H308     1.0000 0.86533  0.08909  0.91902  Biso   1.000  H
  H309     1.0000 0.29282  0.59496  0.98024  Biso   1.000  H
  H310     1.0000 0.30289  0.61894  0.99164  Biso   1.000  H
  H311     1.0000 0.33759  0.57331  0.98637  Biso   1.000  H
  H312     1.0000 0.33487  0.39862  0.87217  Biso   1.000  H
  H313     1.0000 0.50660  0.90936  0.32358  Biso   1.000  H
  H314     1.0000 0.47935  0.90368  0.32981  Biso   1.000  H
  H315     1.0000 0.46161  0.02661  0.24338  Biso   1.000  H
  H316     1.0000 0.42895  0.00035  0.27081  Biso   1.000  H
  H317     1.0000 0.76803  0.14827  0.96148  Biso   1.000  H
  H318     1.0000 0.85217  0.16900  0.94078  Biso   1.000  H
  H319     1.0000 0.86211  0.16244  0.91482  Biso   1.000  H
  H320     1.0000 0.87420  0.12809  0.95947  Biso   1.000  H
  H321     1.0000 0.36985  0.58030  0.91505  Biso   1.000  H
  H322     1.0000 0.79248  0.09590  0.97750  Biso   1.000  H
  H323     1.0000 0.80219  0.12006  0.98885  Biso   1.000  H
  H324     1.0000 0.83455  0.07250  0.99128  Biso   1.000  H
  H325     1.0000 0.81620  0.90176  0.86732  Biso   1.000  H
  H326     1.0000 0.47229  0.40849  0.80550  Biso   1.000  H
  H327     1.0000 0.47209  0.52005  0.75162  Biso   1.000  H
  H328     1.0000 0.78781  0.69141  0.44225  Biso   1.000  H
  H329     1.0000 0.76890  0.64895  0.46094  Biso   1.000  H
  H330     1.0000 0.84943  0.65361  0.41537  Biso   1.000  H
  H331     1.0000 0.88118  0.63789  0.46060  Biso   1.000  H
  H332     1.0000 0.88995  0.63137  0.43436  Biso   1.000  H
  H333     1.0000 0.34890  0.07305  0.43650  Biso   1.000  H
  H334     1.0000 0.36530  0.08885  0.41950  Biso   1.000  H
  H335     1.0000 0.79061  0.59375  0.47858  Biso   1.000  H
  H336     1.0000 0.83607  0.57395  0.48542  Biso   1.000  H
  H337     1.0000 0.84502  0.59857  0.49654  Biso   1.000  H
  H338     1.0000 0.50109  0.83151  0.45147  Biso   1.000  H
  H339     1.0000 0.47400  0.83778  0.44672  Biso   1.000  H
  H340     1.0000 0.45414  0.72059  0.51182  Biso   1.000  H
  H341     1.0000 0.43718  0.75394  0.47862  Biso   1.000  H
  H342     1.0000 0.76843  0.60016  0.78885  Biso   1.000  H
  H343     1.0000 0.84031  0.59280  0.80811  Biso   1.000  H
  H344     1.0000 0.84842  0.59904  0.83459  Biso   1.000  H
  H345     1.0000 0.88614  0.60354  0.79144  Biso   1.000  H
  H346     1.0000 0.34445  0.17394  0.81369  Biso   1.000  H
  H347     1.0000 0.36114  0.15749  0.82924  Biso   1.000  H
  H348     1.0000 0.79396  0.66107  0.76206  Biso   1.000  H
  H349     1.0000 0.80281  0.63578  0.75223  Biso   1.000  H
  H350     1.0000 0.85006  0.64823  0.76305  Biso   1.000  H
  H351     1.0000 0.81519  0.84669  0.88412  Biso   1.000  H
  H352     1.0000 0.50244  0.33600  0.94703  Biso   1.000  H
  H353     1.0000 0.47535  0.34250  0.94155  Biso   1.000  H
  H354     1.0000 0.46431  0.22324  0.00360  Biso   1.000  H
  H355     1.0000 0.42717  0.24931  0.98233  Biso   1.000  H
  H356     1.0000 0.79011  0.06244  0.31087  Biso   1.000  H
  H357     1.0000 0.76917  0.10217  0.28886  Biso   1.000  H
  H358     1.0000 0.85278  0.07943  0.30800  Biso   1.000  H
  H359     1.0000 0.86148  0.08572  0.33430  Biso   1.000  H
  H360     1.0000 0.87392  0.12144  0.29098  Biso   1.000  H
  H361     1.0000 0.35506  0.69002  0.32107  Biso   1.000  H
  H362     1.0000 0.80262  0.13002  0.26061  Biso   1.000  H
  H363     1.0000 0.83638  0.17594  0.26780  Biso   1.000  H
  H364     1.0000 0.84726  0.15208  0.25736  Biso   1.000  H
  H365     1.0000 0.82034  0.34735  0.38219  Biso   1.000  H
  H366     1.0000 0.97571  0.84115  0.94515  Biso   1.000  H
  H367     1.0000 0.96310  0.72272  0.00602  Biso   1.000  H
  H368     1.0000 0.92686  0.74901  0.98359  Biso   1.000  H
  H369     1.0000 0.26445  0.58830  0.28409  Biso   1.000  H
  H370     1.0000 0.36530  0.57684  0.30445  Biso   1.000  H
  H371     1.0000 0.37266  0.58340  0.33126  Biso   1.000  H
  H372     1.0000 0.36363  0.62561  0.29321  Biso   1.000  H
  H373     1.0000 0.84799  0.17699  0.31516  Biso   1.000  H
  H374     1.0000 0.86524  0.16140  0.33111  Biso   1.000  H
  H375     1.0000 0.29389  0.65883  0.26960  Biso   1.000  H
  H376     1.0000 0.30181  0.63323  0.25998  Biso   1.000  H
  H377     1.0000 0.34903  0.64954  0.25619  Biso   1.000  H
  H378     1.0000 0.31524  0.84662  0.38287  Biso   1.000  H
  H379     1.0000 0.97606  0.34404  0.44049  Biso   1.000  H
  H380     1.0000 0.96558  0.22289  0.50477  Biso   1.000  H
  H381     1.0000 0.92941  0.24979  0.48289  Biso   1.000  H
  H382     1.0000 0.29025  0.06244  0.81143  Biso   1.000  H
  H383     1.0000 0.35090  0.07950  0.80807  Biso   1.000  H
  H384     1.0000 0.35959  0.08587  0.83431  Biso   1.000  H
  H385     1.0000 0.37458  0.11981  0.79036  Biso   1.000  H
  H386     1.0000 0.85182  0.68282  0.81586  Biso   1.000  H
  H387     1.0000 0.30255  0.13777  0.74719  Biso   1.000  H
  H388     1.0000 0.33496  0.16967  0.78252  Biso   1.000  H
  H389     1.0000 0.34502  0.14527  0.77271  Biso   1.000  H
  H390     1.0000 0.29874  0.35397  0.87582  Biso   1.000  H
  H391     1.0000 0.31645  0.74438  0.34178  Biso   1.000  H
  H392     1.0000 0.24851  0.78103  0.22773  Biso   1.000  H
  H393     1.0000 0.93687  0.45396  0.06558  Biso   1.000  H
  H394     1.0000 0.91540  0.40164  0.09934  Biso   1.000  H
  H395     1.0000 0.95899  0.36597  0.11079  Biso   1.000  H
  H396     1.0000 0.93235  0.35784  0.11650  Biso   1.000  H
  H397     1.0000 0.93752  0.91366  0.66463  Biso   1.000  H
  H398     1.0000 0.92143  0.89714  0.64822  Biso   1.000  H
  H399     1.0000 0.97451  0.41290  0.17366  Biso   1.000  H
  H400     1.0000 0.98380  0.40270  0.14912  Biso   1.000  H
  H401     1.0000 0.87240  0.41188  0.35392  Biso   1.000  H
  H402     1.0000 0.29188  0.25672  0.81524  Biso   1.000  H
  H403     1.0000 0.26604  0.32129  0.74625  Biso   1.000  H
  H404     1.0000 0.93303  0.95343  0.57004  Biso   1.000  H
  H405     1.0000 0.91651  0.90030  0.59701  Biso   1.000  H
  H406     1.0000 0.96115  0.86785  0.61306  Biso   1.000  H
  H407     1.0000 0.93455  0.85868  0.61802  Biso   1.000  H
  H408     1.0000 0.93766  0.40534  0.17240  Biso   1.000  H
  H409     1.0000 0.92121  0.38866  0.15665  Biso   1.000  H
  H410     1.0000 0.98259  0.95028  0.62786  Biso   1.000  H
  H411     1.0000 0.99143  0.91950  0.67575  Biso   1.000  H
  H412     1.0000 0.86973  0.93849  0.84824  Biso   1.000  H
  H413     1.0000 0.81534  0.74455  0.84162  Biso   1.000  H
  H414     1.0000 0.74204  0.79690  0.71948  Biso   1.000  H
  H415     1.0000 0.43366  0.45182  0.57186  Biso   1.000  H
  H416     1.0000 0.41518  0.40215  0.60323  Biso   1.000  H
  H417     1.0000 0.45814  0.36463  0.61039  Biso   1.000  H
  H418     1.0000 0.43137  0.35671  0.61626  Biso   1.000  H
  H419     1.0000 0.43808  0.90323  0.17496  Biso   1.000  H
  H420     1.0000 0.42219  0.88640  0.15853  Biso   1.000  H
  H421     1.0000 0.48872  0.45706  0.66080  Biso   1.000  H
  H422     1.0000 0.49859  0.44767  0.63592  Biso   1.000  H
  H423     1.0000 0.49124  0.40050  0.65101  Biso   1.000  H
  H424     1.0000 0.36532  0.43365  0.84946  Biso   1.000  H
  H425     1.0000 0.80437  0.24762  0.34211  Biso   1.000  H
  H426     1.0000 0.76564  0.32349  0.24537  Biso   1.000  H
  H427     1.0000 0.43338  0.95319  0.06989  Biso   1.000  H
  H428     1.0000 0.41720  0.90080  0.09864  Biso   1.000  H
  H429     1.0000 0.46121  0.86611  0.11128  Biso   1.000  H
  H430     1.0000 0.43444  0.85733  0.11618  Biso   1.000  H
  H431     1.0000 0.43682  0.40436  0.67370  Biso   1.000  H
  H432     1.0000 0.42020  0.38792  0.65803  Biso   1.000  H
  H433     1.0000 0.48799  0.95095  0.12967  Biso   1.000  H
  H434     1.0000 0.48922  0.91566  0.17512  Biso   1.000  H
  H435     1.0000 0.49961  0.90682  0.15032  Biso   1.000  H
  H436     1.0000 0.36994  0.94283  0.34834  Biso   1.000  H
  H437     1.0000 0.95787  0.25590  0.42890  Biso   1.000  H
  H438     1.0000 0.95142  0.28268  0.42323  Biso   1.000  H
  H439     1.0000 0.01231  0.29707  0.53029  Biso   1.000  H
  H440     1.0000 0.97891  0.31271  0.49649  Biso   1.000  H
  H441     1.0000 0.30976  0.96073  0.68977  Biso   1.000  H
  H442     1.0000 0.28793  0.97957  0.64883  Biso   1.000  H
  H443     1.0000 0.30091  0.87340  0.67095  Biso   1.000  H
  H444     1.0000 0.32752  0.86555  0.66400  Biso   1.000  H
  H445     1.0000 0.29802  0.90040  0.62896  Biso   1.000  H
  H446     1.0000 0.31301  0.41162  0.08448  Biso   1.000  H
  H447     1.0000 0.32952  0.39467  0.09982  Biso   1.000  H
  H448     1.0000 0.24984  0.94845  0.61470  Biso   1.000  H
  H449     1.0000 0.27894  0.91332  0.57969  Biso   1.000  H
  H450     1.0000 0.26897  0.90353  0.60432  Biso   1.000  H
  H451     1.0000 0.38045  0.92535  0.40225  Biso   1.000  H
  H452     1.0000 0.95647  0.75629  0.93451  Biso   1.000  H
  H453     1.0000 0.95044  0.78317  0.92897  Biso   1.000  H
  H454     1.0000 0.98503  0.82518  0.00407  Biso   1.000  H
  H455     1.0000 0.31447  0.45548  0.18585  Biso   1.000  H
  H456     1.0000 0.30641  0.39299  0.17027  Biso   1.000  H
  H457     1.0000 0.33276  0.38439  0.16428  Biso   1.000  H
  H458     1.0000 0.29121  0.37827  0.12496  Biso   1.000  H
  H459     1.0000 0.33070  0.89782  0.55404  Biso   1.000  H
  H460     1.0000 0.34786  0.88193  0.57050  Biso   1.000  H
  H461     1.0000 0.28741  0.45001  0.09710  Biso   1.000  H
  H462     1.0000 0.25179  0.42427  0.07328  Biso   1.000  H
  H463     1.0000 0.24194  0.41490  0.09832  Biso   1.000  H
  H464     1.0000 0.45757  0.25416  0.92293  Biso   1.000  H
  H465     1.0000 0.45124  0.28087  0.91697  Biso   1.000  H
  H466     1.0000 0.51071  0.29693  0.02995  Biso   1.000  H
  H467     1.0000 0.47775  0.31246  0.99568  Biso   1.000  H
  H468     1.0000 0.81453  0.95563  0.18438  Biso   1.000  H
  H469     1.0000 0.80787  0.89599  0.17017  Biso   1.000  H
  H470     1.0000 0.83367  0.88646  0.16419  Biso   1.000  H
  H471     1.0000 0.78950  0.87059  0.13113  Biso   1.000  H
  H472     1.0000 0.81402  0.41305  0.58354  Biso   1.000  H
  H473     1.0000 0.83037  0.39611  0.59900  Biso   1.000  H
  H474     1.0000 0.74816  0.94643  0.11347  Biso   1.000  H
  H475     1.0000 0.77857  0.91240  0.07835  Biso   1.000  H
  H476     1.0000 0.76969  0.90235  0.10314  Biso   1.000  H
  H477     1.0000 0.45833  0.75584  0.43080  Biso   1.000  H
  H478     1.0000 0.45208  0.78254  0.42484  Biso   1.000  H
  H479     1.0000 0.50447  0.78219  0.52235  Biso   1.000  H
  H480     1.0000 0.48845  0.82745  0.50839  Biso   1.000  H
  H481     1.0000 0.81767  0.45148  0.66412  Biso   1.000  H
  H482     1.0000 0.80546  0.39084  0.66949  Biso   1.000  H
  H483     1.0000 0.83188  0.38266  0.66320  Biso   1.000  H
  H484     1.0000 0.79081  0.37936  0.62306  Biso   1.000  H
  H485     1.0000 0.82897  0.88680  0.09292  Biso   1.000  H
  H486     1.0000 0.78775  0.44979  0.59743  Biso   1.000  H
  H487     1.0000 0.75354  0.42324  0.57246  Biso   1.000  H
  H488     1.0000 0.74290  0.41383  0.59709  Biso   1.000  H
  H489     1.0000 0.79405  0.99327  0.93768  Biso   1.000  H
  H490     1.0000 0.74643  0.96499  0.02572  Biso   1.000  H
  H491     1.0000 0.76744  0.92562  0.00305  Biso   1.000  H
  H492     1.0000 0.43442  0.29552  0.17959  Biso   1.000  H
  H493     1.0000 0.46471  0.26312  0.15658  Biso   1.000  H
  H494     1.0000 0.44241  0.35187  0.17005  Biso   1.000  H
  H495     1.0000 0.41614  0.36063  0.16408  Biso   1.000  H
  H496     1.0000 0.45948  0.37483  0.12898  Biso   1.000  H
  H497     1.0000 0.41997  0.85235  0.55353  Biso   1.000  H
  H498     1.0000 0.48766  0.29136  0.08995  Biso   1.000  H
  H499     1.0000 0.49721  0.30112  0.11482  Biso   1.000  H
  H500     1.0000 0.48453  0.33814  0.07253  Biso   1.000  H
  H501     1.0000 0.36679  0.32224  0.90304  Biso   1.000  H
  H502     1.0000 0.79421  0.49238  0.43769  Biso   1.000  H
  H503     1.0000 0.74634  0.46627  0.52557  Biso   1.000  H
  H504     1.0000 0.76619  0.42574  0.50395  Biso   1.000  H
  H505     1.0000 0.43745  0.78988  0.68740  Biso   1.000  H
  H506     1.0000 0.46283  0.76846  0.64995  Biso   1.000  H
  H507     1.0000 0.44255  0.85495  0.67248  Biso   1.000  H
  H508     1.0000 0.41619  0.86342  0.66563  Biso   1.000  H
  H509     1.0000 0.46016  0.87626  0.63076  Biso   1.000  H
  H510     1.0000 0.43837  0.34666  0.07530  Biso   1.000  H
  H511     1.0000 0.42178  0.36288  0.09139  Biso   1.000  H
  H512     1.0000 0.48622  0.79363  0.59047  Biso   1.000  H
  H513     1.0000 0.49420  0.80148  0.61663  Biso   1.000  H
  H514     1.0000 0.49223  0.84957  0.60256  Biso   1.000  H
  H515     1.0000 0.37657  0.84115  0.39536  Biso   1.000  H
  H516     1.0000 0.29384  0.99299  0.43798  Biso   1.000  H
  H517     1.0000 0.27402  0.93941  0.49764  Biso   1.000  H
  H518     1.0000 0.93221  0.29734  0.67754  Biso   1.000  H
  H519     1.0000 0.96457  0.26378  0.65952  Biso   1.000  H
  H520     1.0000 0.94108  0.35385  0.67134  Biso   1.000  H
  H521     1.0000 0.91486  0.36222  0.66451  Biso   1.000  H
  H522     1.0000 0.95888  0.37606  0.63014  Biso   1.000  H
  H523     1.0000 0.93705  0.83329  0.08897  Biso   1.000  H
  H524     1.0000 0.98793  0.29256  0.59150  Biso   1.000  H
  H525     1.0000 0.99625  0.30274  0.61662  Biso   1.000  H
  H526     1.0000 0.98465  0.33912  0.57348  Biso   1.000  H
  H527     1.0000 0.30591  0.47281  0.90824  Biso   1.000  H
  H528     1.0000 0.93646  0.79387  0.18364  Biso   1.000  H
  H529     1.0000 0.96401  0.76458  0.15397  Biso   1.000  H
  H530     1.0000 0.94166  0.84487  0.16567  Biso   1.000  H
  H531     1.0000 0.91538  0.85373  0.16049  Biso   1.000  H
  H532     1.0000 0.95954  0.87956  0.13427  Biso   1.000  H
  H533     1.0000 0.93940  0.34684  0.57614  Biso   1.000  H
  H534     1.0000 0.92248  0.36315  0.59181  Biso   1.000  H
  H535     1.0000 0.98758  0.79085  0.09146  Biso   1.000  H
  H536     1.0000 0.99677  0.80076  0.11646  Biso   1.000  H
  H537     1.0000 0.98630  0.83743  0.07331  Biso   1.000  H
  H538     1.0000 0.87616  0.84166  0.89533  Biso   1.000  H
  H539     1.0000 0.45536  0.49441  0.81565  Biso   1.000  H
  H540     1.0000 0.44872  0.46812  0.82236  Biso   1.000  H
  H541     1.0000 0.50930  0.45489  0.72018  Biso   1.000  H
  H542     1.0000 0.47803  0.43260  0.75229  Biso   1.000  H
  H543     1.0000 0.81380  0.79655  0.56900  Biso   1.000  H
  H544     1.0000 0.78526  0.76497  0.59529  Biso   1.000  H
  H545     1.0000 0.83482  0.84757  0.59949  Biso   1.000  H
  H546     1.0000 0.79144  0.88340  0.61124  Biso   1.000  H
  H547     1.0000 0.81819  0.89152  0.61658  Biso   1.000  H
  H548     1.0000 0.81608  0.35061  0.18508  Biso   1.000  H
  H549     1.0000 0.77432  0.79315  0.65464  Biso   1.000  H
  H550     1.0000 0.76235  0.80302  0.63074  Biso   1.000  H
  H551     1.0000 0.76194  0.83546  0.67838  Biso   1.000  H
  H552     1.0000 0.87337  0.79758  0.85841  Biso   1.000  H
  H553     1.0000 0.45368  0.99781  0.33254  Biso   1.000  H
  H554     1.0000 0.44649  0.97110  0.33782  Biso   1.000  H
  H555     1.0000 0.48433  0.92735  0.24318  Biso   1.000  H
  H556     1.0000 0.81232  0.29271  0.06419  Biso   1.000  H
  H557     1.0000 0.78482  0.26504  0.09556  Biso   1.000  H
  H558     1.0000 0.80781  0.34660  0.08414  Biso   1.000  H
  H559     1.0000 0.83397  0.35539  0.09023  Biso   1.000  H
  H560     1.0000 0.78935  0.37878  0.11783  Biso   1.000  H
  H561     1.0000 0.81684  0.83146  0.66244  Biso   1.000  H
  H562     1.0000 0.77263  0.28923  0.15582  Biso   1.000  H
  H563     1.0000 0.76296  0.33355  0.17717  Biso   1.000  H
  H564     1.0000 0.75251  0.34293  0.15246  Biso   1.000  H
  H565     1.0000 0.88189  0.31023  0.34991  Biso   1.000  H
  H566     1.0000 0.94115  0.50426  0.34258  Biso   1.000  H
  H567     1.0000 0.97617  0.43903  0.25421  Biso   1.000  H
  H568     1.0000 0.30732  0.78725  0.06107  Biso   1.000  H
  H569     1.0000 0.29074  0.76954  0.10479  Biso   1.000  H
  H570     1.0000 0.30649  0.86018  0.07539  Biso   1.000  H
  H571     1.0000 0.29369  0.86850  0.12301  Biso   1.000  H
  H572     1.0000 0.32019  0.87700  0.12877  Biso   1.000  H
  H573     1.0000 0.31111  0.34570  0.67623  Biso   1.000  H
  H574     1.0000 0.32685  0.36332  0.66067  Biso   1.000  H
  H575     1.0000 0.26554  0.79471  0.15943  Biso   1.000  H
  H576     1.0000 0.25418  0.80412  0.13498  Biso   1.000  H
  H577     1.0000 0.26953  0.84183  0.17577  Biso   1.000  H
  H578     1.0000 0.37310  0.79717  0.35840  Biso   1.000  H
  H579     1.0000 0.00513  0.96635  0.72404  Biso   1.000  H
  H580     1.0000 0.98378  0.92678  0.74595  Biso   1.000  H
  H581     1.0000 0.31031  0.29255  0.56324  Biso   1.000  H
  H582     1.0000 0.28643  0.26689  0.59887  Biso   1.000  H
  H583     1.0000 0.30465  0.36173  0.57724  Biso   1.000  H
  H584     1.0000 0.29185  0.36805  0.62515  Biso   1.000  H
  H585     1.0000 0.31819  0.37703  0.63109  Biso   1.000  H
  H586     1.0000 0.31599  0.84836  0.17998  Biso   1.000  H
  H587     1.0000 0.26850  0.29041  0.65520  Biso   1.000  H
  H588     1.0000 0.25740  0.30160  0.63146  Biso   1.000  H
  H589     1.0000 0.26361  0.33467  0.67819  Biso   1.000  H
  H590     1.0000 0.37922  0.31164  0.84784  Biso   1.000  H
  H591     1.0000 0.05592  0.58818  0.75207  Biso   1.000  H
  H592     1.0000 0.06156  0.59427  0.72490  Biso   1.000  H
  H593     1.0000 0.98913  0.46801  0.70531  Biso   1.000  H
  H594     1.0000 0.68939  0.31200  0.04039  Biso   1.000  H
  H595     1.0000 0.71022  0.35217  0.01920  Biso   1.000  H
  H596     1.0000 0.66613  0.33375  0.11920  Biso   1.000  H
  H597     1.0000 0.70959  0.37154  0.12011  Biso   1.000  H
  H598     1.0000 0.68388  0.37960  0.12857  Biso   1.000  H
  H599     1.0000 0.68302  0.93574  0.60086  Biso   1.000  H
  H600     1.0000 0.73778  0.40739  0.04342  Biso   1.000  H
  H601     1.0000 0.74768  0.38322  0.05468  Biso   1.000  H
  H602     1.0000 0.72290  0.42231  0.08888  Biso   1.000  H
  H603     1.0000 0.04357  0.06348  0.24400  Biso   1.000  H
  H604     1.0000 0.05003  0.07051  0.21740  Biso   1.000  H
  H605     1.0000 0.01252  0.99246  0.21963  Biso   1.000  H
  H606     1.0000 0.68748  0.81589  0.54298  Biso   1.000  H
  H607     1.0000 0.66520  0.85170  0.59782  Biso   1.000  H
  H608     1.0000 0.70850  0.86029  0.63472  Biso   1.000  H
  H609     1.0000 0.68187  0.86626  0.64270  Biso   1.000  H
  H610     1.0000 0.68719  0.42517  0.09944  Biso   1.000  H
  H611     1.0000 0.67011  0.40932  0.11572  Biso   1.000  H
  H612     1.0000 0.73231  0.90757  0.54274  Biso   1.000  H
  H613     1.0000 0.74278  0.88286  0.55258  Biso   1.000  H
  H614     1.0000 0.73636  0.92744  0.58847  Biso   1.000  H
  H615     1.0000 0.54933  0.58269  0.25189  Biso   1.000  H
  H616     1.0000 0.55379  0.58891  0.22457  Biso   1.000  H
  H617     1.0000 0.50320  0.48028  0.22194  Biso   1.000  H
  H618     1.0000 0.18473  0.31929  0.54857  Biso   1.000  H
  H619     1.0000 0.21456  0.34130  0.51488  Biso   1.000  H
  H620     1.0000 0.16518  0.35206  0.59800  Biso   1.000  H
  H621     1.0000 0.20849  0.35904  0.63521  Biso   1.000  H
  H622     1.0000 0.18192  0.36538  0.64323  Biso   1.000  H
  H623     1.0000 0.18793  0.91395  0.08617  Biso   1.000  H
  H624     1.0000 0.17114  0.89796  0.10249  Biso   1.000  H
  H625     1.0000 0.23307  0.40960  0.54423  Biso   1.000  H
  H626     1.0000 0.24368  0.38466  0.55338  Biso   1.000  H
  H627     1.0000 0.23274  0.42670  0.59127  Biso   1.000  H
  H628     1.0000 0.55719  0.08949  0.75492  Biso   1.000  H
  H629     1.0000 0.56227  0.09667  0.72787  Biso   1.000  H
  H630     1.0000 0.51513  0.99629  0.71698  Biso   1.000  H
  H631     1.0000 0.18499  0.82059  0.04722  Biso   1.000  H
  H632     1.0000 0.16645  0.85218  0.09687  Biso   1.000  H
  H633     1.0000 0.20977  0.85994  0.13391  Biso   1.000  H
  H634     1.0000 0.18301  0.86508  0.14229  Biso   1.000  H
  H635     1.0000 0.17984  0.43777  0.60235  Biso   1.000  H
  H636     1.0000 0.22554  0.90317  0.04135  Biso   1.000  H
  H637     1.0000 0.23655  0.87902  0.05156  Biso   1.000  H
  H638     1.0000 0.24350  0.92802  0.08098  Biso   1.000  H
  H639     1.0000 0.69444  0.66038  0.25295  Biso   1.000  H
  H640     1.0000 0.68883  0.65480  0.22574  Biso   1.000  H
  H641     1.0000 0.73215  0.75127  0.17893  Biso   1.000  H
  H642     1.0000 0.06153  0.93843  0.53797  Biso   1.000  H
  H643     1.0000 0.03673  0.90012  0.51742  Biso   1.000  H
  H644     1.0000 0.05669  0.92103  0.60038  Biso   1.000  H
  H645     1.0000 0.04169  0.87881  0.62266  Biso   1.000  H
  H646     1.0000 0.06835  0.87369  0.63098  Biso   1.000  H
  H647     1.0000 0.06280  0.32196  0.09941  Biso   1.000  H
  H648     1.0000 0.07946  0.33853  0.11515  Biso   1.000  H
  H649     1.0000 0.01689  0.82752  0.59035  Biso   1.000  H
  H650     1.0000 0.00738  0.85291  0.59786  Biso   1.000  H
  H651     1.0000 0.01602  0.84110  0.54216  Biso   1.000  H
  H652     1.0000 0.12720  0.64794  0.58950  Biso   1.000  H
  H653     1.0000 0.70725  0.18043  0.74458  Biso   1.000  H
  H654     1.0000 0.70118  0.17569  0.71749  Biso   1.000  H
  H655     1.0000 0.73194  0.25327  0.67896  Biso   1.000  H
  H656     1.0000 0.03910  0.39804  0.01956  Biso   1.000  H
  H657     1.0000 0.05831  0.41915  0.10169  Biso   1.000  H
  H658     1.0000 0.08473  0.41291  0.10992  Biso   1.000  H
  H659     1.0000 0.04122  0.37898  0.12612  Biso   1.000  H
  H660     1.0000 0.06150  0.82096  0.59959  Biso   1.000  H
  H661     1.0000 0.02286  0.34475  0.04384  Biso   1.000  H
  H662     1.0000 0.01222  0.36899  0.05411  Biso   1.000  H
  H663     1.0000 0.01171  0.32168  0.08692  Biso   1.000  H
  H664     1.0000 0.12458  0.14424  0.08894  Biso   1.000  H
  H665     1.0000 0.20439  0.66677  0.74859  Biso   1.000  H
  H666     1.0000 0.19721  0.66091  0.72182  Biso   1.000  H
  H667     1.0000 0.22591  0.74714  0.68739  Biso   1.000  H
  H668     1.0000 0.56215  0.93827  0.03866  Biso   1.000  H
  H669     1.0000 0.53651  0.90145  0.01654  Biso   1.000  H
  H670     1.0000 0.55139  0.92087  0.12371  Biso   1.000  H
  H671     1.0000 0.54772  0.87670  0.10058  Biso   1.000  H
  H672     1.0000 0.57365  0.86989  0.10950  Biso   1.000  H
  H673     1.0000 0.58105  0.30125  0.59997  Biso   1.000  H
  H674     1.0000 0.59721  0.31784  0.61662  Biso   1.000  H
  H675     1.0000 0.53120  0.83326  0.08941  Biso   1.000  H
  H676     1.0000 0.52071  0.85849  0.09626  Biso   1.000  H
  H677     1.0000 0.50807  0.83557  0.04492  Biso   1.000  H
  H678     1.0000 0.62582  0.64424  0.09100  Biso   1.000  H
  H679     1.0000 0.19315  0.16074  0.25200  Biso   1.000  H
  H680     1.0000 0.18738  0.15568  0.22480  Biso   1.000  H
  H681     1.0000 0.23282  0.25386  0.17902  Biso   1.000  H
  H682     1.0000 0.53765  0.39676  0.51907  Biso   1.000  H
  H683     1.0000 0.55750  0.40601  0.59044  Biso   1.000  H
  H684     1.0000 0.58404  0.39996  0.59832  Biso   1.000  H
  H685     1.0000 0.54095  0.39181  0.63547  Biso   1.000  H
  H686     1.0000 0.58212  0.80216  0.10154  Biso   1.000  H
  H687     1.0000 0.59884  0.81894  0.11750  Biso   1.000  H
  H688     1.0000 0.51551  0.34058  0.54349  Biso   1.000  H
  H689     1.0000 0.50475  0.36524  0.55317  Biso   1.000  H
  H690     1.0000 0.51595  0.32258  0.59018  Biso   1.000  H
  H691     1.0000 0.62593  0.14570  0.58896  Biso   1.000  H
  H692     1.0000 0.54248  0.17934  0.50547  Biso   1.000  H
  H693     1.0000 0.54864  0.17344  0.53222  Biso   1.000  H
  H694     1.0000 0.51824  0.25128  0.56835  Biso   1.000  H
  H695     1.0000 0.18711  0.43550  0.20843  Biso   1.000  H
  H696     1.0000 0.21496  0.40234  0.23342  Biso   1.000  H
  H697     1.0000 0.19619  0.42197  0.13611  Biso   1.000  H
  H698     1.0000 0.16958  0.41552  0.12813  Biso   1.000  H
  H699     1.0000 0.20738  0.37316  0.13744  Biso   1.000  H
  H700     1.0000 0.17742  0.81186  0.64712  Biso   1.000  H
  H701     1.0000 0.16065  0.82805  0.63112  Biso   1.000  H
  H702     1.0000 0.23389  0.34035  0.20835  Biso   1.000  H
  H703     1.0000 0.24332  0.36595  0.20010  Biso   1.000  H
  H704     1.0000 0.24306  0.35045  0.15238  Biso   1.000  H
  H705     1.0000 0.12602  0.14518  0.20185  Biso   1.000  H
  H706     1.0000 0.54506  0.68237  0.00620  Biso   1.000  H
  H707     1.0000 0.55108  0.67571  0.03279  Biso   1.000  H
  H708     1.0000 0.51223  0.75719  0.07714  Biso   1.000  H
  H709     1.0000 0.21511  0.90849  0.73516  Biso   1.000  H
  H710     1.0000 0.19442  0.91852  0.64427  Biso   1.000  H
  H711     1.0000 0.16794  0.91260  0.63626  Biso   1.000  H
  H712     1.0000 0.20982  0.87455  0.62625  Biso   1.000  H
  H713     1.0000 0.18003  0.30986  0.14804  Biso   1.000  H
  H714     1.0000 0.25122  0.82707  0.69298  Biso   1.000  H
  H715     1.0000 0.26197  0.85275  0.68658  Biso   1.000  H
  H716     1.0000 0.20668  0.84157  0.67528  Biso   1.000  H
  H717     1.0000 0.12216  0.64667  0.69521  Biso   1.000  H
  H718     1.0000 0.06461  0.15094  0.02159  Biso   1.000  H
  H719     1.0000 0.99283  0.27739  0.03652  Biso   1.000  H
  H720     1.0000 0.01517  0.25167  0.07330  Biso   1.000  H
  H721     1.0000 0.68724  0.43591  0.70771  Biso   1.000  H
  H722     1.0000 0.71443  0.40193  0.73234  Biso   1.000  H
  H723     1.0000 0.69554  0.42141  0.63461  Biso   1.000  H
  H724     1.0000 0.66896  0.41480  0.62669  Biso   1.000  H
  H725     1.0000 0.70669  0.37265  0.63704  Biso   1.000  H
  H726     1.0000 0.67205  0.80378  0.14764  Biso   1.000  H
  H727     1.0000 0.73345  0.34006  0.70766  Biso   1.000  H
  H728     1.0000 0.74294  0.36559  0.69925  Biso   1.000  H
  H729     1.0000 0.74241  0.34988  0.65160  Biso   1.000  H
  H730     1.0000 0.61861  0.15111  0.69307  Biso   1.000  H
  H731     1.0000 0.04495  0.68371  0.50617  Biso   1.000  H
  H732     1.0000 0.05069  0.67837  0.53312  Biso   1.000  H
  H733     1.0000 0.01451  0.75434  0.57252  Biso   1.000  H
  H734     1.0000 0.71619  0.90433  0.23561  Biso   1.000  H
  H735     1.0000 0.69298  0.92282  0.14366  Biso   1.000  H
  H736     1.0000 0.70899  0.87745  0.13018  Biso   1.000  H
  H737     1.0000 0.68277  0.87044  0.12243  Biso   1.000  H
  H738     1.0000 0.67840  0.30922  0.64742  Biso   1.000  H
  H739     1.0000 0.73977  0.83612  0.20630  Biso   1.000  H
  H740     1.0000 0.72670  0.82653  0.15887  Biso   1.000  H
  H741     1.0000 0.73596  0.85192  0.15101  Biso   1.000  H
  H742     1.0000 0.61963  0.65047  0.18823  Biso   1.000  H
  H743     1.0000 0.19711  0.08547  0.00175  Biso   1.000  H
  H744     1.0000 0.19060  0.09003  0.02882  Biso   1.000  H
  H745     1.0000 0.26039  0.96977  0.04193  Biso   1.000  H
  H746     1.0000 0.56793  0.82302  0.70257  Biso   1.000  H
  H747     1.0000 0.53496  0.83568  0.73798  Biso   1.000  H
  H748     1.0000 0.55402  0.82929  0.63876  Biso   1.000  H
  H749     1.0000 0.58048  0.83557  0.63038  Biso   1.000  H
  H750     1.0000 0.54257  0.87799  0.63889  Biso   1.000  H
  H751     1.0000 0.56420  0.42660  0.15183  Biso   1.000  H
  H752     1.0000 0.58133  0.41086  0.13543  Biso   1.000  H
  H753     1.0000 0.49654  0.92245  0.69246  Biso   1.000  H
  H754     1.0000 0.48667  0.89616  0.68750  Biso   1.000  H
  H755     1.0000 0.54246  0.90755  0.67947  Biso   1.000  H
  H756     1.0000 0.63140  0.09934  0.67153  Biso   1.000  H
  H757     1.0000 0.18507  0.59762  0.52314  Biso   1.000  H
  H758     1.0000 0.24604  0.48348  0.52823  Biso   1.000  H
  H759     1.0000 0.56035  0.31096  0.20840  Biso   1.000  H
  H760     1.0000 0.58415  0.33386  0.13327  Biso   1.000  H
  H761     1.0000 0.54141  0.37232  0.13076  Biso   1.000  H
  H762     1.0000 0.56741  0.37982  0.12282  Biso   1.000  H
  H763     1.0000 0.57021  0.94106  0.64689  Biso   1.000  H
  H764     1.0000 0.52246  0.40297  0.20763  Biso   1.000  H
  H765     1.0000 0.51151  0.37894  0.19728  Biso   1.000  H
  H766     1.0000 0.51192  0.42629  0.16445  Biso   1.000  H
  H767     1.0000 0.63366  0.59532  0.18016  Biso   1.000  H
  H768     1.0000 0.69676  0.08731  0.50068  Biso   1.000  H
  H769     1.0000 0.68971  0.09211  0.52760  Biso   1.000  H
  H770     1.0000 0.75515  0.97665  0.53142  Biso   1.000  H
  H771     1.0000 0.06028  0.81139  0.21028  Biso   1.000  H
  H772     1.0000 0.05933  0.83525  0.15461  Biso   1.000  H
  H773     1.0000 0.08545  0.84172  0.14598  Biso   1.000  H
  H774     1.0000 0.04030  0.86540  0.11941  Biso   1.000  H
  H775     1.0000 0.06156  0.42449  0.65486  Biso   1.000  H
  H776     1.0000 0.07753  0.40896  0.63756  Biso   1.000  H
  H777     1.0000 0.01905  0.90754  0.20658  Biso   1.000  H
  H778     1.0000 0.00834  0.88253  0.19792  Biso   1.000  H
  H779     1.0000 0.01235  0.92633  0.16067  Biso   1.000  H
  H780     1.0000 0.12459  0.10522  0.16043  Biso   1.000  H
  H781     1.0000 0.69964  0.58395  0.00201  Biso   1.000  H
  H782     1.0000 0.69307  0.58884  0.02897  Biso   1.000  H
  H783     1.0000 0.74520  0.48204  0.02913  Biso   1.000  H
  H784     1.0000 0.05857  0.31046  0.70923  Biso   1.000  H
  H785     1.0000 0.05769  0.33509  0.65547  Biso   1.000  H
  H786     1.0000 0.08397  0.34132  0.64705  Biso   1.000  H
  H787     1.0000 0.03932  0.36695  0.62146  Biso   1.000  H
  H788     1.0000 0.06848  0.93695  0.14586  Biso   1.000  H
  H789     1.0000 0.02347  0.40330  0.70904  Biso   1.000  H
  H790     1.0000 0.01224  0.37939  0.69866  Biso   1.000  H
  H791     1.0000 0.00959  0.42773  0.66751  Biso   1.000  H
  H792     1.0000 0.09753  0.02149  0.17628  Biso   1.000  H
  H793     1.0000 0.97406  0.03350  0.25287  Biso   1.000  H
  H794     1.0000 0.99685  0.07444  0.23522  Biso   1.000  H
  H795     1.0000 0.81362  0.70589  0.56391  Biso   1.000  H
  H796     1.0000 0.83965  0.65765  0.55860  Biso   1.000  H
  H797     1.0000 0.84665  0.65007  0.58495  Biso   1.000  H
  H798     1.0000 0.86334  0.60609  0.56806  Biso   1.000  H
  H799     1.0000 0.44440  0.14908  0.57942  Biso   1.000  H
  H800     1.0000 0.42819  0.13316  0.59657  Biso   1.000  H
  H801     1.0000 0.91240  0.70525  0.50873  Biso   1.000  H
  H802     1.0000 0.92186  0.65823  0.52305  Biso   1.000  H
  H803     1.0000 0.89639  0.65025  0.51419  Biso   1.000  H
  H804     1.0000 0.10273  0.66147  0.62838  Biso   1.000  H
  H805     1.0000 0.06548  0.50601  0.70758  Biso   1.000  H
  H806     1.0000 0.07077  0.53246  0.70006  Biso   1.000  H
  H807     1.0000 0.98169  0.52748  0.75008  Biso   1.000  H
  H808     1.0000 0.98923  0.57603  0.74069  Biso   1.000  H
  H809     1.0000 0.85654  0.22495  0.04444  Biso   1.000  H
  H810     1.0000 0.82591  0.14049  0.05495  Biso   1.000  H
  H811     1.0000 0.83116  0.13096  0.08139  Biso   1.000  H
  H812     1.0000 0.87967  0.12737  0.07043  Biso   1.000  H
  H813     1.0000 0.42772  0.65216  0.06236  Biso   1.000  H
  H814     1.0000 0.41112  0.63528  0.07793  Biso   1.000  H
  H815     1.0000 0.90536  0.20737  0.01942  Biso   1.000  H
  H816     1.0000 0.88124  0.19750  0.00823  Biso   1.000  H
  H817     1.0000 0.92736  0.16322  0.01099  Biso   1.000  H
  H818     1.0000 0.09616  0.17258  0.13224  Biso   1.000  H
  H819     1.0000 0.59733  0.02108  0.67564  Biso   1.000  H
  H820     1.0000 0.47430  0.03509  0.75506  Biso   1.000  H
  H821     1.0000 0.49723  0.07428  0.73401  Biso   1.000  H
  H822     1.0000 0.31594  0.70702  0.06263  Biso   1.000  H
  H823     1.0000 0.32657  0.63772  0.05533  Biso   1.000  H
  H824     1.0000 0.33246  0.62781  0.08152  Biso   1.000  H
  H825     1.0000 0.38120  0.62890  0.07091  Biso   1.000  H
  H826     1.0000 0.91503  0.16122  0.06178  Biso   1.000  H
  H827     1.0000 0.89841  0.14520  0.07797  Biso   1.000  H
  H828     1.0000 0.41403  0.70648  0.00805  Biso   1.000  H
  H829     1.0000 0.42206  0.65972  0.02406  Biso   1.000  H
  H830     1.0000 0.39706  0.65189  0.01443  Biso   1.000  H
  H831     1.0000 0.60333  0.65989  0.12715  Biso   1.000  H
  H832     1.0000 0.58349  0.50070  0.20370  Biso   1.000  H
  H833     1.0000 0.58879  0.52758  0.19739  Biso   1.000  H
  H834     1.0000 0.47527  0.53499  0.25492  Biso   1.000  H
  H835     1.0000 0.49763  0.57441  0.23377  Biso   1.000  H
  H836     1.0000 0.35609  0.22408  0.54601  Biso   1.000  H
  H837     1.0000 0.32806  0.14556  0.55877  Biso   1.000  H
  H838     1.0000 0.37105  0.12705  0.54118  Biso   1.000  H
  H839     1.0000 0.37790  0.11820  0.56721  Biso   1.000  H
  H840     1.0000 0.92923  0.65041  0.56278  Biso   1.000  H
  H841     1.0000 0.91275  0.63373  0.57880  Biso   1.000  H
  H842     1.0000 0.41117  0.20604  0.50974  Biso   1.000  H
  H843     1.0000 0.38578  0.19733  0.49998  Biso   1.000  H
  H844     1.0000 0.39827  0.14996  0.51028  Biso   1.000  H
  H845     1.0000 0.59695  0.17353  0.63359  Biso   1.000  H
  H846     1.0000 0.15909  0.49743  0.55527  Biso   1.000  H
  H847     1.0000 0.24804  0.56652  0.52192  Biso   1.000  H
  H848     1.0000 0.40688  0.23402  0.21317  Biso   1.000  H
  H849     1.0000 0.42068  0.13682  0.19613  Biso   1.000  H
  H850     1.0000 0.37221  0.13488  0.20820  Biso   1.000  H
  H851     1.0000 0.36597  0.12689  0.18183  Biso   1.000  H
  H852     1.0000 0.80769  0.64588  0.17433  Biso   1.000  H
  H853     1.0000 0.82414  0.62995  0.15741  Biso   1.000  H
  H854     1.0000 0.36628  0.16563  0.21934  Biso   1.000  H
  H855     1.0000 0.32880  0.19659  0.25018  Biso   1.000  H
  H856     1.0000 0.35420  0.18984  0.26136  Biso   1.000  H
  H857     1.0000 0.14987  0.18801  0.11866  Biso   1.000  H
  H858     1.0000 0.16643  0.00078  0.04918  Biso   1.000  H
  H859     1.0000 0.16077  0.02741  0.05662  Biso   1.000  H
  H860     1.0000 0.25753  0.07577  0.01174  Biso   1.000  H
  H861     1.0000 0.43887  0.71147  0.68919  Biso   1.000  H
  H862     1.0000 0.39851  0.73100  0.71144  Biso   1.000  H
  H863     1.0000 0.42181  0.63778  0.69602  Biso   1.000  H
  H864     1.0000 0.37334  0.63639  0.70814  Biso   1.000  H
  H865     1.0000 0.36708  0.62764  0.68203  Biso   1.000  H
  H866     1.0000 0.81182  0.14787  0.67826  Biso   1.000  H
  H867     1.0000 0.82801  0.13137  0.66181  Biso   1.000  H
  H868     1.0000 0.36987  0.70058  0.73634  Biso   1.000  H
  H869     1.0000 0.32444  0.66540  0.73768  Biso   1.000  H
  H870     1.0000 0.34917  0.65653  0.74811  Biso   1.000  H
  H871     1.0000 0.66491  0.50074  0.04998  Biso   1.000  H
  H872     1.0000 0.65969  0.52776  0.05677  Biso   1.000  H
  H873     1.0000 0.77245  0.57440  0.99731  Biso   1.000  H
  H874     1.0000 0.90540  0.23500  0.71310  Biso   1.000  H
  H875     1.0000 0.92126  0.13808  0.69623  Biso   1.000  H
  H876     1.0000 0.87280  0.13565  0.70824  Biso   1.000  H
  H877     1.0000 0.86671  0.12732  0.68199  Biso   1.000  H
  H878     1.0000 0.30487  0.64911  0.67052  Biso   1.000  H
  H879     1.0000 0.32089  0.63248  0.65385  Biso   1.000  H
  H880     1.0000 0.86602  0.16606  0.71944  Biso   1.000  H
  H881     1.0000 0.82860  0.19732  0.75003  Biso   1.000  H
  H882     1.0000 0.85402  0.19071  0.76123  Biso   1.000  H
  H883     1.0000 0.66712  0.00021  0.54928  Biso   1.000  H
  H884     1.0000 0.66018  0.02690  0.55594  Biso   1.000  H
  H885     1.0000 0.77371  0.07432  0.49525  Biso   1.000  H
  H886     1.0000 0.90546  0.73345  0.21298  Biso   1.000  H
  H887     1.0000 0.92244  0.63754  0.19590  Biso   1.000  H
  H888     1.0000 0.87457  0.63214  0.20909  Biso   1.000  H
  H889     1.0000 0.86822  0.62389  0.18285  Biso   1.000  H
  H890     1.0000 0.31179  0.14768  0.17791  Biso   1.000  H
  H891     1.0000 0.32758  0.13112  0.16119  Biso   1.000  H
  H892     1.0000 0.86544  0.69868  0.24566  Biso   1.000  H
  H893     1.0000 0.82707  0.65896  0.22970  Biso   1.000  H
  H894     1.0000 0.85223  0.65080  0.23966  Biso   1.000  H
  H895     1.0000 0.65798  0.22385  0.69482  Biso   1.000  H
  H896     1.0000 0.75062  0.21352  0.73029  Biso   1.000  H
  H897     1.0000 0.77467  0.17726  0.75486  Biso   1.000  H
  H898     1.0000 0.92879  0.54694  0.06670  Biso   1.000  H
  H899     1.0000 0.91194  0.51321  0.03380  Biso   1.000  H
  H900     1.0000 0.92231  0.60443  0.05817  Biso   1.000  H
  H901     1.0000 0.91537  0.61273  0.08464  Biso   1.000  H
  H902     1.0000 0.87922  0.62323  0.04099  Biso   1.000  H
  H903     1.0000 0.30371  0.10147  0.07807  Biso   1.000  H
  H904     1.0000 0.83071  0.58481  0.03444  Biso   1.000  H
  H905     1.0000 0.85610  0.59385  0.02626  Biso   1.000  H
  H906     1.0000 0.64434  0.54858  0.12566  Biso   1.000  H
  H907     1.0000 0.65277  0.72495  0.18567  Biso   1.000  H
  H908     1.0000 0.77357  0.67760  0.25405  Biso   1.000  H
  H909     1.0000 0.93283  0.04618  0.56607  Biso   1.000  H
  H910     1.0000 0.90714  0.01571  0.53588  Biso   1.000  H
  H911     1.0000 0.91869  0.09967  0.55866  Biso   1.000  H
  H912     1.0000 0.91205  0.10814  0.58506  Biso   1.000  H
  H913     1.0000 0.88290  0.12920  0.54000  Biso   1.000  H
  H914     1.0000 0.32993  0.59426  0.56171  Biso   1.000  H
  H915     1.0000 0.83145  0.05288  0.49955  Biso   1.000  H
  H916     1.0000 0.85730  0.06066  0.49014  Biso   1.000  H
  H917     1.0000 0.83931  0.07883  0.54169  Biso   1.000  H
  H918     1.0000 0.65047  0.05934  0.63175  Biso   1.000  H
  H919     1.0000 0.15323  0.22631  0.18615  Biso   1.000  H
  H920     1.0000 0.25064  0.21325  0.22971  Biso   1.000  H
  H921     1.0000 0.27395  0.17630  0.25403  Biso   1.000  H
  H922     1.0000 0.43487  0.54487  0.56428  Biso   1.000  H
  H923     1.0000 0.40796  0.51473  0.53480  Biso   1.000  H
  H924     1.0000 0.41669  0.59679  0.55925  Biso   1.000  H
  H925     1.0000 0.41041  0.60558  0.58566  Biso   1.000  H
  H926     1.0000 0.38518  0.63074  0.54040  Biso   1.000  H
  H927     1.0000 0.80519  0.10251  0.57728  Biso   1.000  H
  H928     1.0000 0.32672  0.58829  0.52189  Biso   1.000  H
  H929     1.0000 0.35193  0.59723  0.51308  Biso   1.000  H
  H930     1.0000 0.33904  0.54130  0.50976  Biso   1.000  H
  H931     1.0000 0.14394  0.54786  0.62243  Biso   1.000  H
  H932     1.0000 0.15298  0.72455  0.68699  Biso   1.000  H
  H933     1.0000 0.27660  0.68039  0.75555  Biso   1.000  H
  H934     1.0000 0.42819  0.04783  0.06820  Biso   1.000  H
  H935     1.0000 0.41285  0.01417  0.03461  Biso   1.000  H
  H936     1.0000 0.42167  0.10348  0.05814  Biso   1.000  H
  H937     1.0000 0.41418  0.11103  0.08465  Biso   1.000  H
  H938     1.0000 0.38148  0.12697  0.03995  Biso   1.000  H
  H939     1.0000 0.82193  0.59869  0.06491  Biso   1.000  H
  H940     1.0000 0.83795  0.61476  0.08206  Biso   1.000  H
  H941     1.0000 0.33826  0.07922  0.04164  Biso   1.000  H
  H942     1.0000 0.15151  0.05989  0.13329  Biso   1.000  H
  H943     1.0000 0.58025  0.74927  0.04908  Biso   1.000  H
  H944     1.0000 0.58653  0.72205  0.05353  Biso   1.000  H
  H945     1.0000 0.49924  0.71657  0.01822  Biso   1.000  H
  H946     1.0000 0.47640  0.67883  0.99472  Biso   1.000  H
  H947     1.0000 0.31523  0.04362  0.68599  Biso   1.000  H
  H948     1.0000 0.32804  0.10495  0.69210  Biso   1.000  H
  H949     1.0000 0.33543  0.11408  0.66603  Biso   1.000  H
  H950     1.0000 0.37031  0.12416  0.71078  Biso   1.000  H
  H951     1.0000 0.37794  0.13262  0.68477  Biso   1.000  H
  H952     1.0000 0.93348  0.59930  0.68342  Biso   1.000  H
  H953     1.0000 0.91746  0.61605  0.66717  Biso   1.000  H
  H954     1.0000 0.38784  0.05495  0.75586  Biso   1.000  H
  H955     1.0000 0.41857  0.08606  0.71839  Biso   1.000  H
  H956     1.0000 0.39349  0.09549  0.72693  Biso   1.000  H
  H957     1.0000 0.59637  0.07416  0.61886  Biso   1.000  H
  H958     1.0000 0.58123  0.24933  0.54847  Biso   1.000  H
  H959     1.0000 0.58686  0.22196  0.55310  Biso   1.000  H
  H960     1.0000 0.47308  0.17882  0.49351  Biso   1.000  H
  H961     1.0000 0.33550  0.54815  0.18222  Biso   1.000  H
  H962     1.0000 0.33059  0.60520  0.19413  Biso   1.000  H
  H963     1.0000 0.33649  0.61318  0.16748  Biso   1.000  H
  H964     1.0000 0.37523  0.62179  0.20913  Biso   1.000  H
  H965     1.0000 0.91256  0.08317  0.18554  Biso   1.000  H
  H966     1.0000 0.42184  0.55571  0.25358  Biso   1.000  H
  H967     1.0000 0.39622  0.56383  0.26318  Biso   1.000  H
  H968     1.0000 0.40920  0.57026  0.20745  Biso   1.000  H
  H969     1.0000 0.08460  0.75289  0.55486  Biso   1.000  H
  H970     1.0000 0.09147  0.72598  0.56006  Biso   1.000  H
  H971     1.0000 0.99801  0.71636  0.51764  Biso   1.000  H
  H972     1.0000 0.97657  0.67784  0.49411  Biso   1.000  H
  H973     1.0000 0.81170  0.04039  0.18962  Biso   1.000  H
  H974     1.0000 0.84910  0.01760  0.21387  Biso   1.000  H
  H975     1.0000 0.83276  0.09816  0.19198  Biso   1.000  H
  H976     1.0000 0.83834  0.10704  0.16576  Biso   1.000  H
  H977     1.0000 0.86828  0.12863  0.20979  Biso   1.000  H
  H978     1.0000 0.42192  0.59409  0.18763  Biso   1.000  H
  H979     1.0000 0.40627  0.61041  0.17096  Biso   1.000  H
  H980     1.0000 0.90624  0.04155  0.22963  Biso   1.000  H
  H981     1.0000 0.92581  0.08738  0.23489  Biso   1.000  H
  H982     1.0000 0.90118  0.09660  0.24535  Biso   1.000  H
  H983     1.0000 0.09653  0.06997  0.11964  Biso   1.000  H
  H984     1.0000 0.08628  0.24903  0.05014  Biso   1.000  H
  H985     1.0000 0.09214  0.22204  0.05563  Biso   1.000  H
  H986     1.0000 0.99348  0.17307  0.01436  Biso   1.000  H
  H987     1.0000 0.81156  0.54225  0.68855  Biso   1.000  H
  H988     1.0000 0.83373  0.59852  0.69221  Biso   1.000  H
  H989     1.0000 0.84074  0.60653  0.66608  Biso   1.000  H
  H990     1.0000 0.87017  0.62713  0.71098  Biso   1.000  H
  H991     1.0000 0.42062  0.09648  0.68837  Biso   1.000  H
  H992     1.0000 0.40499  0.11307  0.67129  Biso   1.000  H
  H993     1.0000 0.91906  0.55132  0.75082  Biso   1.000  H
  H994     1.0000 0.89354  0.55966  0.76071  Biso   1.000  H
  H995     1.0000 0.91107  0.57758  0.70889  Biso   1.000  H
  H996     1.0000 0.52571  0.55741  0.15540  Biso   1.000  H
  H997     1.0000 0.52899  0.51118  0.25827  Biso   1.000  H
  H998     1.0000 0.57477  0.49739  0.27298  Biso   1.000  H
  H999     1.0000 0.21097  0.18823  0.43891  Biso   1.000  H
  H1000    1.0000 0.23141  0.21239  0.40017  Biso   1.000  H
  H1001    1.0000 0.11883  0.17157  0.41349  Biso   1.000  H
  H1002    1.0000 0.14510  0.20450  0.37424  Biso   1.000  H
  H1003    1.0000 0.13654  0.17861  0.36722  Biso   1.000  H
  H1004    1.0000 0.64893  0.17040  0.85304  Biso   1.000  H
  H1005    1.0000 0.20547  0.21716  0.34740  Biso   1.000  H
  H1006    1.0000 0.19679  0.22792  0.37218  Biso   1.000  H
  H1007    1.0000 0.17330  0.24670  0.32304  Biso   1.000  H
  H1008    1.0000 0.19118  0.12003  0.15270  Biso   1.000  H
  H1009    1.0000 0.49676  0.05459  0.65978  Biso   1.000  H
  H1010    1.0000 0.57691  0.00624  0.76339  Biso   1.000  H
  H1011    1.0000 0.21858  0.69661  0.94169  Biso   1.000  H
  H1012    1.0000 0.22382  0.70280  0.89232  Biso   1.000  H
  H1013    1.0000 0.13358  0.66707  0.91621  Biso   1.000  H
  H1014    1.0000 0.12844  0.70994  0.87804  Biso   1.000  H
  H1015    1.0000 0.11893  0.68415  0.87151  Biso   1.000  H
  H1016    1.0000 0.63247  0.66554  0.33447  Biso   1.000  H
  H1017    1.0000 0.20875  0.73568  0.84201  Biso   1.000  H
  H1018    1.0000 0.19875  0.74525  0.86683  Biso   1.000  H
  H1019    1.0000 0.16229  0.73473  0.82349  Biso   1.000  H
  H1020    1.0000 0.19490  0.61905  0.65166  Biso   1.000  H
  H1021    1.0000 0.03410  0.51541  0.75569  Biso   1.000  H
  H1022    1.0000 0.07440  0.49483  0.77691  Biso   1.000  H
  H1023    1.0000 0.71779  0.19691  0.94226  Biso   1.000  H
  H1024    1.0000 0.72255  0.20263  0.89277  Biso   1.000  H
  H1025    1.0000 0.63144  0.16753  0.91700  Biso   1.000  H
  H1026    1.0000 0.62991  0.20845  0.87652  Biso   1.000  H
  H1027    1.0000 0.62078  0.18223  0.87035  Biso   1.000  H
  H1028    1.0000 0.13160  0.16615  0.33404  Biso   1.000  H
  H1029    1.0000 0.70757  0.22810  0.84462  Biso   1.000  H
  H1030    1.0000 0.69772  0.23932  0.86879  Biso   1.000  H
  H1031    1.0000 0.66336  0.23636  0.82266  Biso   1.000  H
  H1032    1.0000 0.68627  0.11761  0.65335  Biso   1.000  H
  H1033    1.0000 0.03793  0.99299  0.27466  Biso   1.000  H
  H1034    1.0000 0.07138  0.01998  0.24895  Biso   1.000  H
  H1035    1.0000 0.70750  0.68719  0.43415  Biso   1.000  H
  H1036    1.0000 0.73593  0.71682  0.40545  Biso   1.000  H
  H1037    1.0000 0.63832  0.66554  0.41476  Biso   1.000  H
  H1038    1.0000 0.62829  0.70958  0.37902  Biso   1.000  H
  H1039    1.0000 0.62012  0.68352  0.37171  Biso   1.000  H
  H1040    1.0000 0.15393  0.68775  0.82641  Biso   1.000  H
  H1041    1.0000 0.70919  0.72989  0.34541  Biso   1.000  H
  H1042    1.0000 0.69930  0.74064  0.36990  Biso   1.000  H
  H1043    1.0000 0.66429  0.73679  0.32425  Biso   1.000  H
  H1044    1.0000 0.69488  0.61926  0.15205  Biso   1.000  H
  H1045    1.0000 0.02640  0.19326  0.09184  Biso   1.000  H
  H1046    1.0000 0.02608  0.24367  0.98521  Biso   1.000  H
  H1047    1.0000 0.73068  0.53868  0.85067  Biso   1.000  H
  H1048    1.0000 0.65135  0.55743  0.83061  Biso   1.000  H
  H1049    1.0000 0.62049  0.54071  0.86619  Biso   1.000  H
  H1050    1.0000 0.61260  0.56746  0.87190  Biso   1.000  H
  H1051    1.0000 0.14803  0.56901  0.43575  Biso   1.000  H
  H1052    1.0000 0.13152  0.58533  0.41935  Biso   1.000  H
  H1053    1.0000 0.69677  0.49741  0.88617  Biso   1.000  H
  H1054    1.0000 0.66328  0.52884  0.92087  Biso   1.000  H
  H1055    1.0000 0.65315  0.51988  0.89613  Biso   1.000  H
  H1056    1.0000 0.67531  0.62883  0.09869  Biso   1.000  H
  H1057    1.0000 0.03284  0.75198  0.47688  Biso   1.000  H
  H1058    1.0000 0.07516  0.73502  0.49745  Biso   1.000  H
  H1059    1.0000 0.73067  0.03983  0.35172  Biso   1.000  H
  H1060    1.0000 0.65269  0.05760  0.33033  Biso   1.000  H
  H1061    1.0000 0.62087  0.04094  0.36505  Biso   1.000  H
  H1062    1.0000 0.61297  0.06767  0.37065  Biso   1.000  H
  H1063    1.0000 0.15033  0.06244  0.92433  Biso   1.000  H
  H1064    1.0000 0.13453  0.07933  0.90775  Biso   1.000  H
  H1065    1.0000 0.66350  0.03072  0.41994  Biso   1.000  H
  H1066    1.0000 0.65351  0.02152  0.39517  Biso   1.000  H
  H1067    1.0000 0.68086  0.13032  0.59742  Biso   1.000  H
  H1068    1.0000 0.52435  0.19192  0.59271  Biso   1.000  H
  H1069    1.0000 0.53381  0.25179  0.47557  Biso   1.000  H
  H1070    1.0000 0.57422  0.23198  0.49743  Biso   1.000  H
  H1071    1.0000 0.23025  0.54049  0.35316  Biso   1.000  H
  H1072    1.0000 0.14991  0.55743  0.32972  Biso   1.000  H
  H1073    1.0000 0.12499  0.54142  0.36999  Biso   1.000  H
  H1074    1.0000 0.11637  0.56803  0.37526  Biso   1.000  H
  H1075    1.0000 0.66327  0.56234  0.91437  Biso   1.000  H
  H1076    1.0000 0.64711  0.57866  0.89769  Biso   1.000  H
  H1077    1.0000 0.19944  0.50773  0.38286  Biso   1.000  H
  H1078    1.0000 0.16229  0.51411  0.42638  Biso   1.000  H
  H1079    1.0000 0.15310  0.50441  0.40134  Biso   1.000  H
  H1080    1.0000 0.17566  0.62993  0.59849  Biso   1.000  H
  H1081    1.0000 0.52862  0.69619  0.08742  Biso   1.000  H
  H1082    1.0000 0.53328  0.75139  0.97755  Biso   1.000  H
  H1083    1.0000 0.57624  0.73464  0.99690  Biso   1.000  H
  H1084    1.0000 0.23476  0.03407  0.84190  Biso   1.000  H
  H1085    1.0000 0.13959  0.05579  0.82437  Biso   1.000  H
  H1086    1.0000 0.12737  0.04113  0.87060  Biso   1.000  H
  H1087    1.0000 0.12033  0.06748  0.87727  Biso   1.000  H
  H1088    1.0000 0.66366  0.06299  0.41370  Biso   1.000  H
  H1089    1.0000 0.64724  0.07909  0.39708  Biso   1.000  H
  H1090    1.0000 0.20799  0.01870  0.90614  Biso   1.000  H
  H1091    1.0000 0.19842  0.00946  0.88107  Biso   1.000  H
  H1092    1.0000 0.16112  0.02038  0.92346  Biso   1.000  H
  H1093    1.0000 0.17397  0.12868  0.09843  Biso   1.000  H
  H1094    1.0000 0.75265  0.05436  0.58754  Biso   1.000  H
  H1095    1.0000 0.70474  0.99010  0.46919  Biso   1.000  H
  H1096    1.0000 0.68987  0.02368  0.50309  Biso   1.000  H
  H1097    1.0000 0.01500  0.71570  0.34361  Biso   1.000  H
  H1098    1.0000 0.11364  0.69665  0.32625  Biso   1.000  H
  H1099    1.0000 0.11380  0.70633  0.37541  Biso   1.000  H
  H1100    1.0000 0.12322  0.68005  0.38049  Biso   1.000  H
  H1101    1.0000 0.60119  0.66900  0.89665  Biso   1.000  H
  H1102    1.0000 0.05189  0.75361  0.38791  Biso   1.000  H
  H1103    1.0000 0.08785  0.72159  0.41949  Biso   1.000  H
  H1104    1.0000 0.09585  0.73058  0.39388  Biso   1.000  H
  H1105    1.0000 0.06558  0.61661  0.59668  Biso   1.000  H
  H1106    1.0000 0.74393  0.54095  0.06568  Biso   1.000  H
  H1107    1.0000 0.71658  0.49501  0.97518  Biso   1.000  H
  H1108    1.0000 0.67593  0.51501  0.99638  Biso   1.000  H
  H1109    1.0000 0.03156  0.19855  0.80809  Biso   1.000  H
  H1110    1.0000 0.02495  0.20507  0.85724  Biso   1.000  H
  H1111    1.0000 0.11729  0.16756  0.83503  Biso   1.000  H
  H1112    1.0000 0.12023  0.20962  0.87431  Biso   1.000  H
  H1113    1.0000 0.12896  0.18351  0.88106  Biso   1.000  H
  H1114    1.0000 0.60025  0.16892  0.39648  Biso   1.000  H
  H1115    1.0000 0.04133  0.23396  0.90840  Biso   1.000  H
  H1116    1.0000 0.05079  0.24545  0.88392  Biso   1.000  H
  H1117    1.0000 0.08805  0.23365  0.92627  Biso   1.000  H
  H1118    1.0000 0.25282  0.05440  0.08790  Biso   1.000  H
  H1119    1.0000 0.17423  0.01476  0.99521  Biso   1.000  H
  H1120    1.0000 0.51544  0.71644  0.84314  Biso   1.000  H
  H1121    1.0000 0.61623  0.69657  0.82709  Biso   1.000  H
  H1122    1.0000 0.61375  0.70569  0.87630  Biso   1.000  H
  H1123    1.0000 0.62293  0.67936  0.88159  Biso   1.000  H
  H1124    1.0000 0.10199  0.67018  0.39667  Biso   1.000  H
  H1125    1.0000 0.55324  0.75367  0.88827  Biso   1.000  H
  H1126    1.0000 0.58831  0.72056  0.91970  Biso   1.000  H
  H1127    1.0000 0.59674  0.72982  0.89432  Biso   1.000  H
  H1128    1.0000 0.25045  0.55214  0.58732  Biso   1.000  H
  H1129    1.0000 0.22324  0.55827  0.59211  Biso   1.000  H
  H1130    1.0000 0.22203  0.50141  0.48395  Biso   1.000  H
  H1131    1.0000 0.17263  0.50832  0.48737  Biso   1.000  H
  H1132    1.0000 0.53227  0.19776  0.30789  Biso   1.000  H
  H1133    1.0000 0.52561  0.20394  0.35708  Biso   1.000  H
  H1134    1.0000 0.61851  0.16829  0.33311  Biso   1.000  H
  H1135    1.0000 0.62110  0.20852  0.37425  Biso   1.000  H
  H1136    1.0000 0.62970  0.18198  0.37997  Biso   1.000  H
  H1137    1.0000 0.11760  0.16387  0.91731  Biso   1.000  H
  H1138    1.0000 0.54264  0.22765  0.40570  Biso   1.000  H
  H1139    1.0000 0.55250  0.23952  0.38186  Biso   1.000  H
  H1140    1.0000 0.58689  0.23525  0.42788  Biso   1.000  H
  H1141    1.0000 0.24898  0.70282  0.67458  Biso   1.000  H
  H1142    1.0000 0.20402  0.76016  0.77962  Biso   1.000  H
  H1143    1.0000 0.18480  0.72745  0.74698  Biso   1.000  H
  H1144    1.0000 0.54675  0.06387  0.93117  Biso   1.000  H
  H1145    1.0000 0.51356  0.03358  0.90925  Biso   1.000  H
  H1146    1.0000 0.59129  0.05783  0.90890  Biso   1.000  H
  H1147    1.0000 0.59936  0.08427  0.90308  Biso   1.000  H
  H1148    1.0000 0.63408  0.04052  0.88979  Biso   1.000  H
  H1149    1.0000 0.09414  0.06100  0.32930  Biso   1.000  H
  H1150    1.0000 0.54240  0.01541  0.84125  Biso   1.000  H
  H1151    1.0000 0.55141  0.00495  0.86624  Biso   1.000  H
  H1152    1.0000 0.58916  0.01389  0.82362  Biso   1.000  H
  H1153    1.0000 0.56920  0.13338  0.65262  Biso   1.000  H
  H1154    1.0000 0.24772  0.20465  0.17482  Biso   1.000  H
  H1155    1.0000 0.20381  0.26087  0.28200  Biso   1.000  H
  H1156    1.0000 0.18897  0.22763  0.24775  Biso   1.000  H
  H1157    1.0000 0.53793  0.55908  0.44064  Biso   1.000  H
  H1158    1.0000 0.52055  0.54041  0.39756  Biso   1.000  H
  H1159    1.0000 0.61161  0.55468  0.42378  Biso   1.000  H
  H1160    1.0000 0.61619  0.54163  0.37568  Biso   1.000  H
  H1161    1.0000 0.62477  0.56768  0.36932  Biso   1.000  H
  H1162    1.0000 0.10111  0.58222  0.80285  Biso   1.000  H
  H1163    1.0000 0.55081  0.50086  0.36501  Biso   1.000  H
  H1164    1.0000 0.59009  0.52307  0.32923  Biso   1.000  H
  H1165    1.0000 0.59822  0.51310  0.35433  Biso   1.000  H
  H1166    1.0000 0.57220  0.63318  0.15217  Biso   1.000  H
  H1167    1.0000 0.74768  0.70388  0.17741  Biso   1.000  H
  H1168    1.0000 0.70239  0.76079  0.28117  Biso   1.000  H
  H1169    1.0000 0.68615  0.72734  0.24780  Biso   1.000  H
  H1170    1.0000 0.04459  0.06387  0.43162  Biso   1.000  H
  H1171    1.0000 0.01426  0.03278  0.40678  Biso   1.000  H
  H1172    1.0000 0.09702  0.05911  0.41501  Biso   1.000  H
  H1173    1.0000 0.10619  0.08533  0.40894  Biso   1.000  H
  H1174    1.0000 0.13204  0.04000  0.38475  Biso   1.000  H
  H1175    1.0000 0.60272  0.06949  0.81155  Biso   1.000  H
  H1176    1.0000 0.04201  0.01243  0.34085  Biso   1.000  H
  H1177    1.0000 0.05216  0.00402  0.36604  Biso   1.000  H
  H1178    1.0000 0.08853  0.01492  0.32264  Biso   1.000  H
  H1179    1.0000 0.07248  0.13326  0.15079  Biso   1.000  H
  H1180    1.0000 0.74881  0.20462  0.67127  Biso   1.000  H
  H1181    1.0000 0.70236  0.26054  0.78133  Biso   1.000  H
  H1182    1.0000 0.68901  0.22714  0.74659  Biso   1.000  H
  H1183    1.0000 0.04068  0.56306  0.93966  Biso   1.000  H
  H1184    1.0000 0.01799  0.53650  0.90383  Biso   1.000  H
  H1185    1.0000 0.09846  0.55853  0.91708  Biso   1.000  H
  H1186    1.0000 0.13112  0.54011  0.88407  Biso   1.000  H
  H1187    1.0000 0.60176  0.56673  0.31691  Biso   1.000  H
  H1188    1.0000 0.06090  0.52871  0.87320  Biso   1.000  H
  H1189    1.0000 0.07920  0.50352  0.82471  Biso   1.000  H
  H1190    1.0000 0.08711  0.49302  0.84997  Biso   1.000  H
  H1191    1.0000 0.06886  0.63140  0.65218  Biso   1.000  H
  H1192    1.0000 0.65888  0.69481  0.22377  Biso   1.000  H
  H1193    1.0000 0.77805  0.75462  0.21350  Biso   1.000  H
  H1194    1.0000 0.75178  0.73092  0.17804  Biso   1.000  H
  H1195    1.0000 0.90763  0.03546  0.51554  Biso   1.000  H
  H1196    1.0000 0.92220  0.05391  0.61089  Biso   1.000  H
  H1197    1.0000 0.87446  0.04189  0.61945  Biso   1.000  H
  H1198    1.0000 0.86925  0.06863  0.62774  Biso   1.000  H
  H1199    1.0000 0.33418  0.06261  0.08580  Biso   1.000  H
  H1200    1.0000 0.35079  0.07889  0.10202  Biso   1.000  H
  H1201    1.0000 0.87163  0.02535  0.55880  Biso   1.000  H
  H1202    1.0000 0.82182  0.00402  0.57824  Biso   1.000  H
  H1203    1.0000 0.64610  0.12597  0.58868  Biso   1.000  H
  H1204    1.0000 0.65255  0.17258  0.72880  Biso   1.000  H
  H1205    1.0000 0.77727  0.25526  0.71442  Biso   1.000  H
  H1206    1.0000 0.75125  0.23262  0.67805  Biso   1.000  H
  H1207    1.0000 0.91114  0.53341  0.01370  Biso   1.000  H
  H1208    1.0000 0.92331  0.55342  0.11137  Biso   1.000  H
  H1209    1.0000 0.87507  0.54157  0.11724  Biso   1.000  H
  H1210    1.0000 0.86963  0.56805  0.12609  Biso   1.000  H
  H1211    1.0000 0.31112  0.57124  0.60200  Biso   1.000  H
  H1212    1.0000 0.32736  0.58737  0.61880  Biso   1.000  H
  H1213    1.0000 0.87120  0.51692  0.05150  Biso   1.000  H
  H1214    1.0000 0.82384  0.50840  0.08305  Biso   1.000  H
  H1215    1.0000 0.84866  0.49832  0.09228  Biso   1.000  H
  H1216    1.0000 0.64607  0.62453  0.09072  Biso   1.000  H
  H1217    1.0000 0.16059  0.69007  0.75528  Biso   1.000  H
  H1218    1.0000 0.28066  0.76010  0.69945  Biso   1.000  H
  H1219    1.0000 0.24538  0.72659  0.68772  Biso   1.000  H
  H1220    1.0000 0.41283  0.03430  0.01451  Biso   1.000  H
  H1221    1.0000 0.42111  0.05303  0.11160  Biso   1.000  H
  H1222    1.0000 0.37258  0.04227  0.11675  Biso   1.000  H
  H1223    1.0000 0.36768  0.06895  0.12551  Biso   1.000  H
  H1224    1.0000 0.83399  0.06287  0.58723  Biso   1.000  H
  H1225    1.0000 0.85053  0.07899  0.60363  Biso   1.000  H
  H1226    1.0000 0.37151  0.02536  0.05750  Biso   1.000  H
  H1227    1.0000 0.32202  0.00281  0.07650  Biso   1.000  H
  H1228    1.0000 0.14463  0.12447  0.08953  Biso   1.000  H
  H1229    1.0000 0.15993  0.19745  0.22282  Biso   1.000  H
  H1230    1.0000 0.27766  0.25471  0.21514  Biso   1.000  H
  H1231    1.0000 0.25203  0.23309  0.17788  Biso   1.000  H
  H1232    1.0000 0.40762  0.53477  0.51466  Biso   1.000  H
  H1233    1.0000 0.42230  0.55326  0.61276  Biso   1.000  H
  H1234    1.0000 0.37344  0.54281  0.61432  Biso   1.000  H
  H1235    1.0000 0.36813  0.56927  0.62344  Biso   1.000  H
  H1236    1.0000 0.81733  0.56453  0.10121  Biso   1.000  H
  H1237    1.0000 0.37182  0.52540  0.55739  Biso   1.000  H
  H1238    1.0000 0.32290  0.50188  0.57657  Biso   1.000  H
  H1239    1.0000 0.34792  0.49092  0.58457  Biso   1.000  H
  H1240    1.0000 0.14736  0.62823  0.58851  Biso   1.000  H
  H1241    1.0000 0.58172  0.04635  0.74777  Biso   1.000  H
  H1242    1.0000 0.49574  0.01667  0.71715  Biso   1.000  H
  H1243    1.0000 0.47352  0.99627  0.67722  Biso   1.000  H
  H1244    1.0000 0.31588  0.68704  0.04243  Biso   1.000  H
  H1245    1.0000 0.34586  0.71548  0.01410  Biso   1.000  H
  H1246    1.0000 0.33820  0.66393  0.10929  Biso   1.000  H
  H1247    1.0000 0.36994  0.70928  0.12504  Biso   1.000  H
  H1248    1.0000 0.37740  0.68338  0.13348  Biso   1.000  H
  H1249    1.0000 0.91928  0.66443  0.61777  Biso   1.000  H
  H1250    1.0000 0.40400  0.72701  0.04109  Biso   1.000  H
  H1251    1.0000 0.37983  0.73821  0.05118  Biso   1.000  H
  H1252    1.0000 0.42686  0.73778  0.08443  Biso   1.000  H
  H1253    1.0000 0.60907  0.62797  0.04671  Biso   1.000  H
  H1254    1.0000 0.59624  0.56241  0.22552  Biso   1.000  H
  H1255    1.0000 0.48384  0.50099  0.22312  Biso   1.000  H
  H1256    1.0000 0.48681  0.50663  0.17338  Biso   1.000  H
  H1257    1.0000 0.30700  0.19785  0.53185  Biso   1.000  H
  H1258    1.0000 0.35639  0.20340  0.52692  Biso   1.000  H
  H1259    1.0000 0.34398  0.16506  0.59942  Biso   1.000  H
  H1260    1.0000 0.36116  0.20985  0.63103  Biso   1.000  H
  H1261    1.0000 0.36675  0.18358  0.63996  Biso   1.000  H
  H1262    1.0000 0.92895  0.15199  0.11694  Biso   1.000  H
  H1263    1.0000 0.40367  0.22695  0.54126  Biso   1.000  H
  H1264    1.0000 0.37975  0.23874  0.55115  Biso   1.000  H
  H1265    1.0000 0.42655  0.23743  0.58456  Biso   1.000  H
  H1266    1.0000 0.60583  0.12607  0.54753  Biso   1.000  H
  H1267    1.0000 0.08936  0.07688  0.25901  Biso   1.000  H
  H1268    1.0000 0.99347  0.01303  0.21973  Biso   1.000  H
  H1269    1.0000 0.81446  0.68611  0.54363  Biso   1.000  H
  H1270    1.0000 0.84455  0.71533  0.51626  Biso   1.000  H
  H1271    1.0000 0.83665  0.66627  0.61760  Biso   1.000  H
  H1272    1.0000 0.87520  0.70898  0.61879  Biso   1.000  H
  H1273    1.0000 0.88256  0.68320  0.62779  Biso   1.000  H
  H1274    1.0000 0.41945  0.66394  0.11815  Biso   1.000  H
  H1275    1.0000 0.90148  0.71799  0.54343  Biso   1.000  H
  H1276    1.0000 0.87706  0.72919  0.55251  Biso   1.000  H
  H1277    1.0000 0.92646  0.74426  0.57789  Biso   1.000  H
  H1278    1.0000 0.10681  0.62950  0.54767  Biso   1.000  H
  H1279    1.0000 0.08425  0.54709  0.74858  Biso   1.000  H
  H1280    1.0000 0.96874  0.48796  0.70469  Biso   1.000  H
  H1281    1.0000 0.80779  0.19804  0.03025  Biso   1.000  H
  H1282    1.0000 0.85693  0.20488  0.02464  Biso   1.000  H
  H1283    1.0000 0.83440  0.16622  0.11570  Biso   1.000  H
  H1284    1.0000 0.87254  0.20927  0.11815  Biso   1.000  H
  H1285    1.0000 0.88013  0.18330  0.12658  Biso   1.000  H
  H1286    1.0000 0.39535  0.17068  0.60020  Biso   1.000  H
  H1287    1.0000 0.90909  0.23563  0.04246  Biso   1.000  H
  H1288    1.0000 0.88437  0.24676  0.05158  Biso   1.000  H
  H1289    1.0000 0.92406  0.23030  0.08994  Biso   1.000  H
  H1290    1.0000 0.10525  0.12379  0.04755  Biso   1.000  H
  H1291    1.0000 0.07942  0.20294  0.00212  Biso   1.000  H
  H1292    1.0000 0.99434  0.23242  0.07247  Biso   1.000  H
  H1293    1.0000 0.81248  0.56218  0.70883  Biso   1.000  H
  H1294    1.0000 0.84852  0.53655  0.73223  Biso   1.000  H
  H1295    1.0000 0.82895  0.55144  0.62813  Biso   1.000  H
  H1296    1.0000 0.87524  0.54572  0.64610  Biso   1.000  H
  H1297    1.0000 0.88166  0.57187  0.63790  Biso   1.000  H
  H1298    1.0000 0.43875  0.56929  0.14747  Biso   1.000  H
  H1299    1.0000 0.87784  0.52573  0.69155  Biso   1.000  H
  H1300    1.0000 0.92674  0.50194  0.67256  Biso   1.000  H
  H1301    1.0000 0.90164  0.49139  0.66410  Biso   1.000  H
  H1302    1.0000 0.10202  0.62676  0.69407  Biso   1.000  H
  H1303    1.0000 0.09360  0.68085  0.49485  Biso   1.000  H
  H1304    1.0000 0.97009  0.75640  0.53585  Biso   1.000  H
  H1305    1.0000 0.99547  0.73330  0.57238  Biso   1.000  H
  H1306    1.0000 0.84862  0.03758  0.23363  Biso   1.000  H
  H1307    1.0000 0.82745  0.05736  0.14708  Biso   1.000  H
  H1308    1.0000 0.86915  0.03984  0.12586  Biso   1.000  H
  H1309    1.0000 0.87593  0.06599  0.11748  Biso   1.000  H
  H1310    1.0000 0.44106  0.07468  0.64826  Biso   1.000  H
  H1311    1.0000 0.91906  0.03086  0.16106  Biso   1.000  H
  H1312    1.0000 0.89460  0.02085  0.15228  Biso   1.000  H
  H1313    1.0000 0.10602  0.12496  0.20255  Biso   1.000  H
  H1314    1.0000 0.59103  0.17705  0.49345  Biso   1.000  H
  H1315    1.0000 0.47030  0.25647  0.53695  Biso   1.000  H
  H1316    1.0000 0.49910  0.23030  0.56839  Biso   1.000  H
  H1317    1.0000 0.33604  0.56808  0.20197  Biso   1.000  H
  H1318    1.0000 0.32580  0.53407  0.23718  Biso   1.000  H
  H1319    1.0000 0.32908  0.55096  0.12917  Biso   1.000  H
  H1320    1.0000 0.37648  0.54380  0.14323  Biso   1.000  H
  H1321    1.0000 0.38298  0.56991  0.13477  Biso   1.000  H
  H1322    1.0000 0.93010  0.56292  0.64930  Biso   1.000  H
  H1323    1.0000 0.38142  0.51215  0.20047  Biso   1.000  H
  H1324    1.0000 0.42578  0.51199  0.16378  Biso   1.000  H
  H1325    1.0000 0.40071  0.50206  0.15527  Biso   1.000  H
  H1326    1.0000 0.59922  0.63082  0.18770  Biso   1.000  H
  H1327    1.0000 0.47305  0.75556  0.03491  Biso   1.000  H
  H1328    1.0000 0.49182  0.73740  0.07756  Biso   1.000  H
  H1329    1.0000 0.31538  0.06422  0.70572  Biso   1.000  H
  H1330    1.0000 0.34114  0.03450  0.73654  Biso   1.000  H
  H1331    1.0000 0.33329  0.05814  0.65441  Biso   1.000  H
  H1332    1.0000 0.33980  0.08443  0.64632  Biso   1.000  H
  H1333    1.0000 0.36850  0.04000  0.62391  Biso   1.000  H
  H1334    1.0000 0.94625  0.08161  0.14865  Biso   1.000  H
  H1335    1.0000 0.92901  0.09717  0.13214  Biso   1.000  H
  H1336    1.0000 0.40651  0.04437  0.68021  Biso   1.000  H
  H1337    1.0000 0.59874  0.13082  0.69295  Biso   1.000  H
  H1338    1.0000 0.16518  0.54875  0.50030  Biso   1.000  H
  H1339    1.0000 0.15875  0.55521  0.52683  Biso   1.000  H
  H1340    1.0000 0.26649  0.50277  0.52769  Biso   1.000  H
  H1341    1.0000 0.26382  0.50738  0.57747  Biso   1.000  H
  H1342    1.0000 0.43579  0.18496  0.20539  Biso   1.000  H
  H1343    1.0000 0.40657  0.21411  0.23359  Biso   1.000  H
  H1344    1.0000 0.39740  0.16563  0.15257  Biso   1.000  H
  H1345    1.0000 0.39111  0.20808  0.11428  Biso   1.000  H
  H1346    1.0000 0.38617  0.18113  0.10630  Biso   1.000  H
  H1347    1.0000 0.84360  0.17178  0.63678  Biso   1.000  H
  H1348    1.0000 0.34715  0.21302  0.20053  Biso   1.000  H
  H1349    1.0000 0.37183  0.22406  0.19183  Biso   1.000  H
  H1350    1.0000 0.32225  0.24673  0.17325  Biso   1.000  H
  H1351    1.0000 0.28039  0.99006  0.04206  Biso   1.000  H
  H1352    1.0000 0.24673  0.02311  0.05856  Biso   1.000  H
  H1353    1.0000 0.39996  0.71109  0.73160  Biso   1.000  H
  H1354    1.0000 0.40089  0.69339  0.66144  Biso   1.000  H
  H1355    1.0000 0.39777  0.70689  0.61339  Biso   1.000  H
  H1356    1.0000 0.39169  0.68000  0.60613  Biso   1.000  H
  H1357    1.0000 0.83290  0.68671  0.16028  Biso   1.000  H
  H1358    1.0000 0.36023  0.75683  0.69333  Biso   1.000  H
  H1359    1.0000 0.32950  0.71911  0.66262  Biso   1.000  H
  H1360    1.0000 0.35451  0.72750  0.65306  Biso   1.000  H
  H1361    1.0000 0.15244  0.61737  0.66810  Biso   1.000  H
  H1362    1.0000 0.76556  0.50156  0.02764  Biso   1.000  H
  H1363    1.0000 0.76571  0.50544  0.07758  Biso   1.000  H
  H1364    1.0000 0.93620  0.18695  0.70633  Biso   1.000  H
  H1365    1.0000 0.90530  0.21519  0.73364  Biso   1.000  H
  H1366    1.0000 0.89791  0.16624  0.65267  Biso   1.000  H
  H1367    1.0000 0.89119  0.20854  0.61426  Biso   1.000  H
  H1368    1.0000 0.88644  0.18153  0.60636  Biso   1.000  H
  H1369    1.0000 0.34343  0.17151  0.13628  Biso   1.000  H
  H1370    1.0000 0.84671  0.21365  0.70025  Biso   1.000  H
  H1371    1.0000 0.87128  0.22471  0.69135  Biso   1.000  H
  H1372    1.0000 0.82156  0.24682  0.67254  Biso   1.000  H
  H1373    1.0000 0.66238  0.05107  0.49803  Biso   1.000  H
  H1374    1.0000 0.77481  0.99714  0.53190  Biso   1.000  H
  H1375    1.0000 0.75273  0.01719  0.57217  Biso   1.000  H
  H1376    1.0000 0.93716  0.68589  0.20696  Biso   1.000  H
  H1377    1.0000 0.90470  0.71338  0.23320  Biso   1.000  H
  H1378    1.0000 0.89931  0.66498  0.15272  Biso   1.000  H
  H1379    1.0000 0.88972  0.70789  0.11568  Biso   1.000  H
  H1380    1.0000 0.88467  0.68098  0.10762  Biso   1.000  H
  H1381    1.0000 0.35341  0.66988  0.64793  Biso   1.000  H
  H1382    1.0000 0.84775  0.71405  0.20204  Biso   1.000  H
  H1383    1.0000 0.87231  0.72531  0.19354  Biso   1.000  H
  H1384    1.0000 0.82273  0.74578  0.17262  Biso   1.000  H
  H1385    1.0000 0.25445  0.65582  0.69035  Biso   1.000  H
  H1386    1.0000 0.22700  0.65071  0.68461  Biso   1.000  H
  H1387    1.0000 0.18502  0.74739  0.72679  Biso   1.000  H
  H1388    1.0000 0.51716  0.90242  0.03721  Biso   1.000  H
  H1389    1.0000 0.59232  0.91137  0.05766  Biso   1.000  H
  H1390    1.0000 0.63154  0.88503  0.04140  Biso   1.000  H
  H1391    1.0000 0.63929  0.88003  0.06826  Biso   1.000  H
  H1392    1.0000 0.10068  0.31376  0.06771  Biso   1.000  H
  H1393    1.0000 0.54109  0.84311  0.02219  Biso   1.000  H
  H1394    1.0000 0.58620  0.82251  0.01498  Biso   1.000  H
  H1395    1.0000 0.59564  0.84715  0.00450  Biso   1.000  H
  H1396    1.0000 0.57152  0.65202  0.13102  Biso   1.000  H
  H1397    1.0000 0.25378  0.15623  0.18517  Biso   1.000  H
  H1398    1.0000 0.22619  0.15159  0.17969  Biso   1.000  H
  H1399    1.0000 0.18795  0.24798  0.22813  Biso   1.000  H
  H1400    1.0000 0.53859  0.43570  0.56135  Biso   1.000  H
  H1401    1.0000 0.51736  0.39653  0.53870  Biso   1.000  H
  H1402    1.0000 0.59952  0.41664  0.55870  Biso   1.000  H
  H1403    1.0000 0.60916  0.40951  0.58463  Biso   1.000  H
  H1404    1.0000 0.62758  0.38053  0.53844  Biso   1.000  H
  H1405    1.0000 0.09888  0.81934  0.56638  Biso   1.000  H
  H1406    1.0000 0.11485  0.83538  0.58355  Biso   1.000  H
  H1407    1.0000 0.54162  0.34084  0.51482  Biso   1.000  H
  H1408    1.0000 0.55139  0.36535  0.50431  Biso   1.000  H
  H1409    1.0000 0.59834  0.34908  0.51001  Biso   1.000  H
  H1410    1.0000 0.56842  0.15234  0.63161  Biso   1.000  H
  H1411    1.0000 0.75506  0.65515  0.18482  Biso   1.000  H
  H1412    1.0000 0.72748  0.65014  0.17958  Biso   1.000  H
  H1413    1.0000 0.68611  0.74721  0.22762  Biso   1.000  H
  H1414    1.0000 0.01720  0.90171  0.53792  Biso   1.000  H
  H1415    1.0000 0.10451  0.91956  0.55751  Biso   1.000  H
  H1416    1.0000 0.11421  0.91267  0.58348  Biso   1.000  H
  H1417    1.0000 0.12118  0.87582  0.53971  Biso   1.000  H
  H1418    1.0000 0.58189  0.33628  0.56424  Biso   1.000  H
  H1419    1.0000 0.04060  0.84489  0.52213  Biso   1.000  H
  H1420    1.0000 0.05103  0.86879  0.51102  Biso   1.000  H
  H1421    1.0000 0.08380  0.82149  0.51237  Biso   1.000  H
  H1422    1.0000 0.06807  0.65158  0.63236  Biso   1.000  H
  H1423    1.0000 0.75177  0.15783  0.68837  Biso   1.000  H
  H1424    1.0000 0.72489  0.15330  0.68092  Biso   1.000  H
  H1425    1.0000 0.68869  0.24750  0.72697  Biso   1.000  H
  H1426    1.0000 0.04060  0.43690  0.06189  Biso   1.000  H
  H1427    1.0000 0.01890  0.39806  0.03913  Biso   1.000  H
  H1428    1.0000 0.09866  0.41528  0.05886  Biso   1.000  H
  H1429    1.0000 0.10761  0.40840  0.08509  Biso   1.000  H
  H1430    1.0000 0.13212  0.38376  0.03918  Biso   1.000  H
  H1431    1.0000 0.58359  0.83578  0.06455  Biso   1.000  H
  H1432    1.0000 0.04361  0.33714  0.01043  Biso   1.000  H
  H1433    1.0000 0.05284  0.36231  0.00064  Biso   1.000  H
  H1434    1.0000 0.09952  0.35030  0.01418  Biso   1.000  H
  H1435    1.0000 0.07085  0.15171  0.12937  Biso   1.000  H
  H1436    1.0000 0.75712  0.58842  0.07478  Biso   1.000  H
  H1437    1.0000 0.72985  0.59501  0.07950  Biso   1.000  H
  H1438    1.0000 0.71720  0.47502  0.99545  Biso   1.000  H
  H1439    1.0000 0.03794  0.31125  0.68968  Biso   1.000  H
  H1440    1.0000 0.01835  0.35131  0.71228  Biso   1.000  H
  H1441    1.0000 0.11048  0.32826  0.69430  Biso   1.000  H
  H1442    1.0000 0.11938  0.33543  0.66810  Biso   1.000  H
  H1443    1.0000 0.11625  0.37564  0.70923  Biso   1.000  H
  H1444    1.0000 0.59669  0.92546  0.68642  Biso   1.000  H
  H1445    1.0000 0.61356  0.91049  0.66913  Biso   1.000  H
  H1446    1.0000 0.05627  0.42045  0.75393  Biso   1.000  H
  H1447    1.0000 0.06323  0.39456  0.76376  Biso   1.000  H
  H1448    1.0000 0.07175  0.40706  0.70820  Biso   1.000  H
  H1449    1.0000 0.74772  0.08418  0.54764  Biso   1.000  H
  H1450    1.0000 0.72071  0.08833  0.55392  Biso   1.000  H
  H1451    1.0000 0.70525  0.96999  0.48938  Biso   1.000  H
  H1452    1.0000 0.03959  0.81099  0.19070  Biso   1.000  H
  H1453    1.0000 0.02055  0.85280  0.21025  Biso   1.000  H
  H1454    1.0000 0.10862  0.82879  0.19323  Biso   1.000  H
  H1455    1.0000 0.11675  0.83518  0.16654  Biso   1.000  H
  H1456    1.0000 0.12510  0.87334  0.20889  Biso   1.000  H
  H1457    1.0000 0.61898  0.41870  0.16729  Biso   1.000  H
  H1458    1.0000 0.04215  0.90911  0.23567  Biso   1.000  H
  H1459    1.0000 0.05227  0.88481  0.24616  Biso   1.000  H
  H1460    1.0000 0.08889  0.92502  0.22740  Biso   1.000  H
  H1461    1.0000 0.06257  0.09569  0.11910  Biso   1.000  H
  H1462    1.0000 0.22439  0.59221  0.55529  Biso   1.000  H
  H1463    1.0000 0.22052  0.48089  0.50356  Biso   1.000  H
  H1464    1.0000 0.54034  0.31144  0.18827  Biso   1.000  H
  H1465    1.0000 0.51871  0.35034  0.21102  Biso   1.000  H
  H1466    1.0000 0.59894  0.34853  0.16740  Biso   1.000  H
  H1467    1.0000 0.63439  0.36001  0.21128  Biso   1.000  H
  H1468    1.0000 0.64262  0.36592  0.18453  Biso   1.000  H
  H1469    1.0000 0.09830  0.92665  0.18469  Biso   1.000  H
  H1470    1.0000 0.11500  0.91113  0.16785  Biso   1.000  H
  H1471    1.0000 0.54257  0.41041  0.24044  Biso   1.000  H
  H1472    1.0000 0.55051  0.38463  0.24990  Biso   1.000  H
  H1473    1.0000 0.58886  0.41783  0.22271  Biso   1.000  H
  H1474    1.0000 0.56286  0.59629  0.11955  Biso   1.000  H
  H1475    1.0000 0.24724  0.08371  0.04768  Biso   1.000  H
  H1476    1.0000 0.22042  0.08825  0.05459  Biso   1.000  H
  H1477    1.0000 0.54761  0.82311  0.68331  Biso   1.000  H
  H1478    1.0000 0.60961  0.83002  0.69407  Biso   1.000  H
  H1479    1.0000 0.61776  0.83711  0.66761  Biso   1.000  H
  H1480    1.0000 0.62102  0.87598  0.70997  Biso   1.000  H
  H1481    1.0000 0.11798  0.41953  0.66519  Biso   1.000  H
  H1482    1.0000 0.54483  0.90234  0.71781  Biso   1.000  H
  H1483    1.0000 0.55400  0.87807  0.72916  Biso   1.000  H
  H1484    1.0000 0.57793  0.92791  0.74529  Biso   1.000  H
  H1485    1.0000 0.56198  0.09641  0.61951  Biso   1.000  H
  H1486    1.0000 0.02694  0.09091  0.19396  Biso   1.000  H
  H1487    1.0000 0.03825  0.97328  0.25442  Biso   1.000  H
  H1488    1.0000 0.70718  0.81616  0.56349  Biso   1.000  H
  H1489    1.0000 0.73362  0.84970  0.53756  Biso   1.000  H
  H1490    1.0000 0.63287  0.83595  0.58483  Biso   1.000  H
  H1491    1.0000 0.62946  0.87310  0.54094  Biso   1.000  H
  H1492    1.0000 0.62049  0.88084  0.56658  Biso   1.000  H
  H1493    1.0000 0.15024  0.42634  0.56366  Biso   1.000  H
  H1494    1.0000 0.13389  0.41065  0.58088  Biso   1.000  H
  H1495    1.0000 0.70869  0.90564  0.51818  Biso   1.000  H
  H1496    1.0000 0.69816  0.88140  0.50762  Biso   1.000  H
  H1497    1.0000 0.66347  0.92683  0.51437  Biso   1.000  H
  H1498    1.0000 0.00464  0.57649  0.70499  Biso   1.000  H
  H1499    1.0000 0.03133  0.58202  0.69750  Biso   1.000  H
  H1500    1.0000 0.03308  0.49469  0.73683  Biso   1.000  H
  H1501    1.0000 0.70943  0.31228  0.06057  Biso   1.000  H
  H1502    1.0000 0.65348  0.35036  0.08523  Biso   1.000  H
  H1503    1.0000 0.61617  0.35771  0.04206  Biso   1.000  H
  H1504    1.0000 0.60825  0.36372  0.06868  Biso   1.000  H
  H1505    1.0000 0.15112  0.94734  0.08106  Biso   1.000  H
  H1506    1.0000 0.70675  0.40710  0.01906  Biso   1.000  H
  H1507    1.0000 0.69752  0.38241  0.00809  Biso   1.000  H
  H1508    1.0000 0.66054  0.42582  0.01585  Biso   1.000  H
  H1509    1.0000 0.49919  0.08350  0.70057  Biso   1.000  H
  H1510    1.0000 0.52643  0.08923  0.69486  Biso   1.000  H
  H1511    1.0000 0.52808  0.98032  0.74742  Biso   1.000  H
  H1512    1.0000 0.20544  0.82050  0.06676  Biso   1.000  H
  H1513    1.0000 0.23692  0.84115  0.03396  Biso   1.000  H
  H1514    1.0000 0.13092  0.83449  0.08159  Biso   1.000  H
  H1515    1.0000 0.13244  0.87442  0.04014  Biso   1.000  H
  H1516    1.0000 0.12414  0.88155  0.06616  Biso   1.000  H
  H1517    1.0000 0.64842  0.43658  0.06991  Biso   1.000  H
  H1518    1.0000 0.16344  0.91468  0.03318  Biso   1.000  H
  H1519    1.0000 0.15596  0.88976  0.02239  Biso   1.000  H
  H1520    1.0000 0.20421  0.91517  0.00405  Biso   1.000  H
  H1521    1.0000 0.49778  0.58629  0.19667  Biso   1.000  H
  H1522    1.0000 0.52502  0.59227  0.19144  Biso   1.000  H
  H1523    1.0000 0.52863  0.49051  0.23931  Biso   1.000  H
  H1524    1.0000 0.20545  0.32031  0.56770  Biso   1.000  H
  H1525    1.0000 0.13027  0.33451  0.58365  Biso   1.000  H
  H1526    1.0000 0.13085  0.37382  0.54159  Biso   1.000  H
  H1527    1.0000 0.12215  0.38107  0.56739  Biso   1.000  H
  H1528    1.0000 0.65120  0.92725  0.56317  Biso   1.000  H
  H1529    1.0000 0.63472  0.91199  0.58063  Biso   1.000  H
  H1530    1.0000 0.20389  0.40284  0.53317  Biso   1.000  H
  H1531    1.0000 0.19523  0.37806  0.52260  Biso   1.000  H
  H1532    1.0000 0.17025  0.42689  0.50499  Biso   1.000  H
  H1533    1.0000 0.49815  0.16060  0.55219  Biso   1.000  H
  H1534    1.0000 0.52503  0.15487  0.55903  Biso   1.000  H
  H1535    1.0000 0.57346  0.25224  0.51722  Biso   1.000  H
  H1536    1.0000 0.23450  0.40326  0.21281  Biso   1.000  H
  H1537    1.0000 0.14690  0.41920  0.19192  Biso   1.000  H
  H1538    1.0000 0.13762  0.41198  0.16591  Biso   1.000  H
  H1539    1.0000 0.12856  0.37645  0.21032  Biso   1.000  H
  H1540    1.0000 0.66270  0.83322  0.18698  Biso   1.000  H
  H1541    1.0000 0.64620  0.84955  0.17086  Biso   1.000  H
  H1542    1.0000 0.20805  0.34563  0.22676  Biso   1.000  H
  H1543    1.0000 0.19828  0.36985  0.23789  Biso   1.000  H
  H1544    1.0000 0.16674  0.32187  0.24208  Biso   1.000  H
  H1545    1.0000 0.17337  0.15020  0.11693  Biso   1.000  H
  H1546    1.0000 0.49672  0.65824  0.05843  Biso   1.000  H
  H1547    1.0000 0.52374  0.65179  0.06477  Biso   1.000  H
  H1548    1.0000 0.57475  0.75419  0.01729  Biso   1.000  H
  H1549    1.0000 0.20404  0.93283  0.68419  Biso   1.000  H
  H1550    1.0000 0.23512  0.90839  0.71481  Biso   1.000  H
  H1551    1.0000 0.14258  0.92150  0.69457  Biso   1.000  H
  H1552    1.0000 0.12798  0.87572  0.70865  Biso   1.000  H
  H1553    1.0000 0.11878  0.87068  0.68243  Biso   1.000  H
  H1554    1.0000 0.65315  0.32682  0.68691  Biso   1.000  H
  H1555    1.0000 0.63632  0.34167  0.66942  Biso   1.000  H
  H1556    1.0000 0.20334  0.84578  0.71648  Biso   1.000  H
  H1557    1.0000 0.19454  0.87039  0.72729  Biso   1.000  H
  H1558    1.0000 0.17170  0.82104  0.74631  Biso   1.000  H
  H1559    1.0000 0.17529  0.65047  0.61793  Biso   1.000  H
  H1560    1.0000 0.02267  0.15343  0.06171  Biso   1.000  H
  H1561    1.0000 0.02581  0.26366  0.00495  Biso   1.000  H
  H1562    1.0000 0.07585  0.26452  0.00512  Biso   1.000  H
  H1563    1.0000 0.73397  0.40264  0.71171  Biso   1.000  H
  H1564    1.0000 0.64606  0.41993  0.69101  Biso   1.000  H
  H1565    1.0000 0.63670  0.41266  0.66501  Biso   1.000  H
  H1566    1.0000 0.62754  0.37733  0.70956  Biso   1.000  H
  H1567    1.0000 0.15118  0.82453  0.68774  Biso   1.000  H
  H1568    1.0000 0.70714  0.34569  0.72548  Biso   1.000  H
  H1569    1.0000 0.69734  0.37002  0.73632  Biso   1.000  H
  H1570    1.0000 0.66609  0.32197  0.74153  Biso   1.000  H
  H1571    1.0000 0.68011  0.15127  0.61676  Biso   1.000  H
  H1572    1.0000 0.00447  0.67224  0.54513  Biso   1.000  H
  H1573    1.0000 0.03091  0.66662  0.55316  Biso   1.000  H
  H1574    1.0000 0.07324  0.75468  0.51772  Biso   1.000  H
  H1575    1.0000 0.70680  0.93291  0.18650  Biso   1.000  H
  H1576    1.0000 0.73616  0.90464  0.21557  Biso   1.000  H
  H1577    1.0000 0.66181  0.89943  0.19416  Biso   1.000  H
  H1578    1.0000 0.61453  0.89531  0.20970  Biso   1.000  H
  H1579    1.0000 0.60628  0.88910  0.18305  Biso   1.000  H
  H1580    1.0000 0.15338  0.32643  0.18705  Biso   1.000  H
  H1581    1.0000 0.13687  0.34135  0.16931  Biso   1.000  H
  H1582    1.0000 0.70886  0.84400  0.22759  Biso   1.000  H
  H1583    1.0000 0.69900  0.86828  0.23860  Biso   1.000  H
  H1584    1.0000 0.66557  0.82142  0.23870  Biso   1.000  H
  H1585    1.0000 0.67422  0.64961  0.11791  Biso   1.000  H
  H1586    1.0000 0.69642  0.25071  0.66153  Biso   1.000  H
  H1587    1.0000 0.68984  0.22373  0.65609  Biso   1.000  H
  H1588    1.0000 0.75479  0.17801  0.77539  Biso   1.000  H
  H1589    1.0000 0.03852  0.51713  0.90505  Biso   1.000  H
  H1590    1.0000 0.05560  0.61062  0.92535  Biso   1.000  H
  H1591    1.0000 0.04262  0.61747  0.87759  Biso   1.000  H
  H1592    1.0000 0.06906  0.62612  0.87156  Biso   1.000  H
  H1593    1.0000 0.07062  0.10119  0.31090  Biso   1.000  H
  H1594    1.0000 0.08712  0.11801  0.32676  Biso   1.000  H
  H1595    1.0000 0.01070  0.54145  0.83957  Biso   1.000  H
  H1596    1.0000 0.02496  0.58803  0.82823  Biso   1.000  H
  H1597    1.0000 0.01520  0.59714  0.85309  Biso   1.000  H
  H1598    1.0000 0.12355  0.54670  0.64234  Biso   1.000  H
  H1599    1.0000 0.70095  0.74832  0.16480  Biso   1.000  H
  H1600    1.0000 0.69466  0.72186  0.15835  Biso   1.000  H
  H1601    1.0000 0.73124  0.71640  0.25050  Biso   1.000  H
  H1602    1.0000 0.75364  0.67862  0.27436  Biso   1.000  H
  H1603    1.0000 0.06487  0.04395  0.43167  Biso   1.000  H
  H1604    1.0000 0.08505  0.10424  0.40932  Biso   1.000  H
  H1605    1.0000 0.04001  0.12841  0.38321  Biso   1.000  H
  H1606    1.0000 0.06623  0.13720  0.37678  Biso   1.000  H
  H1607    1.0000 0.06335  0.58626  0.83534  Biso   1.000  H
  H1608    1.0000 0.07929  0.60285  0.85192  Biso   1.000  H
  H1609    1.0000 0.00824  0.04952  0.36841  Biso   1.000  H
  H1610    1.0000 0.01331  0.08506  0.32343  Biso   1.000  H
  H1611    1.0000 0.00360  0.09499  0.34821  Biso   1.000  H
  H1612    1.0000 0.20153  0.24960  0.16541  Biso   1.000  H
  H1613    1.0000 0.19469  0.22341  0.15817  Biso   1.000  H
  H1614    1.0000 0.25371  0.17679  0.27416  Biso   1.000  H
  H1615    1.0000 0.55812  0.53900  0.44101  Biso   1.000  H
  H1616    1.0000 0.55825  0.60178  0.42052  Biso   1.000  H
  H1617    1.0000 0.58454  0.61064  0.41483  Biso   1.000  H
  H1618    1.0000 0.54156  0.62493  0.37938  Biso   1.000  H
  H1619    1.0000 0.56300  0.09588  0.82654  Biso   1.000  H
  H1620    1.0000 0.58003  0.11299  0.84155  Biso   1.000  H
  H1621    1.0000 0.52232  0.54189  0.34617  Biso   1.000  H
  H1622    1.0000 0.51148  0.55224  0.37030  Biso   1.000  H
  H1623    1.0000 0.51209  0.58518  0.32306  Biso   1.000  H
  H1624    1.0000 0.62381  0.54831  0.14541  Biso   1.000  H
  H1625    1.0000 0.20009  0.74851  0.66435  Biso   1.000  H
  H1626    1.0000 0.19451  0.72163  0.65905  Biso   1.000  H
  H1627    1.0000 0.23082  0.71478  0.75042  Biso   1.000  H
  H1628    1.0000 0.25674  0.68064  0.77608  Biso   1.000  H
  H1629    1.0000 0.56607  0.04318  0.93065  Biso   1.000  H
  H1630    1.0000 0.55364  0.11176  0.92138  Biso   1.000  H
  H1631    1.0000 0.54126  0.11371  0.87294  Biso   1.000  H
  H1632    1.0000 0.56732  0.12250  0.86660  Biso   1.000  H
  H1633    1.0000 0.56396  0.59879  0.32360  Biso   1.000  H
  H1634    1.0000 0.58070  0.61530  0.33933  Biso   1.000  H
  H1635    1.0000 0.52501  0.05722  0.87278  Biso   1.000  H
  H1636    1.0000 0.50422  0.07744  0.82301  Biso   1.000  H
  H1637    1.0000 0.49285  0.08606  0.84763  Biso   1.000  H
  H1638    1.0000 0.05631  0.72376  0.59575  Biso   1.000  H
  H1639    1.0000 0.99753  0.67792  0.47479  Biso   1.000  H
  H1640    1.0000 0.69015  0.03999  0.31090  Biso   1.000  H
  H1641    1.0000 0.71137  0.01951  0.35138  Biso   1.000  H
  H1642    1.0000 0.69184  0.10215  0.33073  Biso   1.000  H
  H1643    1.0000 0.66604  0.11245  0.33717  Biso   1.000  H
  H1644    1.0000 0.71053  0.12404  0.37180  Biso   1.000  H
  H1645    1.0000 0.66641  0.59934  0.94779  Biso   1.000  H
  H1646    1.0000 0.75105  0.05559  0.42146  Biso   1.000  H
  H1647    1.0000 0.76166  0.06382  0.39620  Biso   1.000  H
  H1648    1.0000 0.70603  0.07261  0.40794  Biso   1.000  H
  H1649    1.0000 0.61583  0.07431  0.59865  Biso   1.000  H
  H1650    1.0000 0.05916  0.22247  0.09342  Biso   1.000  H
  H1651    1.0000 0.01332  0.17206  0.99406  Biso   1.000  H
  H1652    1.0000 0.68928  0.54025  0.81078  Biso   1.000  H
  H1653    1.0000 0.71121  0.51861  0.85026  Biso   1.000  H
  H1654    1.0000 0.69215  0.60204  0.83027  Biso   1.000  H
  H1655    1.0000 0.66622  0.61213  0.83664  Biso   1.000  H
  H1656    1.0000 0.71061  0.62428  0.87124  Biso   1.000  H
  H1657    1.0000 0.66562  0.09966  0.44759  Biso   1.000  H
  H1658    1.0000 0.75067  0.55433  0.92134  Biso   1.000  H
  H1659    1.0000 0.76106  0.56239  0.89595  Biso   1.000  H
  H1660    1.0000 0.70571  0.57196  0.90838  Biso   1.000  H
  H1661    1.0000 0.62640  0.59167  0.10762  Biso   1.000  H
  H1662    1.0000 0.56376  0.72411  0.09820  Biso   1.000  H
  H1663    1.0000 0.49700  0.67857  0.97500  Biso   1.000  H
  H1664    1.0000 0.18423  0.04735  0.81806  Biso   1.000  H
  H1665    1.0000 0.21427  0.01446  0.84077  Biso   1.000  H
  H1666    1.0000 0.19294  0.09006  0.84541  Biso   1.000  H
  H1667    1.0000 0.16637  0.09871  0.84993  Biso   1.000  H
  H1668    1.0000 0.20996  0.13510  0.85857  Biso   1.000  H
  H1669    1.0000 0.18789  0.59604  0.42221  Biso   1.000  H
  H1670    1.0000 0.25021  0.05531  0.92239  Biso   1.000  H
  H1671    1.0000 0.26105  0.06253  0.89697  Biso   1.000  H
  H1672    1.0000 0.20538  0.07207  0.90798  Biso   1.000  H
  H1673    1.0000 0.11593  0.06998  0.09935  Biso   1.000  H
  H1674    1.0000 0.56184  0.22417  0.59654  Biso   1.000  H
  H1675    1.0000 0.51900  0.21305  0.49879  Biso   1.000  H
  H1676    1.0000 0.49306  0.17891  0.47304  Biso   1.000  H
  H1677    1.0000 0.19092  0.53922  0.31122  Biso   1.000  H
  H1678    1.0000 0.21113  0.52000  0.35281  Biso   1.000  H
  H1679    1.0000 0.19174  0.59842  0.33272  Biso   1.000  H
  H1680    1.0000 0.16557  0.60794  0.33895  Biso   1.000  H
  H1681    1.0000 0.21099  0.63032  0.36624  Biso   1.000  H
  H1682    1.0000 0.17780  0.10185  0.93823  Biso   1.000  H
  H1683    1.0000 0.25365  0.56335  0.42440  Biso   1.000  H
  H1684    1.0000 0.26330  0.57291  0.39928  Biso   1.000  H
  H1685    1.0000 0.20700  0.56388  0.40673  Biso   1.000  H
  H1686    1.0000 0.12698  0.59247  0.60757  Biso   1.000  H
  H1687    1.0000 0.25197  0.03155  0.97530  Biso   1.000  H
  H1688    1.0000 0.23630  0.07575  0.99261  Biso   1.000  H
  H1689    1.0000 0.56548  0.70382  0.81781  Biso   1.000  H
  H1690    1.0000 0.53618  0.73588  0.84270  Biso   1.000  H
  H1691    1.0000 0.55747  0.66173  0.84765  Biso   1.000  H
  H1692    1.0000 0.54236  0.61413  0.84899  Biso   1.000  H
  H1693    1.0000 0.56876  0.60592  0.85589  Biso   1.000  H
  H1694    1.0000 0.57904  0.14700  0.44526  Biso   1.000  H
  H1695    1.0000 0.59580  0.13093  0.42863  Biso   1.000  H
  H1696    1.0000 0.49877  0.69621  0.88774  Biso   1.000  H
  H1697    1.0000 0.53036  0.66091  0.92034  Biso   1.000  H
  H1698    1.0000 0.51998  0.65164  0.89607  Biso   1.000  H
  H1699    1.0000 0.62261  0.70168  0.10752  Biso   1.000  H
  H1700    1.0000 0.19880  0.50112  0.58557  Biso   1.000  H
  H1701    1.0000 0.19281  0.52804  0.59046  Biso   1.000  H
  H1702    1.0000 0.25974  0.54613  0.46940  Biso   1.000  H
  H1703    1.0000 0.22787  0.56675  0.50200  Biso   1.000  H
  H1704    1.0000 0.54584  0.22351  0.35750  Biso   1.000  H
  H1705    1.0000 0.55878  0.15680  0.33596  Biso   1.000  H
  H1706    1.0000 0.54041  0.11766  0.36123  Biso   1.000  H
  H1707    1.0000 0.56687  0.10919  0.36721  Biso   1.000  H
  H1708    1.0000 0.58165  0.64884  0.94678  Biso   1.000  H
  H1709    1.0000 0.59772  0.63210  0.93012  Biso   1.000  H
  H1710    1.0000 0.48560  0.18249  0.39674  Biso   1.000  H
  H1711    1.0000 0.54191  0.17843  0.40771  Biso   1.000  H
  H1712    1.0000 0.53204  0.17042  0.38264  Biso   1.000  H
  H1713    1.0000 0.62768  0.19267  0.59893  Biso   1.000  H
  H1714    1.0000 0.73164  0.03521  0.49793  Biso   1.000  H
  H1715    1.0000 0.75321  0.07425  0.47533  Biso   1.000  H
  H1716    1.0000 0.06467  0.70397  0.31716  Biso   1.000  H
  H1717    1.0000 0.03536  0.73554  0.34263  Biso   1.000  H
  H1718    1.0000 0.05742  0.66138  0.34777  Biso   1.000  H
  H1719    1.0000 0.04213  0.61390  0.35107  Biso   1.000  H
  H1720    1.0000 0.06863  0.60582  0.35781  Biso   1.000  H
  H1721    1.0000 0.06184  0.15189  0.92451  Biso   1.000  H
  H1722    1.0000 0.07777  0.13501  0.90841  Biso   1.000  H
  H1723    1.0000 0.02981  0.66091  0.42068  Biso   1.000  H
  H1724    1.0000 0.01905  0.65157  0.39657  Biso   1.000  H
  H1725    1.0000 0.12290  0.70283  0.60872  Biso   1.000  H
  H1726    1.0000 0.69209  0.49530  0.09166  Biso   1.000  H
  H1727    1.0000 0.73127  0.53433  0.99813  Biso   1.000  H
  H1728    1.0000 0.75286  0.57384  0.97646  Biso   1.000  H
  H1729    1.0000 0.04494  0.22492  0.85743  Biso   1.000  H
  H1730    1.0000 0.05725  0.16024  0.84164  Biso   1.000  H
  H1731    1.0000 0.08384  0.15255  0.84770  Biso   1.000  H
  H1732    1.0000 0.06815  0.10648  0.85894  Biso   1.000  H
  H1733    1.0000 0.08140  0.64932  0.44609  Biso   1.000  H
  H1734    1.0000 0.09738  0.63269  0.42930  Biso   1.000  H
  H1735    1.0000 0.01807  0.20734  0.90533  Biso   1.000  H
  H1736    1.0000 0.00744  0.19728  0.88094  Biso   1.000  H
  H1737    1.0000 0.01378  0.16190  0.92590  Biso   1.000  H
  H1738    1.0000 0.55503  0.49650  0.16265  Biso   1.000  H
  H1739    1.0000 0.51758  0.57384  0.25396  Biso   1.000  H
  H1740    1.0000 0.21124  0.23228  0.40190  Biso   1.000  H
  H1741    1.0000 0.19352  0.16142  0.40019  Biso   1.000  H
  H1742    1.0000 0.20788  0.11371  0.39644  Biso   1.000  H
  H1743    1.0000 0.18118  0.10612  0.38986  Biso   1.000  H
  H1744    1.0000 0.18082  0.64765  0.81366  Biso   1.000  H
  H1745    1.0000 0.16387  0.63129  0.82963  Biso   1.000  H
  H1746    1.0000 0.24217  0.20492  0.33598  Biso   1.000  H
  H1747    1.0000 0.25189  0.19638  0.36150  Biso   1.000  H
  H1748    1.0000 0.23534  0.15007  0.35197  Biso   1.000  H
  H1749    1.0000 0.11588  0.17324  0.15236  Biso   1.000  H
  H1750    1.0000 0.54290  0.00715  0.68797  Biso   1.000  H
  H1751    1.0000 0.51726  0.07326  0.75401  Biso   1.000  H
  H1752    1.0000 0.20435  0.72310  0.89262  Biso   1.000  H
  H1753    1.0000 0.16649  0.65371  0.89605  Biso   1.000  H
  H1754    1.0000 0.20901  0.61522  0.89204  Biso   1.000  H
  H1755    1.0000 0.18214  0.60715  0.88684  Biso   1.000  H
  H1756    1.0000 0.18588  0.15219  0.32105  Biso   1.000  H
  H1757    1.0000 0.17029  0.13465  0.33695  Biso   1.000  H
  H1758    1.0000 0.24398  0.69893  0.86833  Biso   1.000  H
  H1759    1.0000 0.23733  0.66411  0.82303  Biso   1.000  H
  H1760    1.0000 0.24749  0.65377  0.84740  Biso   1.000  H
  H1761    1.0000 0.12301  0.66072  0.64798  Biso   1.000  H
  H1762    1.0000 0.07304  0.49089  0.66042  Biso   1.000  H
  H1763    1.0000 0.00988  0.57652  0.76030  Biso   1.000  H
  H1764    1.0000 0.70300  0.22284  0.89308  Biso   1.000  H
  H1765    1.0000 0.69073  0.15568  0.91228  Biso   1.000  H
  H1766    1.0000 0.70910  0.11658  0.88689  Biso   1.000  H
  H1767    1.0000 0.68254  0.10842  0.88044  Biso   1.000  H
  H1768    1.0000 0.68701  0.65211  0.32221  Biso   1.000  H
  H1769    1.0000 0.67166  0.63477  0.33860  Biso   1.000  H
  H1770    1.0000 0.73922  0.20684  0.83883  Biso   1.000  H
  H1771    1.0000 0.74921  0.19755  0.86399  Biso   1.000  H
  H1772    1.0000 0.73900  0.15046  0.85044  Biso   1.000  H
  H1773    1.0000 0.61796  0.17435  0.65267  Biso   1.000  H
  H1774    1.0000 0.04294  0.00648  0.18630  Biso   1.000  H
  H1775    1.0000 0.01601  0.07267  0.25627  Biso   1.000  H
  H1776    1.0000 0.68722  0.70715  0.43462  Biso   1.000  H
  H1777    1.0000 0.69475  0.64551  0.42140  Biso   1.000  H
  H1778    1.0000 0.66838  0.63624  0.41646  Biso   1.000  H
  H1779    1.0000 0.68219  0.62074  0.37099  Biso   1.000  H
  H1780    1.0000 0.66958  0.14929  0.80363  Biso   1.000  H
  H1781    1.0000 0.65295  0.13298  0.82010  Biso   1.000  H
  H1782    1.0000 0.73945  0.70884  0.33717  Biso   1.000  H
  H1783    1.0000 0.73042  0.66088  0.32616  Biso   1.000  H
  H1784    1.0000 0.74072  0.65303  0.35113  Biso   1.000  H
  H1785    1.0000 0.62334  0.65983  0.14705  Biso   1.000  H
  H1786    1.0000 0.92774  0.41034  0.24409  Biso   1.000  H
  H1787    1.0000 0.92249  0.40456  0.27148  Biso   1.000  H
  H1788    1.0000 0.29658  0.64236  0.97381  Biso   1.000  H
  H1789    1.0000 0.30738  0.64966  0.91179  Biso   1.000  H
  H1790    1.0000 0.29288  0.64606  0.86409  Biso   1.000  H
  H1791    1.0000 0.31952  0.63959  0.85635  Biso   1.000  H
  H1792    1.0000 0.31922  0.06204  0.39769  Biso   1.000  H
  H1793    1.0000 0.26588  0.59116  0.95628  Biso   1.000  H
  H1794    1.0000 0.25500  0.61579  0.94670  Biso   1.000  H
  H1795    1.0000 0.26676  0.57341  0.90950  Biso   1.000  H
  H1796    1.0000 0.38164  0.40274  0.92953  Biso   1.000  H
  H1797    1.0000 0.95095  0.91620  0.74974  Biso   1.000  H
  H1798    1.0000 0.94564  0.91076  0.77708  Biso   1.000  H
  H1799    1.0000 0.31035  0.18730  0.46014  Biso   1.000  H
  H1800    1.0000 0.28697  0.14907  0.48227  Biso   1.000  H
  H1801    1.0000 0.30762  0.15980  0.40744  Biso   1.000  H
  H1802    1.0000 0.33402  0.15368  0.39947  Biso   1.000  H
  H1803    1.0000 0.29012  0.13936  0.36523  Biso   1.000  H
  H1804    1.0000 0.31450  0.57129  0.90212  Biso   1.000  H
  H1805    1.0000 0.33023  0.58803  0.88551  Biso   1.000  H
  H1806    1.0000 0.26712  0.09111  0.45699  Biso   1.000  H
  H1807    1.0000 0.25639  0.11600  0.44785  Biso   1.000  H
  H1808    1.0000 0.26595  0.07350  0.41016  Biso   1.000  H
  H1809    1.0000 0.37624  0.89536  0.41017  Biso   1.000  H
  H1810    1.0000 0.43227  0.40541  0.77415  Biso   1.000  H
  H1811    1.0000 0.49790  0.51663  0.77645  Biso   1.000  H
  H1812    1.0000 0.78733  0.65002  0.48209  Biso   1.000  H
  H1813    1.0000 0.83469  0.66658  0.38059  Biso   1.000  H
  H1814    1.0000 0.79217  0.62805  0.38461  Biso   1.000  H
  H1815    1.0000 0.81793  0.61964  0.37661  Biso   1.000  H
  H1816    1.0000 0.81868  0.06237  0.89839  Biso   1.000  H
  H1817    1.0000 0.75710  0.58607  0.45292  Biso   1.000  H
  H1818    1.0000 0.78043  0.58128  0.40881  Biso   1.000  H
  H1819    1.0000 0.77091  0.60632  0.40085  Biso   1.000  H
  H1820    1.0000 0.45692  0.93700  0.25571  Biso   1.000  H
  H1821    1.0000 0.45007  0.93250  0.28280  Biso   1.000  H
  H1822    1.0000 0.49555  0.01457  0.27687  Biso   1.000  H
  H1823    1.0000 0.81017  0.18726  0.95939  Biso   1.000  H
  H1824    1.0000 0.78792  0.14835  0.98150  Biso   1.000  H
  H1825    1.0000 0.80750  0.15950  0.90798  Biso   1.000  H
  H1826    1.0000 0.83389  0.15351  0.89971  Biso   1.000  H
  H1827    1.0000 0.78975  0.13967  0.86559  Biso   1.000  H
  H1828    1.0000 0.83164  0.55224  0.39802  Biso   1.000  H
  H1829    1.0000 0.84807  0.56929  0.38209  Biso   1.000  H
  H1830    1.0000 0.76697  0.09139  0.95719  Biso   1.000  H
  H1831    1.0000 0.75585  0.11606  0.94799  Biso   1.000  H
  H1832    1.0000 0.76597  0.07355  0.91046  Biso   1.000  H
  H1833    1.0000 0.87613  0.89554  0.91083  Biso   1.000  H
  H1834    1.0000 0.30662  0.33761  0.74573  Biso   1.000  H
  H1835    1.0000 0.31154  0.34512  0.77268  Biso   1.000  H
  H1836    1.0000 0.26724  0.24728  0.78477  Biso   1.000  H
  H1837    1.0000 0.24510  0.22656  0.82460  Biso   1.000  H
  H1838    1.0000 0.93964  0.06204  0.46065  Biso   1.000  H
  H1839    1.0000 0.96268  0.10123  0.48147  Biso   1.000  H
  H1840    1.0000 0.94140  0.07883  0.39785  Biso   1.000  H
  H1841    1.0000 0.91533  0.08611  0.38863  Biso   1.000  H
  H1842    1.0000 0.96047  0.11911  0.37510  Biso   1.000  H
  H1843    1.0000 0.93088  0.68638  0.89814  Biso   1.000  H
  H1844    1.0000 0.97218  0.16985  0.41033  Biso   1.000  H
  H1845    1.0000 0.98293  0.14584  0.40078  Biso   1.000  H
  H1846    1.0000 0.86927  0.34732  0.43438  Biso   1.000  H
  H1847    1.0000 0.31014  0.83992  0.24700  Biso   1.000  H
  H1848    1.0000 0.31650  0.84580  0.27394  Biso   1.000  H
  H1849    1.0000 0.24727  0.72264  0.28526  Biso   1.000  H
  H1850    1.0000 0.26838  0.74848  0.32270  Biso   1.000  H
  H1851    1.0000 0.96085  0.59999  0.98232  Biso   1.000  H
  H1852    1.0000 0.94130  0.58204  0.90138  Biso   1.000  H
  H1853    1.0000 0.91523  0.58876  0.89211  Biso   1.000  H
  H1854    1.0000 0.96097  0.61630  0.87079  Biso   1.000  H
  H1855    1.0000 0.91759  0.19717  0.40024  Biso   1.000  H
  H1856    1.0000 0.90130  0.18019  0.38424  Biso   1.000  H
  H1857    1.0000 0.98747  0.66107  0.95715  Biso   1.000  H
  H1858    1.0000 0.99774  0.63604  0.94807  Biso   1.000  H
  H1859    1.0000 0.98791  0.64923  0.90073  Biso   1.000  H
  H1860    1.0000 0.87701  0.85652  0.95315  Biso   1.000  H
  H1861    1.0000 0.80399  0.33445  0.24903  Biso   1.000  H
  H1862    1.0000 0.81045  0.34121  0.27581  Biso   1.000  H
  H1863    1.0000 0.76846  0.24779  0.28396  Biso   1.000  H
  H1864    1.0000 0.74658  0.22706  0.32393  Biso   1.000  H
  H1865    1.0000 0.43361  0.06913  0.95599  Biso   1.000  H
  H1866    1.0000 0.44516  0.07667  0.88340  Biso   1.000  H
  H1867    1.0000 0.41896  0.08420  0.87492  Biso   1.000  H
  H1868    1.0000 0.45654  0.12483  0.89055  Biso   1.000  H
  H1869    1.0000 0.43589  0.67929  0.40331  Biso   1.000  H
  H1870    1.0000 0.48693  0.12976  0.94962  Biso   1.000  H
  H1871    1.0000 0.48440  0.17361  0.91242  Biso   1.000  H
  H1872    1.0000 0.49469  0.14876  0.90387  Biso   1.000  H
  H1873    1.0000 0.37009  0.34698  0.93807  Biso   1.000  H
  H1874    1.0000 0.80240  0.83501  0.74989  Biso   1.000  H
  H1875    1.0000 0.80739  0.84017  0.77733  Biso   1.000  H
  H1876    1.0000 0.74728  0.72331  0.78362  Biso   1.000  H
  H1877    1.0000 0.76625  0.74765  0.82315  Biso   1.000  H
  H1878    1.0000 0.46116  0.60240  0.48141  Biso   1.000  H
  H1879    1.0000 0.44122  0.58485  0.40352  Biso   1.000  H
  H1880    1.0000 0.41506  0.59097  0.39403  Biso   1.000  H
  H1881    1.0000 0.46079  0.61489  0.36854  Biso   1.000  H
  H1882    1.0000 0.41869  0.19624  0.89862  Biso   1.000  H
  H1883    1.0000 0.40188  0.17964  0.88271  Biso   1.000  H
  H1884    1.0000 0.48926  0.66044  0.45847  Biso   1.000  H
  H1885    1.0000 0.50001  0.63591  0.44853  Biso   1.000  H
  H1886    1.0000 0.48811  0.64972  0.40184  Biso   1.000  H
  H1887    1.0000 0.37734  0.85624  0.45245  Biso   1.000  H
  H1888    1.0000 0.45303  0.83699  0.49925  Biso   1.000  H
  H1889    1.0000 0.44623  0.84207  0.47227  Biso   1.000  H
  H1890    1.0000 0.50593  0.72505  0.47043  Biso   1.000  H
  H1891    1.0000 0.48500  0.74257  0.42855  Biso   1.000  H
  H1892    1.0000 0.81107  0.56171  0.79033  Biso   1.000  H
  H1893    1.0000 0.78781  0.60017  0.76843  Biso   1.000  H
  H1894    1.0000 0.80855  0.57917  0.85308  Biso   1.000  H
  H1895    1.0000 0.83468  0.58642  0.86210  Biso   1.000  H
  H1896    1.0000 0.78960  0.61923  0.87634  Biso   1.000  H
  H1897    1.0000 0.83449  0.16694  0.37026  Biso   1.000  H
  H1898    1.0000 0.75669  0.66373  0.79628  Biso   1.000  H
  H1899    1.0000 0.74621  0.63890  0.80571  Biso   1.000  H
  H1900    1.0000 0.77334  0.64377  0.84761  Biso   1.000  H
  H1901    1.0000 0.87366  0.85718  0.79976  Biso   1.000  H
  H1902    1.0000 0.42420  0.34626  0.97791  Biso   1.000  H
  H1903    1.0000 0.49525  0.23406  0.97189  Biso   1.000  H
  H1904    1.0000 0.78929  0.10210  0.26924  Biso   1.000  H
  H1905    1.0000 0.80846  0.07942  0.35397  Biso   1.000  H
  H1906    1.0000 0.83451  0.08623  0.36339  Biso   1.000  H
  H1907    1.0000 0.79012  0.12097  0.37495  Biso   1.000  H
  H1908    1.0000 0.81694  0.68149  0.85177  Biso   1.000  H
  H1909    1.0000 0.83341  0.66435  0.86728  Biso   1.000  H
  H1910    1.0000 0.76363  0.16067  0.29386  Biso   1.000  H
  H1911    1.0000 0.75459  0.13513  0.30254  Biso   1.000  H
  H1912    1.0000 0.75650  0.15053  0.35020  Biso   1.000  H
  H1913    1.0000 0.88345  0.34709  0.31699  Biso   1.000  H
  H1914    1.0000 0.94158  0.84413  0.97593  Biso   1.000  H
  H1915    1.0000 0.98158  0.74773  0.96631  Biso   1.000  H
  H1916    1.0000 0.00378  0.72465  0.92786  Biso   1.000  H
  H1917    1.0000 0.31794  0.57332  0.29858  Biso   1.000  H
  H1918    1.0000 0.28482  0.58804  0.26412  Biso   1.000  H
  H1919    1.0000 0.30801  0.57924  0.35615  Biso   1.000  H
  H1920    1.0000 0.33418  0.58665  0.36463  Biso   1.000  H
  H1921    1.0000 0.29030  0.62297  0.37278  Biso   1.000  H
  H1922    1.0000 0.33636  0.17095  0.87061  Biso   1.000  H
  H1923    1.0000 0.26797  0.65829  0.29247  Biso   1.000  H
  H1924    1.0000 0.25686  0.63387  0.30179  Biso   1.000  H
  H1925    1.0000 0.26037  0.65028  0.34897  Biso   1.000  H
  H1926    1.0000 0.37391  0.85745  0.29742  Biso   1.000  H
  H1927    1.0000 0.92944  0.34045  0.50660  Biso   1.000  H
  H1928    1.0000 0.92413  0.34690  0.47935  Biso   1.000  H
  H1929    1.0000 0.31018  0.06227  0.79108  Biso   1.000  H
  H1930    1.0000 0.28643  0.09955  0.76767  Biso   1.000  H
  H1931    1.0000 0.30129  0.07773  0.87660  Biso   1.000  H
  H1932    1.0000 0.32773  0.08515  0.88459  Biso   1.000  H
  H1933    1.0000 0.32389  0.12703  0.85760  Biso   1.000  H
  H1934    1.0000 0.31533  0.67507  0.34759  Biso   1.000  H
  H1935    1.0000 0.33219  0.65952  0.36424  Biso   1.000  H
  H1936    1.0000 0.26443  0.15953  0.79506  Biso   1.000  H
  H1937    1.0000 0.25547  0.13399  0.80406  Biso   1.000  H
  H1938    1.0000 0.25939  0.14934  0.85162  Biso   1.000  H
  H1939    1.0000 0.38210  0.34818  0.82577  Biso   1.000  H
  H1940    1.0000 0.81372  0.90259  0.97673  Biso   1.000  H
  H1941    1.0000 0.75138  0.01863  0.97282  Biso   1.000  H
  H1942    1.0000 0.45926  0.14991  0.26824  Biso   1.000  H
  H1943    1.0000 0.41618  0.16520  0.36215  Biso   1.000  H
  H1944    1.0000 0.45889  0.12822  0.37303  Biso   1.000  H
  H1945    1.0000 0.43249  0.12207  0.38166  Biso   1.000  H
  H1946    1.0000 0.43592  0.56841  0.84848  Biso   1.000  H
  H1947    1.0000 0.48351  0.09149  0.29157  Biso   1.000  H
  H1948    1.0000 0.49366  0.11671  0.30057  Biso   1.000  H
  H1949    1.0000 0.48654  0.07375  0.33826  Biso   1.000  H
  H1950    1.0000 0.80739  0.41022  0.50414  Biso   1.000  H
  H1951    1.0000 0.81230  0.40283  0.47707  Biso   1.000  H
  H1952    1.0000 0.75075  0.51944  0.47095  Biso   1.000  H
  H1953    1.0000 0.43770  0.68894  0.79320  Biso   1.000  H
  H1954    1.0000 0.46195  0.65401  0.76687  Biso   1.000  H
  H1955    1.0000 0.41816  0.66681  0.86890  Biso   1.000  H
  H1956    1.0000 0.45937  0.62667  0.86829  Biso   1.000  H
  H1957    1.0000 0.43299  0.61968  0.87640  Biso   1.000  H
  H1958    1.0000 0.43634  0.06983  0.35024  Biso   1.000  H
  H1959    1.0000 0.49210  0.58694  0.79315  Biso   1.000  H
  H1960    1.0000 0.47487  0.57926  0.83959  Biso   1.000  H
  H1961    1.0000 0.48450  0.60428  0.84751  Biso   1.000  H
  H1962    1.0000 0.30840  0.90865  0.50381  Biso   1.000  H
  H1963    1.0000 0.31335  0.90193  0.47649  Biso   1.000  H
  H1964    1.0000 0.25286  0.01702  0.47303  Biso   1.000  H
  H1965    1.0000 0.95857  0.15118  0.76861  Biso   1.000  H
  H1966    1.0000 0.91562  0.16493  0.86096  Biso   1.000  H
  H1967    1.0000 0.95843  0.12787  0.87110  Biso   1.000  H
  H1968    1.0000 0.93207  0.12151  0.87966  Biso   1.000  H
  H1969    1.0000 0.91877  0.55231  0.35131  Biso   1.000  H
  H1970    1.0000 0.90224  0.56885  0.36771  Biso   1.000  H
  H1971    1.0000 0.95696  0.09326  0.81938  Biso   1.000  H
  H1972    1.0000 0.31060  0.40492  0.97639  Biso   1.000  H
  H1973    1.0000 0.26470  0.50591  0.96990  Biso   1.000  H
  H1974    1.0000 0.93723  0.68746  0.29381  Biso   1.000  H
  H1975    1.0000 0.96225  0.65369  0.26679  Biso   1.000  H
  H1976    1.0000 0.91863  0.66575  0.37386  Biso   1.000  H
  H1977    1.0000 0.95838  0.62532  0.36391  Biso   1.000  H
  H1978    1.0000 0.93233  0.61772  0.37192  Biso   1.000  H
  H1979    1.0000 0.93357  0.06711  0.85004  Biso   1.000  H
  H1980    1.0000 0.98418  0.58995  0.29324  Biso   1.000  H
  H1981    1.0000 0.99429  0.61532  0.30181  Biso   1.000  H
  H1982    1.0000 0.98443  0.57393  0.34064  Biso   1.000  H
  H1983    1.0000 0.91131  0.97389  0.80354  Biso   1.000  H
  H1984    1.0000 0.00374  0.92693  0.76593  Biso   1.000  H
  H1985    1.0000 0.18473  0.29474  0.43603  Biso   1.000  H
  H1986    1.0000 0.15674  0.26488  0.46477  Biso   1.000  H
  H1987    1.0000 0.17331  0.36558  0.44840  Biso   1.000  H
  H1988    1.0000 0.12427  0.36529  0.45796  Biso   1.000  H
  H1989    1.0000 0.11909  0.37403  0.43143  Biso   1.000  H
  H1990    1.0000 0.57634  0.84631  0.43779  Biso   1.000  H
  H1991    1.0000 0.09766  0.29447  0.46884  Biso   1.000  H
  H1992    1.0000 0.12195  0.30308  0.48040  Biso   1.000  H
  H1993    1.0000 0.07267  0.32895  0.49508  Biso   1.000  H
  H1994    1.0000 0.90084  0.31018  0.37087  Biso   1.000  H
  H1995    1.0000 0.91811  0.49919  0.29834  Biso   1.000  H
  H1996    1.0000 0.91121  0.47245  0.30508  Biso   1.000  H
  H1997    1.0000 0.03082  0.44978  0.23984  Biso   1.000  H
  H1998    1.0000 0.99636  0.43838  0.27423  Biso   1.000  H
  H1999    1.0000 0.18975  0.78910  0.93840  Biso   1.000  H
  H2000    1.0000 0.15280  0.76716  0.96398  Biso   1.000  H
  H2001    1.0000 0.17340  0.86178  0.94506  Biso   1.000  H
  H2002    1.0000 0.12478  0.86631  0.95611  Biso   1.000  H
  H2003    1.0000 0.11983  0.87595  0.92976  Biso   1.000  H
  H2004    1.0000 0.58796  0.33156  0.93540  Biso   1.000  H
  H2005    1.0000 0.09751  0.79382  0.96763  Biso   1.000  H
  H2006    1.0000 0.12229  0.80262  0.97823  Biso   1.000  H
  H2007    1.0000 0.07336  0.82757  0.99551  Biso   1.000  H
  H2008    1.0000 0.89270  0.79721  0.87942  Biso   1.000  H
  H2009    1.0000 0.52640  0.96649  0.24584  Biso   1.000  H
  H2010    1.0000 0.50362  0.92579  0.26410  Biso   1.000  H
  H2011    1.0000 0.68605  0.29128  0.93873  Biso   1.000  H
  H2012    1.0000 0.65160  0.26526  0.96389  Biso   1.000  H
  H2013    1.0000 0.67343  0.35934  0.94511  Biso   1.000  H
  H2014    1.0000 0.62615  0.36891  0.95795  Biso   1.000  H
  H2015    1.0000 0.62083  0.37810  0.93159  Biso   1.000  H
  H2016    1.0000 0.07375  0.84736  0.93801  Biso   1.000  H
  H2017    1.0000 0.59498  0.29094  0.97951  Biso   1.000  H
  H2018    1.0000 0.61893  0.30101  0.99114  Biso   1.000  H
  H2019    1.0000 0.57238  0.33473  0.98838  Biso   1.000  H
  H2020    1.0000 0.40055  0.48096  0.82659  Biso   1.000  H
  H2021    1.0000 0.49846  0.43210  0.77186  Biso   1.000  H
  H2022    1.0000 0.68591  0.79177  0.43965  Biso   1.000  H
  H2023    1.0000 0.65149  0.76583  0.46499  Biso   1.000  H
  H2024    1.0000 0.66460  0.86448  0.41622  Biso   1.000  H
  H2025    1.0000 0.62820  0.87268  0.46008  Biso   1.000  H
  H2026    1.0000 0.62150  0.88219  0.43436  Biso   1.000  H
  H2027    1.0000 0.08853  0.32984  0.43415  Biso   1.000  H
  H2028    1.0000 0.59552  0.79132  0.47951  Biso   1.000  H
  H2029    1.0000 0.61942  0.80152  0.49120  Biso   1.000  H
  H2030    1.0000 0.57311  0.83545  0.48718  Biso   1.000  H
  H2031    1.0000 0.39239  0.79644  0.37946  Biso   1.000  H
  H2032    1.0000 0.84160  0.50591  0.42884  Biso   1.000  H
  H2033    1.0000 0.84845  0.47859  0.42424  Biso   1.000  H
  H2034    1.0000 0.74595  0.42631  0.48419  Biso   1.000  H
  H2035    1.0000 0.56877  0.79629  0.81681  Biso   1.000  H
  H2036    1.0000 0.59147  0.76501  0.78505  Biso   1.000  H
  H2037    1.0000 0.58312  0.85241  0.80730  Biso   1.000  H
  H2038    1.0000 0.58973  0.86030  0.83394  Biso   1.000  H
  H2039    1.0000 0.62009  0.88092  0.78947  Biso   1.000  H
  H2040    1.0000 0.17802  0.34998  0.81237  Biso   1.000  H
  H2041    1.0000 0.65526  0.79968  0.78321  Biso   1.000  H
  H2042    1.0000 0.63031  0.80833  0.77342  Biso   1.000  H
  H2043    1.0000 0.65346  0.84151  0.74393  Biso   1.000  H
  H2044    1.0000 0.84821  0.97947  0.92419  Biso   1.000  H
  H2045    1.0000 0.74724  0.92614  0.98329  Biso   1.000  H
  H2046    1.0000 0.56216  0.28948  0.31299  Biso   1.000  H
  H2047    1.0000 0.59798  0.26638  0.28682  Biso   1.000  H
  H2048    1.0000 0.57878  0.35839  0.30711  Biso   1.000  H
  H2049    1.0000 0.58604  0.36838  0.33282  Biso   1.000  H
  H2050    1.0000 0.62483  0.36817  0.29031  Biso   1.000  H
  H2051    1.0000 0.17380  0.84437  0.31272  Biso   1.000  H
  H2052    1.0000 0.65297  0.29454  0.28235  Biso   1.000  H
  H2053    1.0000 0.62817  0.30240  0.27120  Biso   1.000  H
  H2054    1.0000 0.67667  0.32827  0.25405  Biso   1.000  H
  H2055    1.0000 0.84623  0.32441  0.38193  Biso   1.000  H
  H2056    1.0000 0.33670  0.50129  0.94779  Biso   1.000  H
  H2057    1.0000 0.34201  0.47376  0.94303  Biso   1.000  H
  H2058    1.0000 0.21915  0.45098  0.01070  Biso   1.000  H
  H2059    1.0000 0.25371  0.43669  0.97742  Biso   1.000  H
  H2060    1.0000 0.06961  0.79776  0.31711  Biso   1.000  H
  H2061    1.0000 0.08867  0.76552  0.28395  Biso   1.000  H
  H2062    1.0000 0.08468  0.85257  0.30634  Biso   1.000  H
  H2063    1.0000 0.09077  0.86089  0.33297  Biso   1.000  H
  H2064    1.0000 0.12305  0.87941  0.28894  Biso   1.000  H
  H2065    1.0000 0.67652  0.34936  0.31431  Biso   1.000  H
  H2066    1.0000 0.66094  0.36548  0.33176  Biso   1.000  H
  H2067    1.0000 0.15421  0.79521  0.28139  Biso   1.000  H
  H2068    1.0000 0.12947  0.80398  0.27084  Biso   1.000  H
  H2069    1.0000 0.15347  0.83864  0.24384  Biso   1.000  H
  H2070    1.0000 0.34759  0.97887  0.42333  Biso   1.000  H
  H2071    1.0000 0.21951  0.95092  0.51215  Biso   1.000  H
  H2072    1.0000 0.25393  0.93947  0.47766  Biso   1.000  H
  H2073    1.0000 0.06135  0.28924  0.81171  Biso   1.000  H
  H2074    1.0000 0.09873  0.26711  0.78695  Biso   1.000  H
  H2075    1.0000 0.07635  0.36358  0.80409  Biso   1.000  H
  H2076    1.0000 0.12506  0.36578  0.79287  Biso   1.000  H
  H2077    1.0000 0.13055  0.37560  0.81904  Biso   1.000  H
  H2078    1.0000 0.67255  0.84409  0.81223  Biso   1.000  H
  H2079    1.0000 0.15265  0.29285  0.77887  Biso   1.000  H
  H2080    1.0000 0.12785  0.30210  0.76892  Biso   1.000  H
  H2081    1.0000 0.15118  0.33969  0.74554  Biso   1.000  H
  H2082    1.0000 0.34594  0.32148  0.88391  Biso   1.000  H
  H2083    1.0000 0.32826  0.75531  0.29423  Biso   1.000  H
  H2084    1.0000 0.33378  0.78198  0.30176  Biso   1.000  H
  H2085    1.0000 0.22809  0.78127  0.24737  Biso   1.000  H
  H2086    1.0000 0.24311  0.82660  0.26246  Biso   1.000  H
  H2087    1.0000 0.07240  0.45242  0.93378  Biso   1.000  H
  H2088    1.0000 0.08732  0.48616  0.96762  Biso   1.000  H
  H2089    1.0000 0.07793  0.39516  0.94264  Biso   1.000  H
  H2090    1.0000 0.08466  0.38779  0.91601  Biso   1.000  H
  H2091    1.0000 0.12132  0.37626  0.95882  Biso   1.000  H
  H2092    1.0000 0.69731  0.89745  0.92120  Biso   1.000  H
  H2093    1.0000 0.68110  0.88146  0.90396  Biso   1.000  H
  H2094    1.0000 0.16994  0.41359  0.96796  Biso   1.000  H
  H2095    1.0000 0.14506  0.40381  0.97678  Biso   1.000  H
  H2096    1.0000 0.34641  0.43404  0.87060  Biso   1.000  H
  H2097    1.0000 0.33989  0.24399  0.82156  Biso   1.000  H
  H2098    1.0000 0.34641  0.27135  0.82615  Biso   1.000  H
  H2099    1.0000 0.22373  0.28240  0.74572  Biso   1.000  H
  H2100    1.0000 0.24575  0.32252  0.76586  Biso   1.000  H
  H2101    1.0000 0.05943  0.96488  0.44360  Biso   1.000  H
  H2102    1.0000 0.10658  0.97565  0.45624  Biso   1.000  H
  H2103    1.0000 0.08002  0.89499  0.44041  Biso   1.000  H
  H2104    1.0000 0.08745  0.88577  0.41451  Biso   1.000  H
  H2105    1.0000 0.11966  0.87155  0.46004  Biso   1.000  H
  H2106    1.0000 0.67545  0.40064  0.43754  Biso   1.000  H
  H2107    1.0000 0.65991  0.38460  0.41985  Biso   1.000  H
  H2108    1.0000 0.13997  0.94139  0.50783  Biso   1.000  H
  H2109    1.0000 0.16870  0.91417  0.46599  Biso   1.000  H
  H2110    1.0000 0.14389  0.90397  0.47470  Biso   1.000  H
  H2111    1.0000 0.82830  0.75499  0.79429  Biso   1.000  H
  H2112    1.0000 0.83423  0.78163  0.80183  Biso   1.000  H
  H2113    1.0000 0.72145  0.79695  0.73913  Biso   1.000  H
  H2114    1.0000 0.75395  0.81355  0.77331  Biso   1.000  H
  H2115    1.0000 0.56795  0.45317  0.43534  Biso   1.000  H
  H2116    1.0000 0.57941  0.39866  0.44057  Biso   1.000  H
  H2117    1.0000 0.58647  0.38938  0.41445  Biso   1.000  H
  H2118    1.0000 0.61917  0.37492  0.45957  Biso   1.000  H
  H2119    1.0000 0.20031  0.90031  0.41570  Biso   1.000  H
  H2120    1.0000 0.18407  0.88435  0.39849  Biso   1.000  H
  H2121    1.0000 0.65921  0.45861  0.48967  Biso   1.000  H
  H2122    1.0000 0.67233  0.41176  0.47788  Biso   1.000  H
  H2123    1.0000 0.64718  0.40248  0.48669  Biso   1.000  H
  H2124    1.0000 0.85220  0.41258  0.37345  Biso   1.000  H
  H2125    1.0000 0.83313  0.24944  0.30117  Biso   1.000  H
  H2126    1.0000 0.83884  0.27682  0.30641  Biso   1.000  H
  H2127    1.0000 0.72665  0.28137  0.24855  Biso   1.000  H
  H2128    1.0000 0.74508  0.32493  0.26476  Biso   1.000  H
  H2129    1.0000 0.55924  0.96503  0.94483  Biso   1.000  H
  H2130    1.0000 0.60707  0.97484  0.95568  Biso   1.000  H
  H2131    1.0000 0.58073  0.89454  0.94132  Biso   1.000  H
  H2132    1.0000 0.58832  0.88568  0.91537  Biso   1.000  H
  H2133    1.0000 0.62098  0.87213  0.96077  Biso   1.000  H
  H2134    1.0000 0.16528  0.41441  0.93617  Biso   1.000  H
  H2135    1.0000 0.14873  0.39810  0.91998  Biso   1.000  H
  H2136    1.0000 0.66811  0.91481  0.96464  Biso   1.000  H
  H2137    1.0000 0.64351  0.90436  0.97374  Biso   1.000  H
  H2138    1.0000 0.84916  0.93815  0.86772  Biso   1.000  H
  H2139    1.0000 0.40917  0.24437  0.93118  Biso   1.000  H
  H2140    1.0000 0.49821  0.31288  0.97604  Biso   1.000  H
  H2141    1.0000 0.68255  0.95515  0.31492  Biso   1.000  H
  H2142    1.0000 0.66184  0.89111  0.33639  Biso   1.000  H
  H2143    1.0000 0.63416  0.87060  0.29029  Biso   1.000  H
  H2144    1.0000 0.62604  0.86273  0.31625  Biso   1.000  H
  H2145    1.0000 0.07821  0.40377  0.31254  Biso   1.000  H
  H2146    1.0000 0.09484  0.38804  0.32897  Biso   1.000  H
  H2147    1.0000 0.61203  0.94356  0.24419  Biso   1.000  H
  H2148    1.0000 0.58121  0.91280  0.28191  Biso   1.000  H
  H2149    1.0000 0.60615  0.90307  0.27311  Biso   1.000  H
  H2150    1.0000 0.40116  0.92431  0.38292  Biso   1.000  H
  H2151    1.0000 0.40976  0.74388  0.42952  Biso   1.000  H
  H2152    1.0000 0.52410  0.78275  0.50192  Biso   1.000  H
  H2153    1.0000 0.68361  0.45655  0.81283  Biso   1.000  H
  H2154    1.0000 0.65810  0.39896  0.83510  Biso   1.000  H
  H2155    1.0000 0.63734  0.36887  0.79067  Biso   1.000  H
  H2156    1.0000 0.63124  0.36070  0.81722  Biso   1.000  H
  H2157    1.0000 0.07573  0.90338  0.81229  Biso   1.000  H
  H2158    1.0000 0.09202  0.88715  0.82863  Biso   1.000  H
  H2159    1.0000 0.59065  0.45695  0.76408  Biso   1.000  H
  H2160    1.0000 0.61544  0.44816  0.75328  Biso   1.000  H
  H2161    1.0000 0.60054  0.40065  0.75789  Biso   1.000  H
  H2162    1.0000 0.40268  0.43316  0.88293  Biso   1.000  H
  H2163    1.0000 0.90923  0.24418  0.42966  Biso   1.000  H
  H2164    1.0000 0.16005  0.98421  0.78450  Biso   1.000  H
  H2165    1.0000 0.17283  0.87989  0.80228  Biso   1.000  H
  H2166    1.0000 0.12404  0.88648  0.79374  Biso   1.000  H
  H2167    1.0000 0.11831  0.87842  0.82041  Biso   1.000  H
  H2168    1.0000 0.57649  0.40270  0.81286  Biso   1.000  H
  H2169    1.0000 0.59333  0.38714  0.82915  Biso   1.000  H
  H2170    1.0000 0.09447  0.95840  0.77203  Biso   1.000  H
  H2171    1.0000 0.11928  0.94942  0.76191  Biso   1.000  H
  H2172    1.0000 0.10053  0.90323  0.75714  Biso   1.000  H
  H2173    1.0000 0.90376  0.93067  0.88422  Biso   1.000  H
  H2174    1.0000 0.90859  0.74374  0.92724  Biso   1.000  H
  H2175    1.0000 0.18412  0.45680  0.31329  Biso   1.000  H
  H2176    1.0000 0.15882  0.39836  0.33614  Biso   1.000  H
  H2177    1.0000 0.13803  0.36838  0.29164  Biso   1.000  H
  H2178    1.0000 0.13209  0.36006  0.31816  Biso   1.000  H
  H2179    1.0000 0.57683  0.90248  0.31284  Biso   1.000  H
  H2180    1.0000 0.59304  0.88673  0.33013  Biso   1.000  H
  H2181    1.0000 0.08992  0.45610  0.26134  Biso   1.000  H
  H2182    1.0000 0.11492  0.44704  0.25157  Biso   1.000  H
  H2183    1.0000 0.10075  0.39971  0.25941  Biso   1.000  H
  H2184    1.0000 0.89426  0.45179  0.37481  Biso   1.000  H
  H2185    1.0000 0.50027  0.44671  0.83813  Biso   1.000  H
  H2186    1.0000 0.47289  0.44166  0.84301  Biso   1.000  H
  H2187    1.0000 0.47318  0.49958  0.73193  Biso   1.000  H
  H2188    1.0000 0.42351  0.49445  0.73447  Biso   1.000  H
  H2189    1.0000 0.79300  0.81564  0.56924  Biso   1.000  H
  H2190    1.0000 0.86266  0.80380  0.57788  Biso   1.000  H
  H2191    1.0000 0.86691  0.79140  0.62618  Biso   1.000  H
  H2192    1.0000 0.87498  0.81769  0.63226  Biso   1.000  H
  H2193    1.0000 0.35289  0.81468  0.17965  Biso   1.000  H
  H2194    1.0000 0.36864  0.83217  0.16358  Biso   1.000  H
  H2195    1.0000 0.79326  0.76554  0.66151  Biso   1.000  H
  H2196    1.0000 0.80056  0.75553  0.63579  Biso   1.000  H
  H2197    1.0000 0.84890  0.75950  0.64822  Biso   1.000  H
  H2198    1.0000 0.81532  0.88114  0.84777  Biso   1.000  H
  H2199    1.0000 0.49412  0.95635  0.31206  Biso   1.000  H
  H2200    1.0000 0.46130  0.00642  0.22361  Biso   1.000  H
  H2201    1.0000 0.76473  0.28475  0.09547  Biso   1.000  H
  H2202    1.0000 0.85373  0.30806  0.07869  Biso   1.000  H
  H2203    1.0000 0.87223  0.29024  0.12161  Biso   1.000  H
  H2204    1.0000 0.88090  0.31624  0.12874  Biso   1.000  H
  H2205    1.0000 0.36717  0.33514  0.66935  Biso   1.000  H
  H2206    1.0000 0.80290  0.24400  0.13824  Biso   1.000  H
  H2207    1.0000 0.83901  0.27529  0.17032  Biso   1.000  H
  H2208    1.0000 0.84739  0.26582  0.14547  Biso   1.000  H
  H2209    1.0000 0.81031  0.38175  0.34717  Biso   1.000  H
  H2210    1.0000 0.99930  0.45401  0.33353  Biso   1.000  H
  H2211    1.0000 0.97076  0.50082  0.23158  Biso   1.000  H
  H2212    1.0000 0.92192  0.49209  0.23793  Biso   1.000  H
  H2213    1.0000 0.28734  0.80744  0.06177  Biso   1.000  H
  H2214    1.0000 0.34471  0.80837  0.08676  Biso   1.000  H
  H2215    1.0000 0.38219  0.78905  0.11377  Biso   1.000  H
  H2216    1.0000 0.39112  0.81535  0.12000  Biso   1.000  H
  H2217    1.0000 0.85244  0.83188  0.69759  Biso   1.000  H
  H2218    1.0000 0.86874  0.84825  0.68078  Biso   1.000  H
  H2219    1.0000 0.29265  0.77206  0.15393  Biso   1.000  H
  H2220    1.0000 0.30266  0.76058  0.12993  Biso   1.000  H
  H2221    1.0000 0.33550  0.76057  0.17720  Biso   1.000  H
  H2222    1.0000 0.31558  0.88179  0.34717  Biso   1.000  H
  H2223    1.0000 0.99308  0.95514  0.80867  Biso   1.000  H
  H2224    1.0000 0.96951  0.00107  0.73011  Biso   1.000  H
  H2225    1.0000 0.29000  0.31248  0.56403  Biso   1.000  H
  H2226    1.0000 0.34340  0.30919  0.58781  Biso   1.000  H
  H2227    1.0000 0.38184  0.29023  0.61375  Biso   1.000  H
  H2228    1.0000 0.38976  0.31663  0.62103  Biso   1.000  H
  H2229    1.0000 0.84904  0.31378  0.17864  Biso   1.000  H
  H2230    1.0000 0.86527  0.33097  0.16271  Biso   1.000  H
  H2231    1.0000 0.29234  0.26302  0.65920  Biso   1.000  H
  H2232    1.0000 0.30122  0.25374  0.63369  Biso   1.000  H
  H2233    1.0000 0.34860  0.25599  0.64949  Biso   1.000  H
  H2234    1.0000 0.33483  0.37915  0.85184  Biso   1.000  H
  H2235    1.0000 0.97410  0.80996  0.90585  Biso   1.000  H
  H2236    1.0000 0.92794  0.76823  0.00461  Biso   1.000  H
  H2237    1.0000 0.29511  0.43503  0.18522  Biso   1.000  H
  H2238    1.0000 0.26545  0.46369  0.15690  Biso   1.000  H
  H2239    1.0000 0.36754  0.41644  0.16487  Biso   1.000  H
  H2240    1.0000 0.36753  0.45842  0.12547  Biso   1.000  H
  H2241    1.0000 0.37612  0.43255  0.11825  Biso   1.000  H
  H2242    1.0000 0.85268  0.42310  0.55343  Biso   1.000  H
  H2243    1.0000 0.29895  0.49293  0.11697  Biso   1.000  H
  H2244    1.0000 0.33855  0.48150  0.07669  Biso   1.000  H
  H2245    1.0000 0.34682  0.49028  0.10210  Biso   1.000  H
  H2246    1.0000 0.93048  0.26842  0.50439  Biso   1.000  H
  H2247    1.0000 0.26842  0.95900  0.64974  Biso   1.000  H
  H2248    1.0000 0.34721  0.94202  0.66980  Biso   1.000  H
  H2249    1.0000 0.37857  0.95922  0.63481  Biso   1.000  H
  H2250    1.0000 0.38618  0.93257  0.62853  Biso   1.000  H
  H2251    1.0000 0.85296  0.92901  0.06222  Biso   1.000  H
  H2252    1.0000 0.86931  0.91284  0.07896  Biso   1.000  H
  H2253    1.0000 0.34070  0.97149  0.57995  Biso   1.000  H
  H2254    1.0000 0.34924  0.98062  0.60491  Biso   1.000  H
  H2255    1.0000 0.47666  0.81596  0.40161  Biso   1.000  H
  H2256    1.0000 0.43744  0.77401  0.49861  Biso   1.000  H
  H2257    1.0000 0.79818  0.43145  0.66367  Biso   1.000  H
  H2258    1.0000 0.76258  0.46532  0.67283  Biso   1.000  H
  H2259    1.0000 0.86842  0.41754  0.66407  Biso   1.000  H
  H2260    1.0000 0.86556  0.45880  0.62404  Biso   1.000  H
  H2261    1.0000 0.87375  0.43283  0.61671  Biso   1.000  H
  H2262    1.0000 0.35200  0.42332  0.05540  Biso   1.000  H
  H2263    1.0000 0.79958  0.49436  0.61588  Biso   1.000  H
  H2264    1.0000 0.83971  0.48075  0.57687  Biso   1.000  H
  H2265    1.0000 0.84764  0.49024  0.60224  Biso   1.000  H
  H2266    1.0000 0.82057  0.36724  0.40193  Biso   1.000  H
  H2267    1.0000 0.50144  0.30171  0.91057  Biso   1.000  H
  H2268    1.0000 0.42792  0.26773  0.00412  Biso   1.000  H
  H2269    1.0000 0.79492  0.93500  0.18371  Biso   1.000  H
  H2270    1.0000 0.76431  0.96496  0.15794  Biso   1.000  H
  H2271    1.0000 0.84617  0.94186  0.16709  Biso   1.000  H
  H2272    1.0000 0.88021  0.95944  0.13506  Biso   1.000  H
  H2273    1.0000 0.88814  0.93284  0.12891  Biso   1.000  H
  H2274    1.0000 0.35327  0.92052  0.60179  Biso   1.000  H
  H2275    1.0000 0.82125  0.95677  0.09196  Biso   1.000  H
  H2276    1.0000 0.82864  0.96630  0.11746  Biso   1.000  H
  H2277    1.0000 0.24718  0.94409  0.40997  Biso   1.000  H
  H2278    1.0000 0.32876  0.99244  0.51299  Biso   1.000  H
  H2279    1.0000 0.98489  0.28382  0.65915  Biso   1.000  H
  H2280    1.0000 0.88670  0.30431  0.67103  Biso   1.000  H
  H2281    1.0000 0.88176  0.29132  0.62298  Biso   1.000  H
  H2282    1.0000 0.87435  0.31772  0.61655  Biso   1.000  H
  H2283    1.0000 0.39859  0.31988  0.06115  Biso   1.000  H
  H2284    1.0000 0.94843  0.26178  0.61953  Biso   1.000  H
  H2285    1.0000 0.91438  0.26353  0.57323  Biso   1.000  H
  H2286    1.0000 0.90428  0.25301  0.59763  Biso   1.000  H
  H2287    1.0000 0.94603  0.37955  0.40002  Biso   1.000  H
  H2288    1.0000 0.25747  0.45481  0.94008  Biso   1.000  H
  H2289    1.0000 0.27847  0.49982  0.01739  Biso   1.000  H
  H2290    1.0000 0.32735  0.49084  0.01156  Biso   1.000  H
  H2291    1.0000 0.98448  0.78434  0.15357  Biso   1.000  H
  H2292    1.0000 0.88553  0.80240  0.17192  Biso   1.000  H
  H2293    1.0000 0.88714  0.79154  0.12310  Biso   1.000  H
  H2294    1.0000 0.87981  0.81804  0.11690  Biso   1.000  H
  H2295    1.0000 0.41734  0.81546  0.58715  Biso   1.000  H
  H2296    1.0000 0.40053  0.83141  0.60347  Biso   1.000  H
  H2297    1.0000 0.94877  0.75998  0.11915  Biso   1.000  H
  H2298    1.0000 0.91301  0.76400  0.07430  Biso   1.000  H
  H2299    1.0000 0.90365  0.75280  0.09870  Biso   1.000  H
  H2300    1.0000 0.94165  0.88101  0.90121  Biso   1.000  H
  H2301    1.0000 0.74801  0.94691  0.90991  Biso   1.000  H
  H2302    1.0000 0.82861  0.99347  0.01449  Biso   1.000  H
  H2303    1.0000 0.48519  0.28294  0.15586  Biso   1.000  H
  H2304    1.0000 0.38771  0.30367  0.17169  Biso   1.000  H
  H2305    1.0000 0.38196  0.29078  0.12369  Biso   1.000  H
  H2306    1.0000 0.37441  0.31718  0.11744  Biso   1.000  H
  H2307    1.0000 0.89986  0.32028  0.56098  Biso   1.000  H
  H2308    1.0000 0.44816  0.26125  0.11875  Biso   1.000  H
  H2309    1.0000 0.41291  0.26348  0.07336  Biso   1.000  H
  H2310    1.0000 0.40342  0.25277  0.09792  Biso   1.000  H
  H2311    1.0000 0.43953  0.38189  0.90221  Biso   1.000  H
  H2312    1.0000 0.74721  0.44744  0.41118  Biso   1.000  H
  H2313    1.0000 0.77739  0.49780  0.51474  Biso   1.000  H
  H2314    1.0000 0.82728  0.49417  0.51353  Biso   1.000  H
  H2315    1.0000 0.48251  0.78882  0.65162  Biso   1.000  H
  H2316    1.0000 0.41084  0.80567  0.65138  Biso   1.000  H
  H2317    1.0000 0.36396  0.79080  0.64287  Biso   1.000  H
  H2318    1.0000 0.35642  0.81773  0.63726  Biso   1.000  H
  H2319    1.0000 0.90180  0.83316  0.05354  Biso   1.000  H
  H2320    1.0000 0.88525  0.84955  0.06988  Biso   1.000  H
  H2321    1.0000 0.44871  0.75932  0.61959  Biso   1.000  H
  H2322    1.0000 0.41564  0.76525  0.57289  Biso   1.000  H
  H2323    1.0000 0.40456  0.75487  0.59677  Biso   1.000  H
  H2324    1.0000 0.45380  0.87282  0.39222  Biso   1.000  H
  H2325    1.0000 0.75667  0.29474  0.31370  Biso   1.000  H
  H2326    1.0000 0.78384  0.24333  0.22689  Biso   1.000  H
  H2327    1.0000 0.45353  0.93386  0.06863  Biso   1.000  H
  H2328    1.0000 0.48617  0.96606  0.08858  Biso   1.000  H
  H2329    1.0000 0.39834  0.94254  0.08106  Biso   1.000  H
  H2330    1.0000 0.39057  0.91594  0.08772  Biso   1.000  H
  H2331    1.0000 0.37108  0.96008  0.11917  Biso   1.000  H
  H2332    1.0000 0.89885  0.92066  0.69562  Biso   1.000  H
  H2333    1.0000 0.45713  0.99012  0.16027  Biso   1.000  H
  H2334    1.0000 0.44765  0.99771  0.13468  Biso   1.000  H
  H2335    1.0000 0.41092  0.97603  0.17342  Biso   1.000  H
  H2336    1.0000 0.41074  0.87500  0.35406  Biso   1.000  H
  H2337    1.0000 0.75669  0.79209  0.81463  Biso   1.000  H
  H2338    1.0000 0.77827  0.75417  0.73382  Biso   1.000  H
  H2339    1.0000 0.45387  0.43219  0.57240  Biso   1.000  H
  H2340    1.0000 0.48596  0.46541  0.59136  Biso   1.000  H
  H2341    1.0000 0.37912  0.41775  0.58547  Biso   1.000  H
  H2342    1.0000 0.38506  0.45871  0.62545  Biso   1.000  H
  H2343    1.0000 0.37641  0.43304  0.63311  Biso   1.000  H
  H2344    1.0000 0.89739  0.43002  0.18862  Biso   1.000  H
  H2345    1.0000 0.44906  0.48675  0.62979  Biso   1.000  H
  H2346    1.0000 0.41385  0.48725  0.67530  Biso   1.000  H
  H2347    1.0000 0.40455  0.49709  0.65040  Biso   1.000  H
  H2348    1.0000 0.42923  0.37056  0.84669  Biso   1.000  H
  H2349    1.0000 0.24546  0.30740  0.84156  Biso   1.000  H
  H2350    1.0000 0.27744  0.24951  0.73352  Biso   1.000  H
  H2351    1.0000 0.32709  0.25534  0.73649  Biso   1.000  H
  H2352    1.0000 0.95324  0.93424  0.56856  Biso   1.000  H
  H2353    1.0000 0.98647  0.96728  0.58601  Biso   1.000  H
  H2354    1.0000 0.89535  0.94290  0.57990  Biso   1.000  H
  H2355    1.0000 0.88722  0.91628  0.58627  Biso   1.000  H
  H2356    1.0000 0.87488  0.95935  0.62246  Biso   1.000  H
  H2357    1.0000 0.39825  0.93173  0.18451  Biso   1.000  H
  H2358    1.0000 0.92284  0.95814  0.66020  Biso   1.000  H
  H2359    1.0000 0.92310  0.86845  0.84821  Biso   1.000  H
  H2360    1.0000 0.25759  0.79268  0.31315  Biso   1.000  H
  H2361    1.0000 0.32872  0.75472  0.23434  Biso   1.000  H
  H2362    1.0000 0.95728  0.43441  0.06685  Biso   1.000  H
  H2363    1.0000 0.98365  0.46393  0.09746  Biso   1.000  H
  H2364    1.0000 0.88808  0.44447  0.07798  Biso   1.000  H
  H2365    1.0000 0.88423  0.45792  0.12603  Biso   1.000  H
  H2366    1.0000 0.87568  0.43192  0.13272  Biso   1.000  H
  H2367    1.0000 0.39704  0.43064  0.68869  Biso   1.000  H
  H2368    1.0000 0.94265  0.47373  0.12812  Biso   1.000  H
  H2369    1.0000 0.92368  0.49876  0.17647  Biso   1.000  H
  H2370    1.0000 0.91521  0.50868  0.15120  Biso   1.000  H
  H2371    1.0000 0.92084  0.37239  0.34874  Biso   1.000  H
  O3531    1.0000 0.35196  0.30206  0.78769  Biso   1.000  O
  O3532    1.0000 0.33197  0.28430  0.78400  Biso   1.000  O
  O3533    1.0000 0.24673  0.28693  0.78796  Biso   1.000  O
  O3534    1.0000 0.25712  0.27024  0.76945  Biso   1.000  O
  O3535    1.0000 0.04549  0.93969  0.45282  Biso   1.000  O
  O3536    1.0000 0.04872  0.94296  0.47947  Biso   1.000  O
  O3537    1.0000 0.09709  0.91598  0.41981  Biso   1.000  O
  O3538    1.0000 0.11836  0.90473  0.40770  Biso   1.000  O
  O3539    1.0000 0.66334  0.94220  0.93477  Biso   1.000  O
  O3540    1.0000 0.65295  0.94652  0.91019  Biso   1.000  O
  O3541    1.0000 0.35154  0.86435  0.46452  Biso   1.000  O
  O3542    1.0000 0.35258  0.89126  0.46339  Biso   1.000  O
  O3543    1.0000 0.34349  0.79043  0.23759  Biso   1.000  O
  O3544    1.0000 0.33174  0.77884  0.25891  Biso   1.000  O
  O3545    1.0000 0.22484  0.73211  0.26890  Biso   1.000  O
  O3546    1.0000 0.20768  0.74204  0.28726  Biso   1.000  O
  O3547    1.0000 0.07888  0.42329  0.93845  Biso   1.000  O
  O3548    1.0000 0.06036  0.42040  0.95785  Biso   1.000  O
  O3549    1.0000 0.06262  0.44089  0.88066  Biso   1.000  O
  O3550    1.0000 0.06992  0.45143  0.90443  Biso   1.000  O
  O3551    1.0000 0.67090  0.43252  0.37424  Biso   1.000  O
  O3552    1.0000 0.67106  0.40656  0.36678  Biso   1.000  O
  O3553    1.0000 0.14146  0.45309  0.95917  Biso   1.000  O
  O3554    1.0000 0.16388  0.44649  0.94581  Biso   1.000  O
  O3555    1.0000 0.34093  0.34978  0.93650  Biso   1.000  O
  O3556    1.0000 0.33558  0.37293  0.94935  Biso   1.000  O
  O3557    1.0000 0.85885  0.29452  0.27083  Biso   1.000  O
  O3558    1.0000 0.86177  0.31697  0.28545  Biso   1.000  O
  O3559    1.0000 0.74764  0.28731  0.28714  Biso   1.000  O
  O3560    1.0000 0.75858  0.27076  0.26889  Biso   1.000  O
  O3561    1.0000 0.54485  0.94060  0.95487  Biso   1.000  O
  O3562    1.0000 0.54963  0.94331  0.98135  Biso   1.000  O
  O3563    1.0000 0.60114  0.91597  0.92148  Biso   1.000  O
  O3564    1.0000 0.62125  0.90485  0.90737  Biso   1.000  O
  O3565    1.0000 0.16474  0.93881  0.44056  Biso   1.000  O
  O3566    1.0000 0.14552  0.93917  0.42169  Biso   1.000  O
  O3567    1.0000 0.66048  0.97606  0.96927  Biso   1.000  O
  O3568    1.0000 0.85127  0.86461  0.96516  Biso   1.000  O
  O3569    1.0000 0.85206  0.89152  0.96388  Biso   1.000  O
  O3570    1.0000 0.86016  0.80013  0.75175  Biso   1.000  O
  O3571    1.0000 0.84999  0.81117  0.72933  Biso   1.000  O
  O3572    1.0000 0.72664  0.73436  0.76567  Biso   1.000  O
  O3573    1.0000 0.70809  0.74334  0.78316  Biso   1.000  O
  O3574    1.0000 0.58266  0.43188  0.41987  Biso   1.000  O
  O3575    1.0000 0.59873  0.45330  0.42326  Biso   1.000  O
  O3576    1.0000 0.21474  0.41704  0.90537  Biso   1.000  O
  O3577    1.0000 0.20329  0.42278  0.88158  Biso   1.000  O
  O3578    1.0000 0.63941  0.45186  0.45809  Biso   1.000  O
  O3579    1.0000 0.66286  0.44582  0.44636  Biso   1.000  O
  O3580    1.0000 0.38842  0.91810  0.25991  Biso   1.000  O
  O3581    1.0000 0.40008  0.90353  0.27939  Biso   1.000  O
  O3582    1.0000 0.63509  0.27724  0.98576  Biso   1.000  O
  O3583    1.0000 0.66261  0.33698  0.91426  Biso   1.000  O
  O3584    1.0000 0.67116  0.34775  0.89103  Biso   1.000  O
  O3585    1.0000 0.57786  0.27659  0.89212  Biso   1.000  O
  O3586    1.0000 0.55768  0.26689  0.90726  Biso   1.000  O
  O3587    1.0000 0.63556  0.77736  0.48734  Biso   1.000  O
  O3588    1.0000 0.65583  0.78504  0.50351  Biso   1.000  O
  O3589    1.0000 0.64556  0.83295  0.42315  Biso   1.000  O
  O3590    1.0000 0.62791  0.84474  0.40657  Biso   1.000  O
  O3591    1.0000 0.57855  0.77819  0.39320  Biso   1.000  O
  O3592    1.0000 0.55815  0.76696  0.40695  Biso   1.000  O
  O3593    1.0000 0.88680  0.93879  0.76841  Biso   1.000  O
  O3594    1.0000 0.90160  0.95093  0.78747  Biso   1.000  O
  O3595    1.0000 0.13871  0.27918  0.48616  Biso   1.000  O
  O3596    1.0000 0.16013  0.28267  0.50227  Biso   1.000  O
  O3597    1.0000 0.18443  0.33088  0.38040  Biso   1.000  O
  O3598    1.0000 0.16782  0.34560  0.39570  Biso   1.000  O
  O3599    1.0000 0.07982  0.27443  0.39189  Biso   1.000  O
  O3600    1.0000 0.05962  0.26527  0.40736  Biso   1.000  O
  O3601    1.0000 0.93205  0.47049  0.28185  Biso   1.000  O
  O3602    1.0000 0.94012  0.45193  0.29967  Biso   1.000  O
  O3603    1.0000 0.20154  0.81828  0.97050  Biso   1.000  O
  O3604    1.0000 0.20018  0.81585  0.94360  Biso   1.000  O
  O3605    1.0000 0.12814  0.84513  0.90533  Biso   1.000  O
  O3606    1.0000 0.14710  0.83471  0.92134  Biso   1.000  O
  O3607    1.0000 0.07890  0.77796  0.89326  Biso   1.000  O
  O3608    1.0000 0.05859  0.76656  0.90700  Biso   1.000  O
  O3609    1.0000 0.89205  0.81498  0.96490  Biso   1.000  O
  O3610    1.0000 0.89959  0.79195  0.97691  Biso   1.000  O
  O3611    1.0000 0.18730  0.43200  0.35439  Biso   1.000  O
  O3612    1.0000 0.18541  0.45708  0.36417  Biso   1.000  O
  O3613    1.0000 0.59341  0.41928  0.87938  Biso   1.000  O
  O3614    1.0000 0.56653  0.41884  0.88114  Biso   1.000  O
  O3615    1.0000 0.09273  0.50354  0.28077  Biso   1.000  O
  O3616    1.0000 0.08952  0.47678  0.28020  Biso   1.000  O
  O3617    1.0000 0.93698  0.28200  0.46646  Biso   1.000  O
  O3618    1.0000 0.94438  0.30163  0.44949  Biso   1.000  O
  O3619    1.0000 0.16526  0.90425  0.85268  Biso   1.000  O
  O3620    1.0000 0.18269  0.91885  0.86721  Biso   1.000  O
  O3621    1.0000 0.57695  0.90121  0.38378  Biso   1.000  O
  O3622    1.0000 0.57039  0.92696  0.37922  Biso   1.000  O
  O3623    1.0000 0.13659  0.96506  0.82372  Biso   1.000  O
  O3624    1.0000 0.11724  0.94970  0.83449  Biso   1.000  O
  O3625    1.0000 0.39255  0.82028  0.46606  Biso   1.000  O
  O3626    1.0000 0.39611  0.79850  0.48165  Biso   1.000  O
  O3627    1.0000 0.49493  0.76641  0.41330  Biso   1.000  O
  O3628    1.0000 0.49787  0.78251  0.43470  Biso   1.000  O
  O3629    1.0000 0.68670  0.43275  0.85436  Biso   1.000  O
  O3630    1.0000 0.68460  0.45777  0.86428  Biso   1.000  O
  O3631    1.0000 0.09397  0.41959  0.37952  Biso   1.000  O
  O3632    1.0000 0.06706  0.41912  0.38085  Biso   1.000  O
  O3633    1.0000 0.57892  0.51830  0.79947  Biso   1.000  O
  O3634    1.0000 0.55958  0.50400  0.81167  Biso   1.000  O
  O3635    1.0000 0.43260  0.28044  0.96661  Biso   1.000  O
  O3636    1.0000 0.44256  0.29891  0.94962  Biso   1.000  O
  O3637    1.0000 0.61020  0.92677  0.38676  Biso   1.000  O
  O3638    1.0000 0.62473  0.94279  0.40294  Biso   1.000  O
  O3639    1.0000 0.09271  0.91914  0.87914  Biso   1.000  O
  O3640    1.0000 0.06580  0.91913  0.88059  Biso   1.000  O
  O3641    1.0000 0.63695  0.96436  0.32532  Biso   1.000  O
  O3642    1.0000 0.61748  0.94891  0.33584  Biso   1.000  O
  O3643    1.0000 0.83356  0.46355  0.46651  Biso   1.000  O
  O3644    1.0000 0.85336  0.44559  0.46283  Biso   1.000  O
  O3645    1.0000 0.55503  0.82574  0.78839  Biso   1.000  O
  O3646    1.0000 0.56821  0.82625  0.81205  Biso   1.000  O
  O3647    1.0000 0.56739  0.83023  0.86568  Biso   1.000  O
  O3648    1.0000 0.58127  0.84144  0.88596  Biso   1.000  O
  O3649    1.0000 0.64397  0.77421  0.77791  Biso   1.000  O
  O3650    1.0000 0.66840  0.76306  0.77631  Biso   1.000  O
  O3651    1.0000 0.85212  0.94787  0.96271  Biso   1.000  O
  O3652    1.0000 0.83123  0.96452  0.96656  Biso   1.000  O
  O3653    1.0000 0.54953  0.31798  0.28092  Biso   1.000  O
  O3654    1.0000 0.55268  0.31678  0.30776  Biso   1.000  O
  O3655    1.0000 0.62093  0.34442  0.34287  Biso   1.000  O
  O3656    1.0000 0.60089  0.33364  0.32843  Biso   1.000  O
  O3657    1.0000 0.65194  0.26465  0.28018  Biso   1.000  O
  O3658    1.0000 0.67351  0.24935  0.28575  Biso   1.000  O
  O3659    1.0000 0.35989  0.43400  0.96549  Biso   1.000  O
  O3660    1.0000 0.35248  0.45720  0.97725  Biso   1.000  O
  O3661    1.0000 0.05603  0.82822  0.29004  Biso   1.000  O
  O3662    1.0000 0.07061  0.82752  0.31283  Biso   1.000  O
  O3663    1.0000 0.06682  0.83115  0.36441  Biso   1.000  O
  O3664    1.0000 0.08074  0.84244  0.38463  Biso   1.000  O
  O3665    1.0000 0.14979  0.76755  0.27678  Biso   1.000  O
  O3666    1.0000 0.17185  0.75289  0.28150  Biso   1.000  O
  O3667    1.0000 0.33214  0.96348  0.46677  Biso   1.000  O
  O3668    1.0000 0.35280  0.94655  0.46284  Biso   1.000  O
  O3669    1.0000 0.04978  0.31801  0.77921  Biso   1.000  O
  O3670    1.0000 0.05106  0.31597  0.80614  Biso   1.000  O
  O3671    1.0000 0.11893  0.34559  0.84283  Biso   1.000  O
  O3672    1.0000 0.09719  0.33625  0.82994  Biso   1.000  O
  O3673    1.0000 0.67223  0.31808  0.37793  Biso   1.000  O
  O3674    1.0000 0.67109  0.34411  0.38500  Biso   1.000  O
  O3675    1.0000 0.19080  0.27096  0.84423  Biso   1.000  O
  O3676    1.0000 0.16992  0.28343  0.85608  Biso   1.000  O
  O3677    1.0000 0.35561  0.12418  0.96300  Biso   1.000  O
  O3678    1.0000 0.38096  0.13070  0.96959  Biso   1.000  O
  O3679    1.0000 0.39605  0.17123  0.96350  Biso   1.000  O
  O3680    1.0000 0.40355  0.18952  0.98187  Biso   1.000  O
  O3681    1.0000 0.34864  0.62798  0.42982  Biso   1.000  O
  O3682    1.0000 0.36978  0.64338  0.43674  Biso   1.000  O
  O3683    1.0000 0.91651  0.14652  0.44506  Biso   1.000  O
  O3684    1.0000 0.93701  0.16377  0.44276  Biso   1.000  O
  O3685    1.0000 0.40059  0.66492  0.45759  Biso   1.000  O
  O3686    1.0000 0.40296  0.68732  0.47240  Biso   1.000  O
  O3687    1.0000 0.33480  0.21964  0.76260  Biso   1.000  O
  O3688    1.0000 0.34403  0.24457  0.75793  Biso   1.000  O
  O3689    1.0000 0.95464  0.06458  0.42201  Biso   1.000  O
  O3690    1.0000 0.95413  0.04445  0.43992  Biso   1.000  O
  O3691    1.0000 0.84363  0.10274  0.42127  Biso   1.000  O
  O3692    1.0000 0.84337  0.11769  0.44376  Biso   1.000  O
  O3693    1.0000 0.89681  0.17056  0.46304  Biso   1.000  O
  O3694    1.0000 0.90400  0.18942  0.48090  Biso   1.000  O
  O3695    1.0000 0.84982  0.63044  0.92912  Biso   1.000  O
  O3696    1.0000 0.87077  0.64370  0.93972  Biso   1.000  O
  O3697    1.0000 0.41444  0.14688  0.94465  Biso   1.000  O
  O3698    1.0000 0.43575  0.16316  0.94249  Biso   1.000  O
  O3699    1.0000 0.89575  0.68117  0.99101  Biso   1.000  O
  O3700    1.0000 0.90407  0.68158  0.96534  Biso   1.000  O
  O3701    1.0000 0.34349  0.50142  0.98883  Biso   1.000  O
  O3702    1.0000 0.33697  0.52763  0.98865  Biso   1.000  O
  O3703    1.0000 0.95419  0.70513  0.31385  Biso   1.000  O
  O3704    1.0000 0.95453  0.68411  0.33079  Biso   1.000  O
  O3705    1.0000 0.92314  0.64814  0.29400  Biso   1.000  O
  O3706    1.0000 0.92389  0.66197  0.31717  Biso   1.000  O
  O3707    1.0000 0.91676  0.60684  0.22545  Biso   1.000  O
  O3708    1.0000 0.90470  0.58459  0.23478  Biso   1.000  O
  O3709    1.0000 0.95434  0.40691  0.39598  Biso   1.000  O
  O3710    1.0000 0.95873  0.41035  0.36955  Biso   1.000  O
  O3711    1.0000 0.34567  0.00503  0.49269  Biso   1.000  O
  O3712    1.0000 0.33602  0.03001  0.48941  Biso   1.000  O
  O3713    1.0000 0.90573  0.17917  0.80180  Biso   1.000  O
  O3714    1.0000 0.88322  0.18857  0.81343  Biso   1.000  O
  O3715    1.0000 0.91241  0.10785  0.72601  Biso   1.000  O
  O3716    1.0000 0.89999  0.08661  0.73713  Biso   1.000  O
  O3717    1.0000 0.95369  0.90780  0.89207  Biso   1.000  O
  O3718    1.0000 0.92957  0.91625  0.88341  Biso   1.000  O
  O3719    1.0000 0.84475  0.50689  0.49388  Biso   1.000  O
  O3720    1.0000 0.83447  0.53146  0.48955  Biso   1.000  O
  O3721    1.0000 0.45470  0.70637  0.81353  Biso   1.000  O
  O3722    1.0000 0.45478  0.68508  0.83016  Biso   1.000  O
  O3723    1.0000 0.40629  0.68005  0.80122  Biso   1.000  O
  O3724    1.0000 0.38347  0.68848  0.81297  Biso   1.000  O
  O3725    1.0000 0.45748  0.62717  0.78602  Biso   1.000  O
  O3726    1.0000 0.43288  0.63765  0.78269  Biso   1.000  O
  O3727    1.0000 0.44018  0.41116  0.89917  Biso   1.000  O
  O3728    1.0000 0.45295  0.41451  0.87557  Biso   1.000  O
  O3729    1.0000 0.84560  0.00573  0.99399  Biso   1.000  O
  O3730    1.0000 0.83598  0.03069  0.99035  Biso   1.000  O
  O3731    1.0000 0.40734  0.17767  0.30162  Biso   1.000  O
  O3732    1.0000 0.38552  0.18811  0.31366  Biso   1.000  O
  O3733    1.0000 0.90370  0.61293  0.31698  Biso   1.000  O
  O3734    1.0000 0.90632  0.62050  0.34281  Biso   1.000  O
  O3735    1.0000 0.41078  0.10575  0.22683  Biso   1.000  O
  O3736    1.0000 0.39841  0.08498  0.23884  Biso   1.000  O
  O3737    1.0000 0.46763  0.89692  0.38266  Biso   1.000  O
  O3738    1.0000 0.46451  0.89622  0.35584  Biso   1.000  O
  O3739    1.0000 0.91006  0.00254  0.76919  Biso   1.000  O
  O3740    1.0000 0.91231  0.02837  0.76148  Biso   1.000  O
  O3741    1.0000 0.29521  0.18351  0.42140  Biso   1.000  O
  O3742    1.0000 0.29619  0.20417  0.43870  Biso   1.000  O
  O3743    1.0000 0.37967  0.10461  0.44180  Biso   1.000  O
  O3744    1.0000 0.39826  0.11754  0.42696  Biso   1.000  O
  O3745    1.0000 0.84756  0.61142  0.43451  Biso   1.000  O
  O3746    1.0000 0.84496  0.62019  0.40907  Biso   1.000  O
  O3747    1.0000 0.35892  0.08579  0.50011  Biso   1.000  O
  O3748    1.0000 0.34956  0.10422  0.51749  Biso   1.000  O
  O3749    1.0000 0.90617  0.50225  0.26114  Biso   1.000  O
  O3750    1.0000 0.91299  0.52836  0.26199  Biso   1.000  O
  O3751    1.0000 0.35337  0.68494  0.93143  Biso   1.000  O
  O3752    1.0000 0.36373  0.68392  0.95636  Biso   1.000  O
  O3753    1.0000 0.79425  0.18402  0.92112  Biso   1.000  O
  O3754    1.0000 0.79500  0.20437  0.93876  Biso   1.000  O
  O3755    1.0000 0.88145  0.10471  0.94084  Biso   1.000  O
  O3756    1.0000 0.89935  0.11794  0.92539  Biso   1.000  O
  O3757    1.0000 0.35289  0.54658  0.93854  Biso   1.000  O
  O3758    1.0000 0.36814  0.56858  0.94216  Biso   1.000  O
  O3759    1.0000 0.49412  0.40729  0.78495  Biso   1.000  O
  O3760    1.0000 0.51366  0.40060  0.80223  Biso   1.000  O
  O3761    1.0000 0.40644  0.50643  0.75518  Biso   1.000  O
  O3762    1.0000 0.41553  0.53172  0.75790  Biso   1.000  O
  O3763    1.0000 0.82407  0.65607  0.43516  Biso   1.000  O
  O3764    1.0000 0.83693  0.67737  0.44564  Biso   1.000  O
  O3765    1.0000 0.78639  0.62271  0.47723  Biso   1.000  O
  O3766    1.0000 0.79405  0.62937  0.50225  Biso   1.000  O
  O3767    1.0000 0.80019  0.40950  0.35472  Biso   1.000  O
  O3768    1.0000 0.82339  0.41555  0.36701  Biso   1.000  O
  O3769    1.0000 0.79684  0.54474  0.81170  Biso   1.000  O
  O3770    1.0000 0.79591  0.56537  0.82902  Biso   1.000  O
  O3771    1.0000 0.90585  0.59959  0.83108  Biso   1.000  O
  O3772    1.0000 0.90854  0.61283  0.80771  Biso   1.000  O
  O3773    1.0000 0.85795  0.67205  0.77883  Biso   1.000  O
  O3774    1.0000 0.84278  0.69188  0.76849  Biso   1.000  O
  O3775    1.0000 0.89855  0.13261  0.32215  Biso   1.000  O
  O3776    1.0000 0.87722  0.14482  0.31108  Biso   1.000  O
  O3777    1.0000 0.38596  0.67458  0.35078  Biso   1.000  O
  O3778    1.0000 0.38234  0.68248  0.32523  Biso   1.000  O
  O3779    1.0000 0.77708  0.16188  0.26628  Biso   1.000  O
  O3780    1.0000 0.78274  0.14062  0.28189  Biso   1.000  O
  O3781    1.0000 0.31280  0.57918  0.32764  Biso   1.000  O
  O3782    1.0000 0.29322  0.56086  0.33003  Biso   1.000  O
  O3783    1.0000 0.38413  0.64311  0.32339  Biso   1.000  O
  O3784    1.0000 0.35735  0.64456  0.31966  Biso   1.000  O
  O3785    1.0000 0.35914  0.67478  0.26637  Biso   1.000  O
  O3786    1.0000 0.33987  0.69317  0.26213  Biso   1.000  O
  O3787    1.0000 0.26541  0.11631  0.78132  Biso   1.000  O
  O3788    1.0000 0.24821  0.09623  0.78695  Biso   1.000  O
  O3789    1.0000 0.39997  0.12964  0.82106  Biso   1.000  O
  O3790    1.0000 0.37918  0.14351  0.81083  Biso   1.000  O
  O3791    1.0000 0.88517  0.66706  0.84016  Biso   1.000  O
  O3792    1.0000 0.87532  0.66439  0.81510  Biso   1.000  O
  O3793    1.0000 0.28793  0.17955  0.75033  Biso   1.000  O
  O3794    1.0000 0.27833  0.15432  0.74975  Biso   1.000  O
  O3795    1.0000 0.31450  0.76354  0.36361  Biso   1.000  O
  O3796    1.0000 0.33391  0.78182  0.35947  Biso   1.000  O
  O3797    1.0000 0.28125  0.82664  0.24840  Biso   1.000  O
  O3798    1.0000 0.26122  0.84397  0.24349  Biso   1.000  O
  O3799    1.0000 0.96721  0.48626  0.11331  Biso   1.000  O
  O3800    1.0000 0.96678  0.50085  0.09055  Biso   1.000  O
  O3801    1.0000 0.93194  0.42231  0.08610  Biso   1.000  O
  O3802    1.0000 0.95356  0.42318  0.10220  Biso   1.000  O
  O3803    1.0000 0.99815  0.47214  0.15253  Biso   1.000  O
  O3804    1.0000 0.28069  0.28374  0.81930  Biso   1.000  O
  O3805    1.0000 0.29950  0.30025  0.80921  Biso   1.000  O
  O3806    1.0000 0.23083  0.27327  0.71713  Biso   1.000  O
  O3807    1.0000 0.25571  0.26648  0.72503  Biso   1.000  O
  O3808    1.0000 0.98038  0.99764  0.58345  Biso   1.000  O
  O3809    1.0000 0.96065  0.99633  0.60183  Biso   1.000  O
  O3810    1.0000 0.93220  0.92088  0.58371  Biso   1.000  O
  O3811    1.0000 0.95443  0.92318  0.59886  Biso   1.000  O
  O3812    1.0000 0.95757  0.96358  0.64161  Biso   1.000  O
  O3813    1.0000 0.97475  0.97588  0.65836  Biso   1.000  O
  O3814    1.0000 0.81364  0.76369  0.86342  Biso   1.000  O
  O3815    1.0000 0.83355  0.78147  0.85950  Biso   1.000  O
  O3816    1.0000 0.79035  0.80258  0.75137  Biso   1.000  O
  O3817    1.0000 0.78140  0.82199  0.76788  Biso   1.000  O
  O3818    1.0000 0.48090  0.49560  0.58688  Biso   1.000  O
  O3819    1.0000 0.45991  0.49567  0.60381  Biso   1.000  O
  O3820    1.0000 0.43134  0.42368  0.59231  Biso   1.000  O
  O3821    1.0000 0.45472  0.42220  0.60566  Biso   1.000  O
  O3822    1.0000 0.48905  0.39476  0.68179  Biso   1.000  O
  O3823    1.0000 0.46427  0.40526  0.68103  Biso   1.000  O
  O3824    1.0000 0.79788  0.27055  0.35941  Biso   1.000  O
  O3825    1.0000 0.82168  0.28314  0.36129  Biso   1.000  O
  O3826    1.0000 0.73500  0.26968  0.22143  Biso   1.000  O
  O3827    1.0000 0.76046  0.26637  0.22969  Biso   1.000  O
  O3828    1.0000 0.48025  0.99626  0.08877  Biso   1.000  O
  O3829    1.0000 0.45903  0.99387  0.10527  Biso   1.000  O
  O3830    1.0000 0.43290  0.92211  0.08702  Biso   1.000  O
  O3831    1.0000 0.45611  0.92249  0.10079  Biso   1.000  O
  O3832    1.0000 0.46705  0.96832  0.14243  Biso   1.000  O
  O3833    1.0000 0.48161  0.97421  0.16438  Biso   1.000  O
  O3834    1.0000 0.31884  0.90062  0.60747  Biso   1.000  O
  O3835    1.0000 0.34124  0.90301  0.62242  Biso   1.000  O
  O3836    1.0000 0.25242  0.97228  0.59869  Biso   1.000  O
  O3837    1.0000 0.25163  0.96397  0.57301  Biso   1.000  O
  O3838    1.0000 0.27871  0.48729  0.14078  Biso   1.000  O
  O3839    1.0000 0.28252  0.50145  0.16346  Biso   1.000  O
  O3840    1.0000 0.31077  0.37352  0.10264  Biso   1.000  O
  O3841    1.0000 0.32290  0.35246  0.11422  Biso   1.000  O
  O3842    1.0000 0.29142  0.45181  0.12584  Biso   1.000  O
  O3843    1.0000 0.28308  0.42855  0.13646  Biso   1.000  O
  O3844    1.0000 0.39698  0.42356  0.91204  Biso   1.000  O
  O3845    1.0000 0.37984  0.44350  0.91854  Biso   1.000  O
  O3846    1.0000 0.77179  0.99106  0.14666  Biso   1.000  O
  O3847    1.0000 0.80562  0.84756  0.11900  Biso   1.000  O
  O3848    1.0000 0.82491  0.86347  0.10898  Biso   1.000  O
  O3849    1.0000 0.75230  0.97109  0.09767  Biso   1.000  O
  O3850    1.0000 0.74995  0.96226  0.07219  Biso   1.000  O
  O3851    1.0000 0.89452  0.91811  0.91081  Biso   1.000  O
  O3852    1.0000 0.88227  0.94084  0.91853  Biso   1.000  O
  O3853    1.0000 0.76720  0.49483  0.67172  Biso   1.000  O
  O3854    1.0000 0.78938  0.49742  0.68691  Biso   1.000  O
  O3855    1.0000 0.81024  0.37615  0.60074  Biso   1.000  O
  O3856    1.0000 0.82328  0.35480  0.61064  Biso   1.000  O
  O3857    1.0000 0.80223  0.89703  0.06229  Biso   1.000  O
  O3858    1.0000 0.80111  0.89789  0.08930  Biso   1.000  O
  O3859    1.0000 0.79093  0.45110  0.62650  Biso   1.000  O
  O3860    1.0000 0.78324  0.42704  0.63580  Biso   1.000  O
  O3861    1.0000 0.88568  0.46477  0.39981  Biso   1.000  O
  O3862    1.0000 0.85875  0.46415  0.39903  Biso   1.000  O
  O3863    1.0000 0.80238  0.94908  0.94137  Biso   1.000  O
  O3864    1.0000 0.78291  0.96652  0.93493  Biso   1.000  O
  O3865    1.0000 0.43912  0.38073  0.10588  Biso   1.000  O
  O3866    1.0000 0.42853  0.40086  0.12044  Biso   1.000  O
  O3867    1.0000 0.40801  0.87903  0.55651  Biso   1.000  O
  O3868    1.0000 0.38422  0.87440  0.56832  Biso   1.000  O
  O3869    1.0000 0.51203  0.35525  0.10270  Biso   1.000  O
  O3870    1.0000 0.49050  0.36237  0.08799  Biso   1.000  O
  O3871    1.0000 0.80325  0.44843  0.44332  Biso   1.000  O
  O3872    1.0000 0.78345  0.46537  0.43651  Biso   1.000  O
  O3873    1.0000 0.44355  0.88792  0.60940  Biso   1.000  O
  O3874    1.0000 0.42442  0.90162  0.62269  Biso   1.000  O
  O3875    1.0000 0.48748  0.84181  0.55845  Biso   1.000  O
  O3876    1.0000 0.48060  0.85944  0.57773  Biso   1.000  O
  O3877    1.0000 0.28263  0.96628  0.43644  Biso   1.000  O
  O3878    1.0000 0.30219  0.94866  0.44197  Biso   1.000  O
  O3879    1.0000 0.24432  0.93852  0.54712  Biso   1.000  O
  O3880    1.0000 0.22493  0.95611  0.54058  Biso   1.000  O
  O3881    1.0000 0.93904  0.38156  0.60654  Biso   1.000  O
  O3882    1.0000 0.92806  0.40186  0.62058  Biso   1.000  O
  O3883    1.0000 0.90964  0.84613  0.12190  Biso   1.000  O
  O3884    1.0000 0.93555  0.84760  0.11468  Biso   1.000  O
  O3885    1.0000 0.98932  0.36363  0.58913  Biso   1.000  O
  O3886    1.0000 0.85430  0.33957  0.40757  Biso   1.000  O
  O3887    1.0000 0.86562  0.31801  0.41928  Biso   1.000  O
  O3888    1.0000 0.28739  0.49475  0.90241  Biso   1.000  O
  O3889    1.0000 0.30260  0.51703  0.90341  Biso   1.000  O
  O3890    1.0000 0.24288  0.43941  0.04681  Biso   1.000  O
  O3891    1.0000 0.22417  0.45720  0.03896  Biso   1.000  O
  O3892    1.0000 0.94058  0.89337  0.11383  Biso   1.000  O
  O3893    1.0000 0.92647  0.90571  0.13331  Biso   1.000  O
  O3894    1.0000 0.81803  0.82709  0.58606  Biso   1.000  O
  O3895    1.0000 0.79654  0.82617  0.60238  Biso   1.000  O
  O3896    1.0000 0.81762  0.37717  0.17434  Biso   1.000  O
  O3897    1.0000 0.84371  0.38355  0.17208  Biso   1.000  O
  O3898    1.0000 0.73314  0.84975  0.64701  Biso   1.000  O
  O3899    1.0000 0.74961  0.85875  0.66640  Biso   1.000  O
  O3900    1.0000 0.50643  0.96721  0.20684  Biso   1.000  O
  O3901    1.0000 0.51361  0.98487  0.22607  Biso   1.000  O
  O3902    1.0000 0.82309  0.38691  0.14058  Biso   1.000  O
  O3903    1.0000 0.80664  0.40301  0.12649  Biso   1.000  O
  O3904    1.0000 0.84373  0.84398  0.62910  Biso   1.000  O
  O3905    1.0000 0.81793  0.84618  0.63677  Biso   1.000  O
  O3906    1.0000 0.75013  0.29268  0.11970  Biso   1.000  O
  O3907    1.0000 0.77625  0.28832  0.12507  Biso   1.000  O
  O3908    1.0000 0.92020  0.46876  0.36130  Biso   1.000  O
  O3909    1.0000 0.94158  0.48494  0.36409  Biso   1.000  O
  O3910    1.0000 0.00586  0.43850  0.20467  Biso   1.000  O
  O3911    1.0000 0.02567  0.45544  0.21161  Biso   1.000  O
  O3912    1.0000 0.33154  0.86659  0.06292  Biso   1.000  O
  O3913    1.0000 0.34401  0.88548  0.07756  Biso   1.000  O
  O3914    1.0000 0.24025  0.85833  0.14648  Biso   1.000  O
  O3915    1.0000 0.26203  0.86582  0.16060  Biso   1.000  O
  O3916    1.0000 0.95570  0.96257  0.84298  Biso   1.000  O
  O3917    1.0000 0.94499  0.98063  0.85995  Biso   1.000  O
  O3918    1.0000 0.32958  0.36903  0.56497  Biso   1.000  O
  O3919    1.0000 0.34165  0.38775  0.58015  Biso   1.000  O
  O3920    1.0000 0.31467  0.86997  0.15815  Biso   1.000  O
  O3921    1.0000 0.33738  0.88268  0.16553  Biso   1.000  O
  O3922    1.0000 0.23623  0.35246  0.64815  Biso   1.000  O
  O3923    1.0000 0.25596  0.35970  0.66514  Biso   1.000  O
  O3924    1.0000 0.03178  0.51837  0.69145  Biso   1.000  O
  O3925    1.0000 0.03775  0.49784  0.70785  Biso   1.000  O
  O3926    1.0000 0.68072  0.31298  0.10422  Biso   1.000  O
  O3927    1.0000 0.70578  0.31373  0.11422  Biso   1.000  O
  O3928    1.0000 0.68275  0.92097  0.62647  Biso   1.000  O
  O3929    1.0000 0.65677  0.92167  0.63380  Biso   1.000  O
  O3930    1.0000 0.74453  0.39720  0.11327  Biso   1.000  O
  O3931    1.0000 0.71782  0.40064  0.11081  Biso   1.000  O
  O3932    1.0000 0.64543  0.60428  0.03636  Biso   1.000  O
  O3933    1.0000 0.61870  0.60389  0.03276  Biso   1.000  O
  O3934    1.0000 0.71492  0.84509  0.49904  Biso   1.000  O
  O3935    1.0000 0.72188  0.86564  0.51517  Biso   1.000  O
  O3936    1.0000 0.68155  0.84091  0.57599  Biso   1.000  O
  O3937    1.0000 0.70469  0.85461  0.57738  Biso   1.000  O
  O3938    1.0000 0.76494  0.89650  0.60369  Biso   1.000  O
  O3939    1.0000 0.74616  0.91384  0.61234  Biso   1.000  O
  O3940    1.0000 0.64123  0.10200  0.53595  Biso   1.000  O
  O3941    1.0000 0.61429  0.10054  0.53516  Biso   1.000  O
  O3942    1.0000 0.50943  0.46867  0.16546  Biso   1.000  O
  O3943    1.0000 0.50694  0.49388  0.15614  Biso   1.000  O
  O3944    1.0000 0.18129  0.34121  0.57612  Biso   1.000  O
  O3945    1.0000 0.20465  0.35454  0.57765  Biso   1.000  O
  O3946    1.0000 0.26176  0.39674  0.60655  Biso   1.000  O
  O3947    1.0000 0.24087  0.41161  0.61504  Biso   1.000  O
  O3948    1.0000 0.14166  0.60481  0.53542  Biso   1.000  O
  O3949    1.0000 0.11468  0.60386  0.53508  Biso   1.000  O
  O3950    1.0000 0.49274  0.95658  0.68070  Biso   1.000  O
  O3951    1.0000 0.48468  0.97374  0.66147  Biso   1.000  O
  O3952    1.0000 0.20991  0.85645  0.00651  Biso   1.000  O
  O3953    1.0000 0.23129  0.84028  0.00388  Biso   1.000  O
  O3954    1.0000 0.18258  0.84256  0.07465  Biso   1.000  O
  O3955    1.0000 0.20608  0.85563  0.07639  Biso   1.000  O
  O3956    1.0000 0.17908  0.42455  0.62853  Biso   1.000  O
  O3957    1.0000 0.15285  0.42258  0.63460  Biso   1.000  O
  O3958    1.0000 0.27135  0.89551  0.09444  Biso   1.000  O
  O3959    1.0000 0.25684  0.91621  0.10389  Biso   1.000  O
  O3960    1.0000 0.14150  0.10064  0.03673  Biso   1.000  O
  O3961    1.0000 0.11464  0.09895  0.03489  Biso   1.000  O
  O3962    1.0000 0.75704  0.79359  0.20941  Biso   1.000  O
  O3963    1.0000 0.76919  0.77834  0.22810  Biso   1.000  O
  O3964    1.0000 0.09483  0.92590  0.61770  Biso   1.000  O
  O3965    1.0000 0.08681  0.92329  0.59194  Biso   1.000  O
  O3966    1.0000 0.01828  0.87130  0.53532  Biso   1.000  O
  O3967    1.0000 0.75649  0.29446  0.71136  Biso   1.000  O
  O3968    1.0000 0.76820  0.27846  0.72969  Biso   1.000  O
  O3969    1.0000 0.07921  0.43364  0.04584  Biso   1.000  O
  O3970    1.0000 0.06157  0.45394  0.04743  Biso   1.000  O
  O3971    1.0000 0.06185  0.35544  0.13054  Biso   1.000  O
  O3972    1.0000 0.07208  0.36963  0.15112  Biso   1.000  O
  O3973    1.0000 0.06043  0.84395  0.62020  Biso   1.000  O
  O3974    1.0000 0.08270  0.83677  0.63377  Biso   1.000  O
  O3975    1.0000 0.25580  0.79661  0.68997  Biso   1.000  O
  O3976    1.0000 0.27618  0.78814  0.70541  Biso   1.000  O
  O3977    1.0000 0.59066  0.92474  0.13197  Biso   1.000  O
  O3978    1.0000 0.57126  0.91955  0.15010  Biso   1.000  O
  O3979    1.0000 0.48212  0.87083  0.05459  Biso   1.000  O
  O3980    1.0000 0.49561  0.85997  0.03386  Biso   1.000  O
  O3981    1.0000 0.25728  0.29413  0.21259  Biso   1.000  O
  O3982    1.0000 0.26855  0.27765  0.23078  Biso   1.000  O
  O3983    1.0000 0.57717  0.43258  0.54603  Biso   1.000  O
  O3984    1.0000 0.55950  0.45289  0.54691  Biso   1.000  O
  O3985    1.0000 0.55772  0.37895  0.65628  Biso   1.000  O
  O3986    1.0000 0.57941  0.39501  0.65633  Biso   1.000  O
  O3987    1.0000 0.48706  0.35240  0.60622  Biso   1.000  O
  O3988    1.0000 0.50787  0.33717  0.61428  Biso   1.000  O
  O3989    1.0000 0.47679  0.28180  0.52477  Biso   1.000  O
  O3990    1.0000 0.49218  0.29545  0.54220  Biso   1.000  O
  O3991    1.0000 0.17733  0.35585  0.11646  Biso   1.000  O
  O3992    1.0000 0.18115  0.35427  0.14328  Biso   1.000  O
  O3993    1.0000 0.23091  0.32582  0.14269  Biso   1.000  O
  O3994    1.0000 0.23684  0.30688  0.16101  Biso   1.000  O
  O3995    1.0000 0.48211  0.77928  0.02097  Biso   1.000  O
  O3996    1.0000 0.49286  0.79552  0.03964  Biso   1.000  O
  O3997    1.0000 0.17486  0.93660  0.68983  Biso   1.000  O
  O3998    1.0000 0.17607  0.94711  0.71475  Biso   1.000  O
  O3999    1.0000 0.19273  0.86083  0.60415  Biso   1.000  O
  O4000    1.0000 0.17441  0.85393  0.62262  Biso   1.000  O
  O4001    1.0000 0.15077  0.32400  0.11625  Biso   1.000  O
  O4002    1.0000 0.17629  0.31646  0.12043  Biso   1.000  O
  O4003    1.0000 0.21620  0.88571  0.67377  Biso   1.000  O
  O4004    1.0000 0.20090  0.86688  0.66203  Biso   1.000  O
  O4005    1.0000 0.67629  0.35498  0.61629  Biso   1.000  O
  O4006    1.0000 0.68061  0.35376  0.64304  Biso   1.000  O
  O4007    1.0000 0.63842  0.81677  0.12290  Biso   1.000  O
  O4008    1.0000 0.66457  0.81093  0.11941  Biso   1.000  O
  O4009    1.0000 0.73018  0.32527  0.64206  Biso   1.000  O
  O4010    1.0000 0.73601  0.30638  0.66045  Biso   1.000  O
  O4011    1.0000 0.97775  0.78098  0.52262  Biso   1.000  O
  O4012    1.0000 0.99083  0.79596  0.54086  Biso   1.000  O
  O4013    1.0000 0.67477  0.92984  0.19306  Biso   1.000  O
  O4014    1.0000 0.67935  0.94769  0.21290  Biso   1.000  O
  O4015    1.0000 0.65236  0.91745  0.14556  Biso   1.000  O
  O4016    1.0000 0.66701  0.93369  0.12977  Biso   1.000  O
  O4017    1.0000 0.64827  0.32327  0.61629  Biso   1.000  O
  O4018    1.0000 0.67369  0.31514  0.61980  Biso   1.000  O
  O4019    1.0000 0.75609  0.86021  0.21436  Biso   1.000  O
  O4020    1.0000 0.74013  0.87875  0.20309  Biso   1.000  O
  O4021    1.0000 0.21859  0.01741  0.06472  Biso   1.000  O
  O4022    1.0000 0.56628  0.89860  0.64045  Biso   1.000  O
  O4023    1.0000 0.57286  0.89338  0.61474  Biso   1.000  O
  O4024    1.0000 0.53282  0.86264  0.67855  Biso   1.000  O
  O4025    1.0000 0.55052  0.88140  0.67101  Biso   1.000  O
  O4026    1.0000 0.20897  0.58890  0.49052  Biso   1.000  O
  O4027    1.0000 0.19169  0.60908  0.49496  Biso   1.000  O
  O4028    1.0000 0.22525  0.49041  0.58355  Biso   1.000  O
  O4029    1.0000 0.24953  0.48717  0.59478  Biso   1.000  O
  O4030    1.0000 0.53541  0.36815  0.22884  Biso   1.000  O
  O4031    1.0000 0.53775  0.35020  0.24881  Biso   1.000  O
  O4032    1.0000 0.56860  0.31344  0.14810  Biso   1.000  O
  O4033    1.0000 0.54422  0.31447  0.13660  Biso   1.000  O
  O4034    1.0000 0.59961  0.92585  0.61547  Biso   1.000  O
  O4035    1.0000 0.57429  0.93408  0.61945  Biso   1.000  O
  O4036    1.0000 0.50288  0.41287  0.13993  Biso   1.000  O
  O4037    1.0000 0.48467  0.39489  0.14857  Biso   1.000  O
  O4038    1.0000 0.72934  0.98525  0.58563  Biso   1.000  O
  O4039    1.0000 0.03799  0.87134  0.22555  Biso   1.000  O
  O4040    1.0000 0.04104  0.85546  0.24713  Biso   1.000  O
  O4041    1.0000 0.07331  0.88928  0.11128  Biso   1.000  O
  O4042    1.0000 0.05817  0.87374  0.09517  Biso   1.000  O
  O4043    1.0000 0.74058  0.46886  0.08552  Biso   1.000  O
  O4044    1.0000 0.74635  0.49321  0.09560  Biso   1.000  O
  O4045    1.0000 0.03621  0.36856  0.73027  Biso   1.000  O
  O4046    1.0000 0.03731  0.34991  0.74977  Biso   1.000  O
  O4047    1.0000 0.07298  0.39063  0.61474  Biso   1.000  O
  O4048    1.0000 0.05700  0.37672  0.59803  Biso   1.000  O
  O4049    1.0000 0.09550  0.92021  0.11370  Biso   1.000  O
  O4050    1.0000 0.06969  0.92503  0.11979  Biso   1.000  O
  O4051    1.0000 0.13599  0.58066  0.67375  Biso   1.000  O
  O4052    1.0000 0.14041  0.59453  0.65102  Biso   1.000  O
  O4053    1.0000 0.86005  0.73830  0.53054  Biso   1.000  O
  O4054    1.0000 0.83740  0.75257  0.53391  Biso   1.000  O
  O4055    1.0000 0.84285  0.60719  0.52928  Biso   1.000  O
  O4056    1.0000 0.86677  0.59955  0.53916  Biso   1.000  O
  O4057    1.0000 0.87000  0.70255  0.50795  Biso   1.000  O
  O4058    1.0000 0.88862  0.71233  0.49106  Biso   1.000  O
  O4059    1.0000 0.79998  0.23629  0.05140  Biso   1.000  O
  O4060    1.0000 0.79122  0.21077  0.05104  Biso   1.000  O
  O4061    1.0000 0.87698  0.15768  0.03760  Biso   1.000  O
  O4062    1.0000 0.89276  0.13802  0.04694  Biso   1.000  O
  O4063    1.0000 0.36103  0.73927  0.02604  Biso   1.000  O
  O4064    1.0000 0.33975  0.75332  0.03510  Biso   1.000  O
  O4065    1.0000 0.37705  0.65874  0.03915  Biso   1.000  O
  O4066    1.0000 0.39317  0.63825  0.04575  Biso   1.000  O
  O4067    1.0000 0.29986  0.23724  0.55119  Biso   1.000  O
  O4068    1.0000 0.29022  0.21205  0.55140  Biso   1.000  O
  O4069    1.0000 0.32276  0.14820  0.58874  Biso   1.000  O
  O4070    1.0000 0.32445  0.12166  0.59307  Biso   1.000  O
  O4071    1.0000 0.42199  0.14173  0.52568  Biso   1.000  O
  O4072    1.0000 0.44199  0.15734  0.51640  Biso   1.000  O
  O4073    1.0000 0.15163  0.53865  0.54851  Biso   1.000  O
  O4074    1.0000 0.13648  0.51793  0.55671  Biso   1.000  O
  O4075    1.0000 0.28706  0.53735  0.47559  Biso   1.000  O
  O4076    1.0000 0.29655  0.55694  0.49156  Biso   1.000  O
  O4077    1.0000 0.44564  0.19098  0.17873  Biso   1.000  O
  O4078    1.0000 0.44939  0.21767  0.17778  Biso   1.000  O
  O4079    1.0000 0.41702  0.14105  0.15506  Biso   1.000  O
  O4080    1.0000 0.43140  0.12423  0.17048  Biso   1.000  O
  O4081    1.0000 0.33693  0.18458  0.19372  Biso   1.000  O
  O4082    1.0000 0.34706  0.15978  0.19709  Biso   1.000  O
  O4083    1.0000 0.27379  0.01551  0.98720  Biso   1.000  O
  O4084    1.0000 0.29251  0.03449  0.99161  Biso   1.000  O
  O4085    1.0000 0.41945  0.63934  0.65510  Biso   1.000  O
  O4086    1.0000 0.43199  0.62188  0.67143  Biso   1.000  O
  O4087    1.0000 0.33500  0.72383  0.73049  Biso   1.000  O
  O4088    1.0000 0.35675  0.71852  0.71543  Biso   1.000  O
  O4089    1.0000 0.14865  0.71455  0.61682  Biso   1.000  O
  O4090    1.0000 0.14821  0.71294  0.64378  Biso   1.000  O
  O4091    1.0000 0.75286  0.53775  0.03757  Biso   1.000  O
  O4092    1.0000 0.74097  0.51994  0.02119  Biso   1.000  O
  O4093    1.0000 0.94668  0.19321  0.68002  Biso   1.000  O
  O4094    1.0000 0.94911  0.22002  0.67863  Biso   1.000  O
  O4095    1.0000 0.91767  0.14175  0.65509  Biso   1.000  O
  O4096    1.0000 0.93216  0.12523  0.67074  Biso   1.000  O
  O4097    1.0000 0.83670  0.18494  0.69372  Biso   1.000  O
  O4098    1.0000 0.84690  0.16018  0.69714  Biso   1.000  O
  O4099    1.0000 0.65676  0.19579  0.60227  Biso   1.000  O
  O4100    1.0000 0.65889  0.20638  0.62707  Biso   1.000  O
  O4101    1.0000 0.75251  0.04010  0.53681  Biso   1.000  O
  O4102    1.0000 0.74299  0.02041  0.52094  Biso   1.000  O
  O4103    1.0000 0.94873  0.69259  0.18128  Biso   1.000  O
  O4104    1.0000 0.95053  0.71944  0.17991  Biso   1.000  O
  O4105    1.0000 0.91801  0.64127  0.15490  Biso   1.000  O
  O4106    1.0000 0.93330  0.62510  0.17011  Biso   1.000  O
  O4107    1.0000 0.82873  0.71686  0.24664  Biso   1.000  O
  O4108    1.0000 0.85006  0.72064  0.23059  Biso   1.000  O
  O4109    1.0000 0.64799  0.71411  0.11585  Biso   1.000  O
  O4110    1.0000 0.64713  0.71272  0.14282  Biso   1.000  O
  O4111    1.0000 0.66143  0.24474  0.71703  Biso   1.000  O
  O4112    1.0000 0.65233  0.26447  0.70108  Biso   1.000  O
  O4113    1.0000 0.85598  0.62917  0.05975  Biso   1.000  O
  O4114    1.0000 0.86825  0.64721  0.07577  Biso   1.000  O
  O4115    1.0000 0.32671  0.13340  0.08848  Biso   1.000  O
  O4116    1.0000 0.30435  0.12439  0.10063  Biso   1.000  O
  O4117    1.0000 0.64123  0.75275  0.19318  Biso   1.000  O
  O4118    1.0000 0.66203  0.75769  0.20962  Biso   1.000  O
  O4119    1.0000 0.74082  0.72932  0.22588  Biso   1.000  O
  O4120    1.0000 0.75215  0.70971  0.21122  Biso   1.000  O
  O4121    1.0000 0.86389  0.14473  0.55531  Biso   1.000  O
  O4122    1.0000 0.87626  0.15291  0.57787  Biso   1.000  O
  O4123    1.0000 0.34604  0.62867  0.57867  Biso   1.000  O
  O4124    1.0000 0.35832  0.60848  0.56550  Biso   1.000  O
  O4125    1.0000 0.88371  0.08031  0.53774  Biso   1.000  O
  O4126    1.0000 0.86320  0.09442  0.54820  Biso   1.000  O
  O4127    1.0000 0.14212  0.25420  0.19426  Biso   1.000  O
  O4128    1.0000 0.16304  0.25812  0.21083  Biso   1.000  O
  O4129    1.0000 0.36973  0.64991  0.55493  Biso   1.000  O
  O4130    1.0000 0.38056  0.65417  0.57924  Biso   1.000  O
  O4131    1.0000 0.82932  0.13377  0.58724  Biso   1.000  O
  O4132    1.0000 0.80596  0.12635  0.59857  Biso   1.000  O
  O4133    1.0000 0.38126  0.54598  0.50679  Biso   1.000  O
  O4134    1.0000 0.36210  0.53499  0.49136  Biso   1.000  O
  O4135    1.0000 0.14078  0.75289  0.69300  Biso   1.000  O
  O4136    1.0000 0.16132  0.75765  0.70981  Biso   1.000  O
  O4137    1.0000 0.23857  0.72688  0.72498  Biso   1.000  O
  O4138    1.0000 0.25211  0.70799  0.71132  Biso   1.000  O
  O4139    1.0000 0.36108  0.14055  0.05549  Biso   1.000  O
  O4140    1.0000 0.37345  0.15126  0.07697  Biso   1.000  O
  O4141    1.0000 0.38254  0.08149  0.03868  Biso   1.000  O
  O4142    1.0000 0.36159  0.09553  0.04830  Biso   1.000  O
  O4143    1.0000 0.35230  0.00834  0.72949  Biso   1.000  O
  O4144    1.0000 0.40589  0.03198  0.75641  Biso   1.000  O
  O4145    1.0000 0.43077  0.04205  0.75357  Biso   1.000  O
  O4146    1.0000 0.51121  0.22552  0.52391  Biso   1.000  O
  O4147    1.0000 0.49673  0.20744  0.53768  Biso   1.000  O
  O4148    1.0000 0.31211  0.50216  0.20994  Biso   1.000  O
  O4149    1.0000 0.32667  0.50470  0.23255  Biso   1.000  O
  O4150    1.0000 0.38397  0.64828  0.17719  Biso   1.000  O
  O4151    1.0000 0.39709  0.62870  0.19012  Biso   1.000  O
  O4152    1.0000 0.88698  0.09735  0.18488  Biso   1.000  O
  O4153    1.0000 0.87827  0.09574  0.15938  Biso   1.000  O
  O4154    1.0000 0.36502  0.57565  0.21558  Biso   1.000  O
  O4155    1.0000 0.38504  0.58530  0.20031  Biso   1.000  O
  O4156    1.0000 0.60305  0.60618  0.11761  Biso   1.000  O
  O4157    1.0000 0.60288  0.60190  0.14425  Biso   1.000  O
  O4158    1.0000 0.88943  0.14084  0.19127  Biso   1.000  O
  O4159    1.0000 0.87146  0.15518  0.17717  Biso   1.000  O
  O4160    1.0000 0.87655  0.03816  0.22737  Biso   1.000  O
  O4161    1.0000 0.87045  0.04547  0.25265  Biso   1.000  O
  O4162    1.0000 0.84393  0.49869  0.71498  Biso   1.000  O
  O4163    1.0000 0.86477  0.51568  0.71668  Biso   1.000  O
  O4164    1.0000 0.89360  0.63262  0.67621  Biso   1.000  O
  O4165    1.0000 0.88271  0.64953  0.69418  Biso   1.000  O
  O4166    1.0000 0.86704  0.57984  0.71337  Biso   1.000  O
  O4167    1.0000 0.88756  0.59417  0.70317  Biso   1.000  O
  O4168    1.0000 0.10459  0.60704  0.61842  Biso   1.000  O
  O4169    1.0000 0.10252  0.60042  0.64444  Biso   1.000  O
  O4170    1.0000 0.50387  0.53786  0.15064  Biso   1.000  O
  O4171    1.0000 0.48142  0.55282  0.15217  Biso   1.000  O
  O4172    1.0000 0.12312  0.19060  0.43610  Biso   1.000  O
  O4173    1.0000 0.11609  0.21372  0.42412  Biso   1.000  O
  O4174    1.0000 0.65948  0.19767  0.84934  Biso   1.000  O
  O4175    1.0000 0.68372  0.19376  0.83816  Biso   1.000  O
  O4176    1.0000 0.15408  0.26485  0.33543  Biso   1.000  O
  O4177    1.0000 0.16628  0.27466  0.35743  Biso   1.000  O
  O4178    1.0000 0.51926  0.04854  0.64180  Biso   1.000  O
  O4179    1.0000 0.53173  0.07242  0.63999  Biso   1.000  O
  O4180    1.0000 0.14916  0.68253  0.93593  Biso   1.000  O
  O4181    1.0000 0.13802  0.70710  0.93535  Biso   1.000  O
  O4182    1.0000 0.64745  0.69032  0.30146  Biso   1.000  O
  O4183    1.0000 0.63490  0.69372  0.32517  Biso   1.000  O
  O4184    1.0000 0.13796  0.74168  0.83834  Biso   1.000  O
  O4185    1.0000 0.14566  0.76252  0.85371  Biso   1.000  O
  O4186    1.0000 0.01524  0.55497  0.63801  Biso   1.000  O
  O4187    1.0000 0.03171  0.57625  0.63999  Biso   1.000  O
  O4188    1.0000 0.64542  0.18371  0.93715  Biso   1.000  O
  O4189    1.0000 0.63511  0.20847  0.93439  Biso   1.000  O
  O4190    1.0000 0.14708  0.19203  0.30193  Biso   1.000  O
  O4191    1.0000 0.13439  0.19454  0.32568  Biso   1.000  O
  O4192    1.0000 0.63948  0.24652  0.83593  Biso   1.000  O
  O4193    1.0000 0.64846  0.26480  0.85366  Biso   1.000  O
  O4194    1.0000 0.01946  0.05058  0.14056  Biso   1.000  O
  O4195    1.0000 0.03296  0.07392  0.13938  Biso   1.000  O
  O4196    1.0000 0.65942  0.68173  0.43059  Biso   1.000  O
  O4197    1.0000 0.64338  0.70280  0.43611  Biso   1.000  O
  O4198    1.0000 0.13750  0.68807  0.85069  Biso   1.000  O
  O4199    1.0000 0.11938  0.66958  0.84334  Biso   1.000  O
  O4200    1.0000 0.64019  0.74551  0.33821  Biso   1.000  O
  O4201    1.0000 0.64909  0.76471  0.35497  Biso   1.000  O
  O4202    1.0000 0.08343  0.22714  0.98629  Biso   1.000  O
  O4203    1.0000 0.09185  0.25242  0.98214  Biso   1.000  O
  O4204    1.0000 0.70515  0.56061  0.79359  Biso   1.000  O
  O4205    1.0000 0.70607  0.57878  0.81353  Biso   1.000  O
  O4206    1.0000 0.65960  0.58575  0.82843  Biso   1.000  O
  O4207    1.0000 0.63483  0.59561  0.82439  Biso   1.000  O
  O4208    1.0000 0.71303  0.49923  0.92714  Biso   1.000  O
  O4209    1.0000 0.72173  0.50244  0.90170  Biso   1.000  O
  O4210    1.0000 0.03021  0.67149  0.61070  Biso   1.000  O
  O4211    1.0000 0.01354  0.69263  0.61271  Biso   1.000  O
  O4212    1.0000 0.70588  0.06036  0.29373  Biso   1.000  O
  O4213    1.0000 0.70622  0.07879  0.31345  Biso   1.000  O
  O4214    1.0000 0.66110  0.08584  0.32832  Biso   1.000  O
  O4215    1.0000 0.63656  0.09610  0.32400  Biso   1.000  O
  O4216    1.0000 0.48344  0.19640  0.59853  Biso   1.000  O
  O4217    1.0000 0.50283  0.21365  0.59133  Biso   1.000  O
  O4218    1.0000 0.20717  0.55923  0.29387  Biso   1.000  O
  O4219    1.0000 0.20665  0.57813  0.31317  Biso   1.000  O
  O4220    1.0000 0.15493  0.58599  0.32375  Biso   1.000  O
  O4221    1.0000 0.12929  0.59441  0.32423  Biso   1.000  O
  O4222    1.0000 0.22248  0.51257  0.41700  Biso   1.000  O
  O4223    1.0000 0.21790  0.52957  0.39649  Biso   1.000  O
  O4224    1.0000 0.48895  0.70933  0.09025  Biso   1.000  O
  O4225    1.0000 0.51171  0.71870  0.07927  Biso   1.000  O
  O4226    1.0000 0.18986  0.07708  0.82003  Biso   1.000  O
  O4227    1.0000 0.21170  0.07550  0.80435  Biso   1.000  O
  O4228    1.0000 0.12909  0.08238  0.81323  Biso   1.000  O
  O4229    1.0000 0.14364  0.09690  0.83070  Biso   1.000  O
  O4230    1.0000 0.14120  0.02399  0.88813  Biso   1.000  O
  O4231    1.0000 0.13805  0.00683  0.90868  Biso   1.000  O
  O4232    1.0000 0.71173  0.04519  0.59323  Biso   1.000  O
  O4233    1.0000 0.73208  0.05263  0.60931  Biso   1.000  O
  O4234    1.0000 0.03747  0.67690  0.30242  Biso   1.000  O
  O4235    1.0000 0.05808  0.67306  0.31945  Biso   1.000  O
  O4236    1.0000 0.13745  0.65874  0.32883  Biso   1.000  O
  O4237    1.0000 0.11854  0.67091  0.31391  Biso   1.000  O
  O4238    1.0000 0.59324  0.69686  0.90136  Biso   1.000  O
  O4239    1.0000 0.56860  0.69407  0.91210  Biso   1.000  O
  O4240    1.0000 0.03061  0.75516  0.40746  Biso   1.000  O
  O4241    1.0000 0.04160  0.75241  0.43197  Biso   1.000  O
  O4242    1.0000 0.71680  0.52985  0.06944  Biso   1.000  O
  O4243    1.0000 0.70015  0.54914  0.06061  Biso   1.000  O
  O4244    1.0000 0.11209  0.20710  0.81623  Biso   1.000  O
  O4245    1.0000 0.09952  0.18316  0.81651  Biso   1.000  O
  O4246    1.0000 0.59043  0.19616  0.40064  Biso   1.000  O
  O4247    1.0000 0.56620  0.19299  0.41199  Biso   1.000  O
  O4248    1.0000 0.11191  0.24275  0.91173  Biso   1.000  O
  O4249    1.0000 0.10325  0.26400  0.89745  Biso   1.000  O
  O4250    1.0000 0.06456  0.09827  0.08946  Biso   1.000  O
  O4251    1.0000 0.05047  0.12073  0.08429  Biso   1.000  O
  O4252    1.0000 0.21248  0.04528  0.09466  Biso   1.000  O
  O4253    1.0000 0.23275  0.05366  0.11035  Biso   1.000  O
  O4254    1.0000 0.53801  0.67725  0.80249  Biso   1.000  O
  O4255    1.0000 0.55852  0.67327  0.81958  Biso   1.000  O
  O4256    1.0000 0.64009  0.65866  0.83066  Biso   1.000  O
  O4257    1.0000 0.62223  0.67112  0.81471  Biso   1.000  O
  O4258    1.0000 0.09400  0.69797  0.40160  Biso   1.000  O
  O4259    1.0000 0.06922  0.69502  0.41192  Biso   1.000  O
  O4260    1.0000 0.53173  0.75520  0.90759  Biso   1.000  O
  O4261    1.0000 0.54253  0.75219  0.93215  Biso   1.000  O
  O4262    1.0000 0.56293  0.59905  0.09037  Biso   1.000  O
  O4263    1.0000 0.55130  0.62283  0.08517  Biso   1.000  O
  O4264    1.0000 0.61572  0.20973  0.31647  Biso   1.000  O
  O4265    1.0000 0.60532  0.18508  0.31310  Biso   1.000  O
  O4266    1.0000 0.11782  0.18570  0.93805  Biso   1.000  O
  O4267    1.0000 0.09637  0.19927  0.92889  Biso   1.000  O
  O4268    1.0000 0.61072  0.24591  0.41497  Biso   1.000  O
  O4269    1.0000 0.60166  0.26461  0.39775  Biso   1.000  O
  O4270    1.0000 0.56580  0.09982  0.59012  Biso   1.000  O
  O4271    1.0000 0.55146  0.12206  0.58462  Biso   1.000  O
  O4272    1.0000 0.22373  0.71485  0.66475  Biso   1.000  O
  O4273    1.0000 0.20660  0.70414  0.68257  Biso   1.000  O
  O4274    1.0000 0.65403  0.05704  0.87540  Biso   1.000  O
  O4275    1.0000 0.65630  0.07832  0.89184  Biso   1.000  O
  O4276    1.0000 0.10815  0.06538  0.35817  Biso   1.000  O
  O4277    1.0000 0.12851  0.07773  0.34531  Biso   1.000  O
  O4278    1.0000 0.22261  0.21751  0.16673  Biso   1.000  O
  O4279    1.0000 0.20493  0.20469  0.18251  Biso   1.000  O
  O4280    1.0000 0.60844  0.59557  0.41972  Biso   1.000  O
  O4281    1.0000 0.62500  0.58025  0.43444  Biso   1.000  O
  O4282    1.0000 0.12859  0.59187  0.80766  Biso   1.000  O
  O4283    1.0000 0.12461  0.61654  0.81781  Biso   1.000  O
  O4284    1.0000 0.53568  0.49805  0.32662  Biso   1.000  O
  O4285    1.0000 0.52754  0.51288  0.34768  Biso   1.000  O
  O4286    1.0000 0.72231  0.71617  0.16821  Biso   1.000  O
  O4287    1.0000 0.70476  0.70297  0.18388  Biso   1.000  O
  O4288    1.0000 0.15119  0.05450  0.36917  Biso   1.000  O
  O4289    1.0000 0.15524  0.07894  0.37974  Biso   1.000  O
  O4290    1.0000 0.62979  0.07242  0.82159  Biso   1.000  O
  O4291    1.0000 0.63389  0.09866  0.82632  Biso   1.000  O
  O4292    1.0000 0.11294  0.00861  0.33759  Biso   1.000  O
  O4293    1.0000 0.72024  0.21797  0.67149  Biso   1.000  O
  O4294    1.0000 0.71471  0.20445  0.64878  Biso   1.000  O
  O4295    1.0000 0.10935  0.59688  0.92205  Biso   1.000  O
  O4296    1.0000 0.08794  0.58859  0.90766  Biso   1.000  O
  O4297    1.0000 0.14650  0.55583  0.86494  Biso   1.000  O
  O4298    1.0000 0.15388  0.57861  0.87738  Biso   1.000  O
  O4299    1.0000 0.62389  0.56661  0.33991  Biso   1.000  O
  O4300    1.0000 0.63450  0.58847  0.32812  Biso   1.000  O
  O4301    1.0000 0.04337  0.54821  0.86010  Biso   1.000  O
  O4302    1.0000 0.05581  0.55513  0.83722  Biso   1.000  O
  O4303    1.0000 0.66012  0.71647  0.24414  Biso   1.000  O
  O4304    1.0000 0.65250  0.70153  0.26519  Biso   1.000  O
  O4305    1.0000 0.93407  0.07589  0.56065  Biso   1.000  O
  O4306    1.0000 0.94872  0.07329  0.53818  Biso   1.000  O
  O4307    1.0000 0.93210  0.08198  0.60953  Biso   1.000  O
  O4308    1.0000 0.92255  0.09177  0.63289  Biso   1.000  O
  O4309    1.0000 0.85908  0.04483  0.54015  Biso   1.000  O
  O4310    1.0000 0.83861  0.05366  0.55546  Biso   1.000  O
  O4311    1.0000 0.64090  0.17843  0.75530  Biso   1.000  O
  O4312    1.0000 0.65823  0.16714  0.77267  Biso   1.000  O
  O4313    1.0000 0.92217  0.57616  0.06193  Biso   1.000  O
  O4314    1.0000 0.94046  0.57857  0.04226  Biso   1.000  O
  O4315    1.0000 0.93393  0.58092  0.11219  Biso   1.000  O
  O4316    1.0000 0.92237  0.59102  0.13446  Biso   1.000  O
  O4317    1.0000 0.85609  0.54161  0.03739  Biso   1.000  O
  O4318    1.0000 0.83902  0.52378  0.02637  Biso   1.000  O
  O4319    1.0000 0.14124  0.67568  0.71729  Biso   1.000  O
  O4320    1.0000 0.14178  0.69690  0.73396  Biso   1.000  O
  O4321    1.0000 0.42360  0.07643  0.06424  Biso   1.000  O
  O4322    1.0000 0.43990  0.08013  0.04313  Biso   1.000  O
  O4323    1.0000 0.43246  0.08017  0.11265  Biso   1.000  O
  O4324    1.0000 0.42070  0.09071  0.13460  Biso   1.000  O
  O4325    1.0000 0.35875  0.04554  0.03995  Biso   1.000  O
  O4326    1.0000 0.33799  0.05356  0.05532  Biso   1.000  O
  O4327    1.0000 0.16220  0.21884  0.24347  Biso   1.000  O
  O4328    1.0000 0.15359  0.20411  0.26427  Biso   1.000  O
  O4329    1.0000 0.43504  0.57494  0.55911  Biso   1.000  O
  O4330    1.0000 0.44964  0.57235  0.53658  Biso   1.000  O
  O4331    1.0000 0.43372  0.58021  0.61543  Biso   1.000  O
  O4332    1.0000 0.42048  0.59049  0.63667  Biso   1.000  O
  O4333    1.0000 0.83649  0.56391  0.12493  Biso   1.000  O
  O4334    1.0000 0.83174  0.58870  0.13468  Biso   1.000  O
  O4335    1.0000 0.33696  0.55279  0.55253  Biso   1.000  O
  O4336    1.0000 0.35924  0.54487  0.53967  Biso   1.000  O
  O4337    1.0000 0.60345  0.05396  0.71390  Biso   1.000  O
  O4338    1.0000 0.58373  0.03594  0.71785  Biso   1.000  O
  O4339    1.0000 0.31568  0.69975  0.10224  Biso   1.000  O
  O4340    1.0000 0.32486  0.68000  0.08620  Biso   1.000  O
  O4341    1.0000 0.95250  0.68848  0.60053  Biso   1.000  O
  O4342    1.0000 0.93024  0.69179  0.61548  Biso   1.000  O
  O4343    1.0000 0.39558  0.76606  0.09900  Biso   1.000  O
  O4344    1.0000 0.41430  0.74893  0.10811  Biso   1.000  O
  O4345    1.0000 0.60409  0.54417  0.24709  Biso   1.000  O
  O4346    1.0000 0.59832  0.55722  0.27006  Biso   1.000  O
  O4347    1.0000 0.34354  0.18497  0.57368  Biso   1.000  O
  O4348    1.0000 0.32201  0.19600  0.58568  Biso   1.000  O
  O4349    1.0000 0.96364  0.16511  0.09349  Biso   1.000  O
  O4350    1.0000 0.95191  0.17061  0.11719  Biso   1.000  O
  O4351    1.0000 0.39561  0.26629  0.59904  Biso   1.000  O
  O4352    1.0000 0.41408  0.24889  0.60817  Biso   1.000  O
  O4353    1.0000 0.11117  0.08552  0.24129  Biso   1.000  O
  O4354    1.0000 0.09927  0.10062  0.22233  Biso   1.000  O
  O4355    1.0000 0.82546  0.69748  0.59008  Biso   1.000  O
  O4356    1.0000 0.81366  0.68427  0.61042  Biso   1.000  O
  O4357    1.0000 0.45303  0.68770  0.10133  Biso   1.000  O
  O4358    1.0000 0.43122  0.69092  0.11694  Biso   1.000  O
  O4359    1.0000 0.89342  0.77337  0.58587  Biso   1.000  O
  O4360    1.0000 0.91465  0.76187  0.59792  Biso   1.000  O
  O4361    1.0000 0.08962  0.53482  0.72150  Biso   1.000  O
  O4362    1.0000 0.10621  0.55462  0.71400  Biso   1.000  O
  O4363    1.0000 0.81492  0.18132  0.09882  Biso   1.000  O
  O4364    1.0000 0.81462  0.20546  0.11096  Biso   1.000  O
  O4365    1.0000 0.39864  0.19756  0.58870  Biso   1.000  O
  O4366    1.0000 0.41012  0.19329  0.56464  Biso   1.000  O
  O4367    1.0000 0.89613  0.25935  0.10683  Biso   1.000  O
  O4368    1.0000 0.90700  0.23557  0.11374  Biso   1.000  O
  O4369    1.0000 0.09975  0.19839  0.03735  Biso   1.000  O
  O4370    1.0000 0.07831  0.21366  0.03136  Biso   1.000  O
  O4371    1.0000 0.96880  0.26973  0.02240  Biso   1.000  O
  O4372    1.0000 0.95343  0.25623  0.04000  Biso   1.000  O
  O4373    1.0000 0.83755  0.58568  0.60215  Biso   1.000  O
  O4374    1.0000 0.81779  0.57721  0.61850  Biso   1.000  O
  O4375    1.0000 0.43501  0.58021  0.11915  Biso   1.000  O
  O4376    1.0000 0.40807  0.57962  0.12016  Biso   1.000  O
  O4377    1.0000 0.91261  0.55299  0.69397  Biso   1.000  O
  O4378    1.0000 0.89062  0.54617  0.70810  Biso   1.000  O
  O4379    1.0000 0.10606  0.65955  0.53123  Biso   1.000  O
  O4380    1.0000 0.11531  0.67952  0.51555  Biso   1.000  O
  O4381    1.0000 0.79449  0.06152  0.20433  Biso   1.000  O
  O4382    1.0000 0.81506  0.07890  0.20566  Biso   1.000  O
  O4383    1.0000 0.82335  0.09327  0.12629  Biso   1.000  O
  O4384    1.0000 0.82370  0.08682  0.15247  Biso   1.000  O
  O4385    1.0000 0.42561  0.10481  0.61805  Biso   1.000  O
  O4386    1.0000 0.43436  0.07948  0.62071  Biso   1.000  O
  O4387    1.0000 0.91548  0.01638  0.21944  Biso   1.000  O
  O4388    1.0000 0.60419  0.15552  0.52966  Biso   1.000  O
  O4389    1.0000 0.61302  0.17547  0.51372  Biso   1.000  O
  O4390    1.0000 0.33620  0.58509  0.10307  Biso   1.000  O
  O4391    1.0000 0.31781  0.57733  0.12127  Biso   1.000  O
  O4392    1.0000 0.90780  0.56352  0.62850  Biso   1.000  O
  O4393    1.0000 0.91830  0.58461  0.61541  Biso   1.000  O
  O4394    1.0000 0.41541  0.51618  0.22349  Biso   1.000  O
  O4395    1.0000 0.39618  0.53417  0.21756  Biso   1.000  O
  O4396    1.0000 0.60645  0.65698  0.02979  Biso   1.000  O
  O4397    1.0000 0.61550  0.67727  0.01442  Biso   1.000  O
  O4398    1.0000 0.37978  0.05720  0.60106  Biso   1.000  O
  O4399    1.0000 0.39159  0.07453  0.61808  Biso   1.000  O
  O4400    1.0000 0.38153  0.05120  0.66696  Biso   1.000  O
  O4401    1.0000 0.36232  0.03502  0.67675  Biso   1.000  O
  O4402    1.0000 0.40521  0.18207  0.17502  Biso   1.000  O
  O4403    1.0000 0.39522  0.20684  0.17171  Biso   1.000  O
  O4404    1.0000 0.82540  0.19760  0.63776  Biso   1.000  O
  O4405    1.0000 0.83507  0.20190  0.66261  Biso   1.000  O
  O4406    1.0000 0.33421  0.26649  0.15542  Biso   1.000  O
  O4407    1.0000 0.35720  0.27431  0.16715  Biso   1.000  O
  O4408    1.0000 0.14681  0.14140  0.14790  Biso   1.000  O
  O4409    1.0000 0.14866  0.11456  0.14625  Biso   1.000  O
  O4410    1.0000 0.14555  0.04086  0.02128  Biso   1.000  O
  O4411    1.0000 0.13992  0.06203  0.03702  Biso   1.000  O
  O4412    1.0000 0.45139  0.68619  0.69605  Biso   1.000  O
  O4413    1.0000 0.45011  0.68347  0.72290  Biso   1.000  O
  O4414    1.0000 0.37826  0.65538  0.65628  Biso   1.000  O
  O4415    1.0000 0.39717  0.66637  0.67202  Biso   1.000  O
  O4416    1.0000 0.85094  0.67620  0.12656  Biso   1.000  O
  O4417    1.0000 0.86300  0.68139  0.15016  Biso   1.000  O
  O4418    1.0000 0.31667  0.75419  0.70569  Biso   1.000  O
  O4419    1.0000 0.34129  0.76003  0.71498  Biso   1.000  O
  O4420    1.0000 0.64504  0.54271  0.02073  Biso   1.000  O
  O4421    1.0000 0.64039  0.56440  0.03611  Biso   1.000  O
  O4422    1.0000 0.90574  0.18289  0.67504  Biso   1.000  O
  O4423    1.0000 0.89510  0.20739  0.67169  Biso   1.000  O
  O4424    1.0000 0.32595  0.19761  0.13766  Biso   1.000  O
  O4425    1.0000 0.33539  0.20155  0.16266  Biso   1.000  O
  O4426    1.0000 0.83336  0.26634  0.65433  Biso   1.000  O
  O4427    1.0000 0.85623  0.27456  0.66603  Biso   1.000  O
  O4428    1.0000 0.65457  0.11327  0.65473  Biso   1.000  O
  O4429    1.0000 0.66745  0.11777  0.67813  Biso   1.000  O
  O4430    1.0000 0.64990  0.03866  0.52217  Biso   1.000  O
  O4431    1.0000 0.64073  0.06038  0.53533  Biso   1.000  O
  O4432    1.0000 0.90818  0.68126  0.17494  Biso   1.000  O
  O4433    1.0000 0.89711  0.70568  0.17263  Biso   1.000  O
  O4434    1.0000 0.35010  0.69706  0.65741  Biso   1.000  O
  O4435    1.0000 0.33898  0.69459  0.68193  Biso   1.000  O
  O4436    1.0000 0.83476  0.76456  0.15368  Biso   1.000  O
  O4437    1.0000 0.85702  0.77384  0.16579  Biso   1.000  O
  O4438    1.0000 0.66217  0.60117  0.17308  Biso   1.000  O
  O4439    1.0000 0.66853  0.61854  0.19283  Biso   1.000  O
  O4440    1.0000 0.21230  0.78760  0.77338  Biso   1.000  O
  O4441    1.0000 0.19336  0.79640  0.75627  Biso   1.000  O
  O4442    1.0000 0.55637  0.94957  0.06493  Biso   1.000  O
  O4443    1.0000 0.52950  0.95048  0.06723  Biso   1.000  O
  O4444    1.0000 0.58188  0.90623  0.08663  Biso   1.000  O
  O4445    1.0000 0.60304  0.91999  0.09609  Biso   1.000  O
  O4446    1.0000 0.12945  0.32050  0.07518  Biso   1.000  O
  O4447    1.0000 0.12443  0.34691  0.07733  Biso   1.000  O
  O4448    1.0000 0.53924  0.87349  0.02520  Biso   1.000  O
  O4449    1.0000 0.21049  0.28892  0.27665  Biso   1.000  O
  O4450    1.0000 0.19216  0.29703  0.25859  Biso   1.000  O
  O4451    1.0000 0.64285  0.36061  0.55300  Biso   1.000  O
  O4452    1.0000 0.65268  0.37291  0.57494  Biso   1.000  O
  O4453    1.0000 0.59392  0.31860  0.53644  Biso   1.000  O
  O4454    1.0000 0.60272  0.31748  0.51092  Biso   1.000  O
  O4455    1.0000 0.70981  0.78849  0.27531  Biso   1.000  O
  O4456    1.0000 0.69184  0.79668  0.25691  Biso   1.000  O
  O4457    1.0000 0.05604  0.94969  0.56447  Biso   1.000  O
  O4458    1.0000 0.02914  0.95090  0.56650  Biso   1.000  O
  O4459    1.0000 0.12607  0.85232  0.55905  Biso   1.000  O
  O4460    1.0000 0.14623  0.86386  0.57294  Biso   1.000  O
  O4461    1.0000 0.59562  0.36197  0.56560  Biso   1.000  O
  O4462    1.0000 0.59598  0.36968  0.59142  Biso   1.000  O
  O4463    1.0000 0.10802  0.83419  0.50235  Biso   1.000  O
  O4464    1.0000 0.09939  0.85221  0.48419  Biso   1.000  O
  O4465    1.0000 0.70797  0.28882  0.77653  Biso   1.000  O
  O4466    1.0000 0.69029  0.29656  0.75766  Biso   1.000  O
  O4467    1.0000 0.15033  0.36687  0.05346  Biso   1.000  O
  O4468    1.0000 0.15547  0.37747  0.07773  Biso   1.000  O
  O4469    1.0000 0.59984  0.86050  0.06461  Biso   1.000  O
  O4470    1.0000 0.59651  0.86966  0.08979  Biso   1.000  O
  O4471    1.0000 0.09258  0.30695  0.01996  Biso   1.000  O
  O4472    1.0000 0.10610  0.32708  0.03194  Biso   1.000  O
  O4473    1.0000 0.66966  0.51034  0.02465  Biso   1.000  O
  O4474    1.0000 0.66395  0.48412  0.02275  Biso   1.000  O
  O4475    1.0000 0.14298  0.38858  0.67822  Biso   1.000  O
  O4476    1.0000 0.12040  0.39842  0.68941  Biso   1.000  O
  O4477    1.0000 0.07449  0.36248  0.71699  Biso   1.000  O
  O4478    1.0000 0.08355  0.38183  0.70059  Biso   1.000  O
  O4479    1.0000 0.07733  0.58306  0.61611  Biso   1.000  O
  O4480    1.0000 0.05389  0.58885  0.60423  Biso   1.000  O
  O4481    1.0000 0.68474  0.01882  0.53113  Biso   1.000  O
  O4482    1.0000 0.14924  0.88340  0.17372  Biso   1.000  O
  O4483    1.0000 0.13110  0.89602  0.18936  Biso   1.000  O
  O4484    1.0000 0.61844  0.44328  0.18569  Biso   1.000  O
  O4485    1.0000 0.59853  0.43324  0.20087  Biso   1.000  O
  O4486    1.0000 0.10774  0.89005  0.22394  Biso   1.000  O
  O4487    1.0000 0.11292  0.91040  0.24087  Biso   1.000  O
  O4488    1.0000 0.26547  0.59908  0.55265  Biso   1.000  O
  O4489    1.0000 0.24668  0.59218  0.53464  Biso   1.000  O
  O4490    1.0000 0.15564  0.49706  0.50873  Biso   1.000  O
  O4491    1.0000 0.16350  0.47129  0.51040  Biso   1.000  O
  O4492    1.0000 0.57788  0.33609  0.18382  Biso   1.000  O
  O4493    1.0000 0.57796  0.35069  0.20652  Biso   1.000  O
  O4494    1.0000 0.60196  0.38513  0.21520  Biso   1.000  O
  O4495    1.0000 0.61235  0.39712  0.23701  Biso   1.000  O
  O4496    1.0000 0.16296  0.98312  0.02178  Biso   1.000  O
  O4497    1.0000 0.50398  0.85050  0.71358  Biso   1.000  O
  O4498    1.0000 0.50497  0.83227  0.73342  Biso   1.000  O
  O4499    1.0000 0.64611  0.88781  0.67652  Biso   1.000  O
  O4500    1.0000 0.62676  0.89873  0.69193  Biso   1.000  O
  O4501    1.0000 0.11768  0.44326  0.68491  Biso   1.000  O
  O4502    1.0000 0.09848  0.43269  0.70075  Biso   1.000  O
  O4503    1.0000 0.58622  0.89460  0.77421  Biso   1.000  O
  O4504    1.0000 0.59793  0.91624  0.76313  Biso   1.000  O
  O4505    1.0000 0.64902  0.81591  0.57026  Biso   1.000  O
  O4506    1.0000 0.63814  0.81571  0.54553  Biso   1.000  O
  O4507    1.0000 0.64607  0.89626  0.48760  Biso   1.000  O
  O4508    1.0000 0.63870  0.91254  0.50789  Biso   1.000  O
  O4509    1.0000 0.70235  0.08593  0.62677  Biso   1.000  O
  O4510    1.0000 0.68843  0.08865  0.64977  Biso   1.000  O
  O4511    1.0000 0.06991  0.45496  0.75798  Biso   1.000  O
  O4512    1.0000 0.08943  0.47195  0.76563  Biso   1.000  O
  O4513    1.0000 0.74841  0.35156  0.03728  Biso   1.000  O
  O4514    1.0000 0.72899  0.37008  0.03455  Biso   1.000  O
  O4515    1.0000 0.67536  0.33972  0.06879  Biso   1.000  O
  O4516    1.0000 0.67358  0.35327  0.04553  Biso   1.000  O
  O4517    1.0000 0.12359  0.94391  0.09102  Biso   1.000  O
  O4518    1.0000 0.12766  0.93388  0.11578  Biso   1.000  O
  O4519    1.0000 0.63693  0.41163  0.00630  Biso   1.000  O
  O4520    1.0000 0.70857  0.58844  0.12187  Biso   1.000  O
  O4521    1.0000 0.70251  0.59167  0.14799  Biso   1.000  O
  O4522    1.0000 0.58433  0.96894  0.73954  Biso   1.000  O
  O4523    1.0000 0.59375  0.99403  0.74276  Biso   1.000  O
  O4524    1.0000 0.13389  0.81161  0.06221  Biso   1.000  O
  O4525    1.0000 0.15594  0.82065  0.04963  Biso   1.000  O
  O4526    1.0000 0.62238  0.42316  0.07060  Biso   1.000  O
  O4527    1.0000 0.61630  0.42098  0.09684  Biso   1.000  O
  O4528    1.0000 0.20450  0.08768  0.12508  Biso   1.000  O
  O4529    1.0000 0.19539  0.09139  0.15024  Biso   1.000  O
  O4530    1.0000 0.57394  0.45725  0.25593  Biso   1.000  O
  O4531    1.0000 0.59158  0.47758  0.25802  Biso   1.000  O
  O4532    1.0000 0.25265  0.33708  0.53731  Biso   1.000  O
  O4533    1.0000 0.23966  0.35558  0.52248  Biso   1.000  O
  O4534    1.0000 0.13461  0.31145  0.56507  Biso   1.000  O
  O4535    1.0000 0.15577  0.32106  0.55144  Biso   1.000  O
  O4536    1.0000 0.16277  0.39291  0.47701  Biso   1.000  O
  O4537    1.0000 0.15002  0.41401  0.48800  Biso   1.000  O
  O4538    1.0000 0.20716  0.58781  0.62167  Biso   1.000  O
  O4539    1.0000 0.20028  0.59086  0.64761  Biso   1.000  O
  O4540    1.0000 0.52501  0.28069  0.48230  Biso   1.000  O
  O4541    1.0000 0.51819  0.27274  0.50723  Biso   1.000  O
  O4542    1.0000 0.21776  0.44815  0.17910  Biso   1.000  O
  O4543    1.0000 0.19141  0.44217  0.17972  Biso   1.000  O
  O4544    1.0000 0.10383  0.36463  0.17671  Biso   1.000  O
  O4545    1.0000 0.12247  0.35296  0.19246  Biso   1.000  O
  O4546    1.0000 0.14320  0.33472  0.25367  Biso   1.000  O
  O4547    1.0000 0.15273  0.35433  0.26958  Biso   1.000  O
  O4548    1.0000 0.52147  0.77839  0.98581  Biso   1.000  O
  O4549    1.0000 0.14564  0.91590  0.65353  Biso   1.000  O
  O4550    1.0000 0.13182  0.93375  0.66827  Biso   1.000  O
  O4551    1.0000 0.15148  0.83361  0.76365  Biso   1.000  O
  O4552    1.0000 0.16384  0.85526  0.77403  Biso   1.000  O
  O4553    1.0000 0.71826  0.44805  0.67835  Biso   1.000  O
  O4554    1.0000 0.69173  0.44299  0.67918  Biso   1.000  O
  O4555    1.0000 0.60309  0.36508  0.67574  Biso   1.000  O
  O4556    1.0000 0.62161  0.35376  0.69187  Biso   1.000  O
  O4557    1.0000 0.11673  0.84309  0.66917  Biso   1.000  O
  O4558    1.0000 0.13443  0.84817  0.68882  Biso   1.000  O
  O4559    1.0000 0.64259  0.33487  0.75314  Biso   1.000  O
  O4560    1.0000 0.65221  0.35471  0.76870  Biso   1.000  O
  O4561    1.0000 0.02117  0.77925  0.48465  Biso   1.000  O
  O4562    1.0000 0.01681  0.77137  0.51013  Biso   1.000  O
  O4563    1.0000 0.65499  0.87579  0.15628  Biso   1.000  O
  O4564    1.0000 0.67193  0.89313  0.16788  Biso   1.000  O
  O4565    1.0000 0.64130  0.83527  0.24775  Biso   1.000  O
  O4566    1.0000 0.65045  0.85283  0.26614  Biso   1.000  O
  O4567    1.0000 0.71193  0.20875  0.75275  Biso   1.000  O
  O4568    1.0000 0.72608  0.22671  0.73850  Biso   1.000  O
  O4569    1.0000 0.06925  0.53073  0.95234  Biso   1.000  O
  O4570    1.0000 0.06739  0.55758  0.95033  Biso   1.000  O
  O4571    1.0000 0.08090  0.61707  0.93743  Biso   1.000  O
  O4572    1.0000 0.09279  0.63616  0.92257  Biso   1.000  O
  O4573    1.0000 0.02267  0.00709  0.39484  Biso   1.000  O
  O4574    1.0000 0.05215  0.09488  0.43230  Biso   1.000  O
  O4575    1.0000 0.06818  0.07937  0.41710  Biso   1.000  O
  O4576    1.0000 0.02905  0.03109  0.35722  Biso   1.000  O
  O4577    1.0000 0.01615  0.02564  0.33412  Biso   1.000  O
  O4578    1.0000 0.14357  0.04916  0.16145  Biso   1.000  O
  O4579    1.0000 0.13175  0.07251  0.16804  Biso   1.000  O
  O4580    1.0000 0.21152  0.20867  0.25172  Biso   1.000  O
  O4581    1.0000 0.22622  0.22688  0.23831  Biso   1.000  O
  O4582    1.0000 0.53878  0.50330  0.39545  Biso   1.000  O
  O4583    1.0000 0.54122  0.52524  0.37984  Biso   1.000  O
  O4584    1.0000 0.56234  0.62994  0.35628  Biso   1.000  O
  O4585    1.0000 0.57258  0.65050  0.37046  Biso   1.000  O
  O4586    1.0000 0.50215  0.60932  0.33600  Biso   1.000  O
  O4587    1.0000 0.48441  0.60058  0.35438  Biso   1.000  O
  O4588    1.0000 0.52055  0.00775  0.89658  Biso   1.000  O
  O4589    1.0000 0.57890  0.12648  0.93162  Biso   1.000  O
  O4590    1.0000 0.59414  0.10855  0.91846  Biso   1.000  O
  O4591    1.0000 0.54535  0.04024  0.86150  Biso   1.000  O
  O4592    1.0000 0.55347  0.05185  0.83858  Biso   1.000  O
  O4593    1.0000 0.64162  0.04673  0.65872  Biso   1.000  O
  O4594    1.0000 0.63099  0.06987  0.66767  Biso   1.000  O
  O4595    1.0000 0.03352  0.74428  0.59647  Biso   1.000  O
  O4596    1.0000 0.04824  0.76683  0.59908  Biso   1.000  O
  O4597    1.0000 0.03819  0.71143  0.49811  Biso   1.000  O
  O4598    1.0000 0.02251  0.72989  0.50988  Biso   1.000  O
  O4599    1.0000 0.67531  0.14965  0.38082  Biso   1.000  O
  O4600    1.0000 0.69438  0.13543  0.39360  Biso   1.000  O
  O4601    1.0000 0.65581  0.62661  0.94398  Biso   1.000  O
  O4602    1.0000 0.63172  0.62236  0.93260  Biso   1.000  O
  O4603    1.0000 0.69938  0.08595  0.38288  Biso   1.000  O
  O4604    1.0000 0.71545  0.07549  0.36389  Biso   1.000  O
  O4605    1.0000 0.03659  0.24480  0.09253  Biso   1.000  O
  O4606    1.0000 0.05494  0.26300  0.10039  Biso   1.000  O
  O4607    1.0000 0.67496  0.64951  0.88019  Biso   1.000  O
  O4608    1.0000 0.69454  0.63588  0.89282  Biso   1.000  O
  O4609    1.0000 0.65427  0.12663  0.44411  Biso   1.000  O
  O4610    1.0000 0.63044  0.12196  0.43234  Biso   1.000  O
  O4611    1.0000 0.69884  0.58519  0.88335  Biso   1.000  O
  O4612    1.0000 0.71479  0.57500  0.86412  Biso   1.000  O
  O4613    1.0000 0.54751  0.74650  0.10782  Biso   1.000  O
  O4614    1.0000 0.55998  0.76900  0.09965  Biso   1.000  O
  O4615    1.0000 0.17124  0.15646  0.85559  Biso   1.000  O
  O4616    1.0000 0.19366  0.15648  0.87060  Biso   1.000  O
  O4617    1.0000 0.18589  0.61230  0.39527  Biso   1.000  O
  O4618    1.0000 0.16995  0.63048  0.40732  Biso   1.000  O
  O4619    1.0000 0.19875  0.08406  0.88238  Biso   1.000  O
  O4620    1.0000 0.21553  0.07424  0.86371  Biso   1.000  O
  O4621    1.0000 0.54507  0.24664  0.60510  Biso   1.000  O
  O4622    1.0000 0.55827  0.26906  0.59787  Biso   1.000  O
  O4623    1.0000 0.17280  0.65428  0.37218  Biso   1.000  O
  O4624    1.0000 0.19676  0.64850  0.38306  Biso   1.000  O
  O4625    1.0000 0.17687  0.12821  0.92599  Biso   1.000  O
  O4626    1.0000 0.15081  0.13341  0.92136  Biso   1.000  O
  O4627    1.0000 0.19805  0.57509  0.38182  Biso   1.000  O
  O4628    1.0000 0.21757  0.57349  0.36336  Biso   1.000  O
  O4629    1.0000 0.19752  0.01406  0.11174  Biso   1.000  O
  O4630    1.0000 0.17553  0.02967  0.11190  Biso   1.000  O
  O4631    1.0000 0.59493  0.65499  0.87106  Biso   1.000  O
  O4632    1.0000 0.58518  0.67100  0.85171  Biso   1.000  O
  O4633    1.0000 0.52238  0.71944  0.91257  Biso   1.000  O
  O4634    1.0000 0.49562  0.71661  0.91072  Biso   1.000  O
  O4635    1.0000 0.55361  0.21046  0.29199  Biso   1.000  O
  O4636    1.0000 0.55413  0.23579  0.30125  Biso   1.000  O
  O4637    1.0000 0.59810  0.14634  0.33041  Biso   1.000  O
  O4638    1.0000 0.58752  0.16637  0.34519  Biso   1.000  O
  O4639    1.0000 0.47857  0.19620  0.42195  Biso   1.000  O
  O4640    1.0000 0.49457  0.18488  0.44051  Biso   1.000  O
  O4641    1.0000 0.69575  0.01631  0.61242  Biso   1.000  O
  O4642    1.0000 0.67319  0.03103  0.61139  Biso   1.000  O
  O4643    1.0000 0.09492  0.65518  0.37133  Biso   1.000  O
  O4644    1.0000 0.08499  0.67081  0.35175  Biso   1.000  O
  O4645    1.0000 0.02226  0.71943  0.41243  Biso   1.000  O
  O4646    1.0000 0.69597  0.51552  0.11232  Biso   1.000  O
  O4647    1.0000 0.67359  0.53060  0.11219  Biso   1.000  O
  O4648    1.0000 0.05272  0.21125  0.79202  Biso   1.000  O
  O4649    1.0000 0.05313  0.23668  0.80106  Biso   1.000  O
  O4650    1.0000 0.02961  0.10959  0.83763  Biso   1.000  O
  O4651    1.0000 0.04012  0.09773  0.85946  Biso   1.000  O
  O4652    1.0000 0.00673  0.13747  0.91149  Biso   1.000  O
  O4653    1.0000 0.13070  0.17517  0.08362  Biso   1.000  O
  O4654    1.0000 0.14146  0.19871  0.09119  Biso   1.000  O
  O4655    1.0000 0.55665  0.51758  0.14008  Biso   1.000  O
  O4656    1.0000 0.54644  0.53643  0.15651  Biso   1.000  O
  O4657    1.0000 0.48231  0.52683  0.28414  Biso   1.000  O
  O4658    1.0000 0.50634  0.51884  0.27486  Biso   1.000  O
  O4659    1.0000 0.18547  0.19448  0.45129  Biso   1.000  O
  O4660    1.0000 0.18277  0.22133  0.45113  Biso   1.000  O
  O4661    1.0000 0.15653  0.15580  0.37596  Biso   1.000  O
  O4662    1.0000 0.16647  0.17166  0.39538  Biso   1.000  O
  O4663    1.0000 0.22854  0.15488  0.30869  Biso   1.000  O
  O4664    1.0000 0.21549  0.14418  0.32988  Biso   1.000  O
  O4665    1.0000 0.53201  0.03413  0.68616  Biso   1.000  O
  O4666    1.0000 0.55158  0.05107  0.69360  Biso   1.000  O
  O4667    1.0000 0.48184  0.02616  0.78404  Biso   1.000  O
  O4668    1.0000 0.50577  0.01834  0.77433  Biso   1.000  O
  O4669    1.0000 0.19809  0.70977  0.95828  Biso   1.000  O
  O4670    1.0000 0.19813  0.73519  0.94926  Biso   1.000  O
  O4671    1.0000 0.18304  0.67632  0.90398  Biso   1.000  O
  O4672    1.0000 0.20703  0.67273  0.89223  Biso   1.000  O
  O4673    1.0000 0.23494  0.72318  0.83387  Biso   1.000  O
  O4674    1.0000 0.22420  0.71847  0.85819  Biso   1.000  O
  O4675    1.0000 0.09599  0.52716  0.64811  Biso   1.000  O
  O4676    1.0000 0.07960  0.50840  0.63774  Biso   1.000  O
  O4677    1.0000 0.69755  0.21035  0.95895  Biso   1.000  O
  O4678    1.0000 0.69708  0.23560  0.94947  Biso   1.000  O
  O4679    1.0000 0.65202  0.14588  0.91804  Biso   1.000  O
  O4680    1.0000 0.66193  0.16546  0.90222  Biso   1.000  O
  O4681    1.0000 0.73252  0.15893  0.80682  Biso   1.000  O
  O4682    1.0000 0.72368  0.14268  0.82654  Biso   1.000  O
  O4683    1.0000 0.05092  0.05075  0.19327  Biso   1.000  O
  O4684    1.0000 0.03178  0.03323  0.18602  Biso   1.000  O
  O4685    1.0000 0.98588  0.01541  0.27317  Biso   1.000  O
  O4686    1.0000 0.99329  0.03306  0.29228  Biso   1.000  O
  O4687    1.0000 0.72453  0.74137  0.39137  Biso   1.000  O
  O4688    1.0000 0.71452  0.75435  0.41293  Biso   1.000  O
  O4689    1.0000 0.70996  0.62140  0.36061  Biso   1.000  O
  O4690    1.0000 0.71588  0.64679  0.36732  Biso   1.000  O
  O4691    1.0000 0.74087  0.70429  0.37959  Biso   1.000  O
  O4692    1.0000 0.75547  0.71755  0.36121  Biso   1.000  O
  O4693    1.0000 0.97698  0.50979  0.33365  Biso   1.000  O
  O4694    1.0000 0.30169  0.70803  0.96074  Biso   1.000  O
  O4695    1.0000 0.30234  0.69876  0.98610  Biso   1.000  O
  O4696    1.0000 0.34515  0.62637  0.90599  Biso   1.000  O
  O4697    1.0000 0.33422  0.64508  0.92200  Biso   1.000  O
  O4698    1.0000 0.34635  0.07799  0.36561  Biso   1.000  O
  O4699    1.0000 0.32018  0.07512  0.37154  Biso   1.000  O
  O4700    1.0000 0.26034  0.58909  0.88526  Biso   1.000  O
  O4701    1.0000 0.23865  0.60333  0.89283  Biso   1.000  O
  O4702    1.0000 0.97613  0.01260  0.83312  Biso   1.000  O
  O4703    1.0000 0.30656  0.12494  0.34531  Biso   1.000  O
  O4704    1.0000 0.32797  0.14115  0.34290  Biso   1.000  O
  O4705    1.0000 0.25766  0.08871  0.38639  Biso   1.000  O
  O4706    1.0000 0.23675  0.10327  0.39538  Biso   1.000  O
  O4707    1.0000 0.43736  0.39359  0.74608  Biso   1.000  O
  O4708    1.0000 0.45669  0.41176  0.74124  Biso   1.000  O
  O4709    1.0000 0.47581  0.50979  0.83143  Biso   1.000  O
  O4710    1.0000 0.49986  0.51373  0.84296  Biso   1.000  O
  O4711    1.0000 0.81163  0.70527  0.45263  Biso   1.000  O
  O4712    1.0000 0.80804  0.70369  0.47933  Biso   1.000  O
  O4713    1.0000 0.79436  0.68598  0.38436  Biso   1.000  O
  O4714    1.0000 0.81987  0.68873  0.39269  Biso   1.000  O
  O4715    1.0000 0.84513  0.07792  0.86564  Biso   1.000  O
  O4716    1.0000 0.81908  0.07528  0.87218  Biso   1.000  O
  O4717    1.0000 0.75010  0.62840  0.45225  Biso   1.000  O
  O4718    1.0000 0.73487  0.60660  0.45679  Biso   1.000  O
  O4719    1.0000 0.89679  0.41232  0.42655  Biso   1.000  O
  O4720    1.0000 0.87619  0.41729  0.44335  Biso   1.000  O
  O4721    1.0000 0.47877  0.01265  0.33421  Biso   1.000  O
  O4722    1.0000 0.50397  0.01667  0.34288  Biso   1.000  O
  O4723    1.0000 0.80604  0.12564  0.84530  Biso   1.000  O
  O4724    1.0000 0.82738  0.14196  0.84300  Biso   1.000  O
  O4725    1.0000 0.75717  0.08834  0.88667  Biso   1.000  O
  O4726    1.0000 0.73642  0.10320  0.89550  Biso   1.000  O
  O4727    1.0000 0.92542  0.12972  0.35071  Biso   1.000  O
  O4728    1.0000 0.94408  0.14202  0.36592  Biso   1.000  O
  O4729    1.0000 0.92097  0.65389  0.87333  Biso   1.000  O
  O4730    1.0000 0.92207  0.68058  0.86951  Biso   1.000  O
  O4731    1.0000 0.97672  0.16049  0.46892  Biso   1.000  O
  O4732    1.0000 0.93821  0.54479  0.95318  Biso   1.000  O
  O4733    1.0000 0.92068  0.56518  0.95503  Biso   1.000  O
  O4734    1.0000 0.92315  0.62459  0.84721  Biso   1.000  O
  O4735    1.0000 0.94695  0.63490  0.85443  Biso   1.000  O
  O4736    1.0000 0.97262  0.67315  0.89272  Biso   1.000  O
  O4737    1.0000 0.98187  0.69275  0.90887  Biso   1.000  O
  O4738    1.0000 0.48128  0.10039  0.99158  Biso   1.000  O
  O4739    1.0000 0.42900  0.14403  0.86826  Biso   1.000  O
  O4740    1.0000 0.43272  0.14498  0.89502  Biso   1.000  O
  O4741    1.0000 0.42606  0.64295  0.38750  Biso   1.000  O
  O4742    1.0000 0.43172  0.66621  0.37505  Biso   1.000  O
  O4743    1.0000 0.48175  0.16514  0.97195  Biso   1.000  O
  O4744    1.0000 0.46737  0.14269  0.96834  Biso   1.000  O
  O4745    1.0000 0.44033  0.54529  0.45482  Biso   1.000  O
  O4746    1.0000 0.42220  0.56521  0.45536  Biso   1.000  O
  O4747    1.0000 0.42236  0.62014  0.34493  Biso   1.000  O
  O4748    1.0000 0.44620  0.63160  0.35014  Biso   1.000  O
  O4749    1.0000 0.47035  0.67285  0.39545  Biso   1.000  O
  O4750    1.0000 0.48100  0.69262  0.41049  Biso   1.000  O
  O4751    1.0000 0.82507  0.62944  0.90057  Biso   1.000  O
  O4752    1.0000 0.80612  0.64198  0.88595  Biso   1.000  O
  O4753    1.0000 0.79962  0.17905  0.34913  Biso   1.000  O
  O4754    1.0000 0.81301  0.18893  0.37047  Biso   1.000  O
  O4755    1.0000 0.79889  0.66020  0.84585  Biso   1.000  O
  O4756    1.0000 0.78493  0.68326  0.84689  Biso   1.000  O
  O4757    1.0000 0.50432  0.23010  0.90624  Biso   1.000  O
  O4758    1.0000 0.47899  0.23487  0.91420  Biso   1.000  O
  O4759    1.0000 0.81085  0.04533  0.29617  Biso   1.000  O
  O4760    1.0000 0.82870  0.06547  0.29531  Biso   1.000  O
  O4761    1.0000 0.82431  0.13138  0.39999  Biso   1.000  O
  O4762    1.0000 0.80820  0.14417  0.38241  Biso   1.000  O
  O4763    1.0000 0.76304  0.17683  0.35960  Biso   1.000  O
  O4764    1.0000 0.76119  0.19489  0.33966  Biso   1.000  O
  O4765    1.0000 0.32414  0.63541  0.39679  Biso   1.000  O
  O4766    1.0000 0.30866  0.64658  0.37761  Biso   1.000  O
  O4767    1.0000 0.30117  0.18638  0.85300  Biso   1.000  O
  O4768    1.0000 0.31899  0.19616  0.87080  Biso   1.000  O
  O4769    1.0000 0.26172  0.68121  0.35392  Biso   1.000  O
  O4770    1.0000 0.28725  0.68115  0.34523  Biso   1.000  O
  O4771    1.0000 0.97776  0.23660  0.41536  Biso   1.000  O
  O4772    1.0000 0.30034  0.13590  0.84276  Biso   1.000  O
  O4773    1.0000 0.28861  0.11359  0.83324  Biso   1.000  O
  O4774    1.0000 0.26685  0.17548  0.86082  Biso   1.000  O
  O4775    1.0000 0.26238  0.19356  0.84131  Biso   1.000  O
  O4776    1.0000 0.75097  0.01326  0.90663  Biso   1.000  O
  O4777    1.0000 0.77491  0.00979  0.91853  Biso   1.000  O
  O4778    1.0000 0.43381  0.20097  0.27461  Biso   1.000  O
  O4779    1.0000 0.43880  0.20542  0.30075  Biso   1.000  O
  O4780    1.0000 0.45491  0.18495  0.35869  Biso   1.000  O
  O4781    1.0000 0.43263  0.18220  0.34362  Biso   1.000  O
  O4782    1.0000 0.43723  0.58951  0.87052  Biso   1.000  O
  O4783    1.0000 0.41435  0.58271  0.88326  Biso   1.000  O
  O4784    1.0000 0.49476  0.08913  0.36189  Biso   1.000  O
  O4785    1.0000 0.51501  0.10434  0.35257  Biso   1.000  O
  O4786    1.0000 0.36587  0.90033  0.35393  Biso   1.000  O
  O4787    1.0000 0.39264  0.89848  0.35120  Biso   1.000  O
  O4788    1.0000 0.75002  0.51227  0.40490  Biso   1.000  O
  O4789    1.0000 0.77395  0.50889  0.41690  Biso   1.000  O
  O4790    1.0000 0.45982  0.68413  0.86819  Biso   1.000  O
  O4791    1.0000 0.43456  0.68885  0.86006  Biso   1.000  O
  O4792    1.0000 0.43662  0.09164  0.37215  Biso   1.000  O
  O4793    1.0000 0.41390  0.08372  0.38454  Biso   1.000  O
  O4794    1.0000 0.51184  0.60869  0.78666  Biso   1.000  O
  O4795    1.0000 0.49764  0.62983  0.79550  Biso   1.000  O
  O4796    1.0000 0.35450  0.40869  0.80098  Biso   1.000  O
  O4797    1.0000 0.36593  0.41651  0.82412  Biso   1.000  O
  O4798    1.0000 0.24981  0.01336  0.40670  Biso   1.000  O
  O4799    1.0000 0.27417  0.00989  0.41775  Biso   1.000  O
  O4800    1.0000 0.93332  0.20233  0.77521  Biso   1.000  O
  O4801    1.0000 0.93857  0.20676  0.80129  Biso   1.000  O
  O4802    1.0000 0.95434  0.18484  0.85847  Biso   1.000  O
  O4803    1.0000 0.93203  0.18277  0.84337  Biso   1.000  O
  O4804    1.0000 0.96611  0.13742  0.82213  Biso   1.000  O
  O4805    1.0000 0.94973  0.11844  0.83206  Biso   1.000  O
  O4806    1.0000 0.86219  0.90265  0.85350  Biso   1.000  O
  O4807    1.0000 0.88909  0.90017  0.85320  Biso   1.000  O
  O4808    1.0000 0.23726  0.52602  0.91185  Biso   1.000  O
  O4809    1.0000 0.24495  0.54394  0.93050  Biso   1.000  O
  O4810    1.0000 0.96043  0.68257  0.37107  Biso   1.000  O
  O4811    1.0000 0.93470  0.68837  0.36560  Biso   1.000  O
  O4812    1.0000 0.93375  0.08476  0.87442  Biso   1.000  O
  O4813    1.0000 0.90868  0.08067  0.88371  Biso   1.000  O
  O4814    1.0000 0.99122  0.59070  0.36417  Biso   1.000  O
  O4815    1.0000 0.85702  0.41117  0.32942  Biso   1.000  O
  O4816    1.0000 0.86913  0.41563  0.30574  Biso   1.000  O
  O4817    1.0000 0.03446  0.97398  0.73111  Biso   1.000  O
  O4818    1.0000 0.02578  0.98163  0.75550  Biso   1.000  O
  O4819    1.0000 0.18575  0.37073  0.42280  Biso   1.000  O
  O4820    1.0000 0.17029  0.38863  0.40980  Biso   1.000  O
  O4821    1.0000 0.59335  0.88081  0.41919  Biso   1.000  O
  O4822    1.0000 0.60021  0.86322  0.43835  Biso   1.000  O
  O4823    1.0000 0.10534  0.33772  0.52398  Biso   1.000  O
  O4824    1.0000 0.08524  0.35032  0.51107  Biso   1.000  O
  O4825    1.0000 0.18501  0.86476  0.91834  Biso   1.000  O
  O4826    1.0000 0.17198  0.88568  0.90729  Biso   1.000  O
  O4827    1.0000 0.62204  0.34669  0.91032  Biso   1.000  O
  O4828    1.0000 0.61292  0.34572  0.93569  Biso   1.000  O
  O4829    1.0000 0.39041  0.98465  0.30299  Biso   1.000  O
  O4830    1.0000 0.39075  0.96648  0.32293  Biso   1.000  O
  O4831    1.0000 0.68624  0.36618  0.92032  Biso   1.000  O
  O4832    1.0000 0.67222  0.38585  0.90837  Biso   1.000  O
  O4833    1.0000 0.08673  0.88284  0.91709  Biso   1.000  O
  O4834    1.0000 0.09362  0.86906  0.93927  Biso   1.000  O
  O4835    1.0000 0.40788  0.30368  0.85399  Biso   1.000  O
  O4836    1.0000 0.41240  0.32757  0.86555  Biso   1.000  O
  O4837    1.0000 0.38950  0.50733  0.81849  Biso   1.000  O
  O4838    1.0000 0.40726  0.52455  0.82925  Biso   1.000  O
  O4839    1.0000 0.54641  0.44355  0.74084  Biso   1.000  O
  O4840    1.0000 0.53642  0.46440  0.72690  Biso   1.000  O
  O4841    1.0000 0.68490  0.85911  0.45506  Biso   1.000  O
  O4842    1.0000 0.68272  0.84618  0.43143  Biso   1.000  O
  O4843    1.0000 0.12208  0.34586  0.40841  Biso   1.000  O
  O4844    1.0000 0.11425  0.34214  0.43393  Biso   1.000  O
  O4845    1.0000 0.60384  0.85132  0.51543  Biso   1.000  O
  O4846    1.0000 0.58602  0.85962  0.49690  Biso   1.000  O
  O4847    1.0000 0.72645  0.48182  0.49356  Biso   1.000  O
  O4848    1.0000 0.71780  0.47564  0.51837  Biso   1.000  O
  O4849    1.0000 0.63766  0.89790  0.80471  Biso   1.000  O
  O4850    1.0000 0.62604  0.90427  0.82822  Biso   1.000  O
  O4851    1.0000 0.15896  0.37273  0.81179  Biso   1.000  O
  O4852    1.0000 0.16551  0.38490  0.83502  Biso   1.000  O
  O4853    1.0000 0.69392  0.82244  0.74628  Biso   1.000  O
  O4854    1.0000 0.68244  0.84672  0.74377  Biso   1.000  O
  O4855    1.0000 0.85305  0.85605  0.88500  Biso   1.000  O
  O4856    1.0000 0.85202  0.85153  0.85844  Biso   1.000  O
  O4857    1.0000 0.71857  0.97474  0.01862  Biso   1.000  O
  O4858    1.0000 0.64768  0.37516  0.30776  Biso   1.000  O
  O4859    1.0000 0.63697  0.39559  0.32181  Biso   1.000  O
  O4860    1.0000 0.14583  0.85902  0.31594  Biso   1.000  O
  O4861    1.0000 0.15848  0.87887  0.32933  Biso   1.000  O
  O4862    1.0000 0.64241  0.33436  0.22545  Biso   1.000  O
  O4863    1.0000 0.66406  0.34694  0.23545  Biso   1.000  O
  O4864    1.0000 0.13954  0.89756  0.30393  Biso   1.000  O
  O4865    1.0000 0.12737  0.90436  0.32702  Biso   1.000  O
  O4866    1.0000 0.19393  0.82037  0.24718  Biso   1.000  O
  O4867    1.0000 0.18219  0.84461  0.24556  Biso   1.000  O
  O4868    1.0000 0.35385  0.85604  0.38495  Biso   1.000  O
  O4869    1.0000 0.35259  0.85140  0.35842  Biso   1.000  O
  O4870    1.0000 0.06465  0.36860  0.83030  Biso   1.000  O
  O4871    1.0000 0.07896  0.38875  0.84114  Biso   1.000  O
  O4872    1.0000 0.64404  0.85840  0.81627  Biso   1.000  O
  O4873    1.0000 0.65722  0.87849  0.82875  Biso   1.000  O
  O4874    1.0000 0.19173  0.32211  0.74720  Biso   1.000  O
  O4875    1.0000 0.17982  0.34629  0.74861  Biso   1.000  O
  O4876    1.0000 0.13329  0.35265  0.92716  Biso   1.000  O
  O4877    1.0000 0.14468  0.37466  0.93788  Biso   1.000  O
  O4878    1.0000 0.13071  0.84786  0.42408  Biso   1.000  O
  O4879    1.0000 0.14267  0.86199  0.44381  Biso   1.000  O
  O4880    1.0000 0.18275  0.95488  0.50446  Biso   1.000  O
  O4881    1.0000 0.15796  0.96430  0.50958  Biso   1.000  O
  O4882    1.0000 0.34099  0.94641  0.35209  Biso   1.000  O
  O4883    1.0000 0.33883  0.95639  0.37713  Biso   1.000  O
  O4884    1.0000 0.58452  0.49709  0.48101  Biso   1.000  O
  O4885    1.0000 0.60348  0.49450  0.46195  Biso   1.000  O
  O4886    1.0000 0.62917  0.35024  0.42491  Biso   1.000  O
  O4887    1.0000 0.64242  0.36655  0.44198  Biso   1.000  O
  O4888    1.0000 0.61718  0.45344  0.49309  Biso   1.000  O
  O4889    1.0000 0.63618  0.46408  0.50902  Biso   1.000  O
  O4890    1.0000 0.63192  0.84819  0.92485  Biso   1.000  O
  O4891    1.0000 0.64368  0.86207  0.94484  Biso   1.000  O
  O4892    1.0000 0.39294  0.27866  0.90997  Biso   1.000  O
  O4893    1.0000 0.38812  0.26563  0.93315  Biso   1.000  O
  O4894    1.0000 0.53884  0.29057  0.02490  Biso   1.000  O
  O4895    1.0000 0.54694  0.30900  0.00691  Biso   1.000  O
  O4896    1.0000 0.64668  0.99107  0.27108  Biso   1.000  O
  O4897    1.0000 0.68540  0.89968  0.30212  Biso   1.000  O
  O4898    1.0000 0.67277  0.91526  0.32023  Biso   1.000  O
  O4899    1.0000 0.56934  0.95697  0.24678  Biso   1.000  O
  O4900    1.0000 0.59431  0.96694  0.24425  Biso   1.000  O
  O4901    1.0000 0.39676  0.78009  0.40749  Biso   1.000  O
  O4902    1.0000 0.38766  0.76321  0.42650  Biso   1.000  O
  O4903    1.0000 0.52109  0.83908  0.48266  Biso   1.000  O
  O4904    1.0000 0.49419  0.83786  0.48019  Biso   1.000  O
  O4905    1.0000 0.64111  0.48988  0.77328  Biso   1.000  O
  O4906    1.0000 0.66126  0.50328  0.78533  Biso   1.000  O
  O4907    1.0000 0.68129  0.40922  0.80368  Biso   1.000  O
  O4908    1.0000 0.66176  0.42419  0.81490  Biso   1.000  O
  O4909    1.0000 0.57057  0.39401  0.76046  Biso   1.000  O
  O4910    1.0000 0.57015  0.40437  0.78534  Biso   1.000  O
  O4911    1.0000 0.89540  0.27963  0.40750  Biso   1.000  O
  O4912    1.0000 0.88720  0.26392  0.42789  Biso   1.000  O
  O4913    1.0000 0.04028  0.29029  0.52470  Biso   1.000  O
  O4914    1.0000 0.04826  0.30859  0.50652  Biso   1.000  O
  O4915    1.0000 0.19868  0.96480  0.82367  Biso   1.000  O
  O4916    1.0000 0.18901  0.93960  0.82510  Biso   1.000  O
  O4917    1.0000 0.16758  0.85784  0.84156  Biso   1.000  O
  O4918    1.0000 0.18503  0.87290  0.82753  Biso   1.000  O
  O4919    1.0000 0.07001  0.89864  0.75735  Biso   1.000  O
  O4920    1.0000 0.06866  0.90534  0.78347  Biso   1.000  O
  O4921    1.0000 0.89740  0.78080  0.90547  Biso   1.000  O
  O4922    1.0000 0.88663  0.76287  0.92252  Biso   1.000  O
  O4923    1.0000 0.01913  0.83764  0.98133  Biso   1.000  O
  O4924    1.0000 0.13964  0.48914  0.27539  Biso   1.000  O
  O4925    1.0000 0.16040  0.50298  0.28580  Biso   1.000  O
  O4926    1.0000 0.18174  0.40898  0.30444  Biso   1.000  O
  O4927    1.0000 0.16233  0.42369  0.31617  Biso   1.000  O
  O4928    1.0000 0.06980  0.39377  0.26049  Biso   1.000  O
  O4929    1.0000 0.06960  0.40391  0.28547  Biso   1.000  O
  O4930    1.0000 0.74692  0.78577  0.59078  Biso   1.000  O
  O4931    1.0000 0.76126  0.77491  0.61103  Biso   1.000  O
  O4932    1.0000 0.87566  0.82940  0.56692  Biso   1.000  O
  O4933    1.0000 0.85922  0.84500  0.58155  Biso   1.000  O
  O4934    1.0000 0.85864  0.77555  0.67118  Biso   1.000  O
  O4935    1.0000 0.84345  0.76630  0.69157  Biso   1.000  O
  O4936    1.0000 0.45021  0.94888  0.30833  Biso   1.000  O
  O4937    1.0000 0.46787  0.96830  0.31438  Biso   1.000  O
  O4938    1.0000 0.41331  0.97454  0.24265  Biso   1.000  O
  O4939    1.0000 0.42724  0.96890  0.26515  Biso   1.000  O
  O4940    1.0000 0.80673  0.32394  0.06462  Biso   1.000  O
  O4941    1.0000 0.78455  0.31983  0.04975  Biso   1.000  O
  O4942    1.0000 0.84992  0.33791  0.07431  Biso   1.000  O
  O4943    1.0000 0.87641  0.34272  0.07526  Biso   1.000  O
  O4944    1.0000 0.34736  0.29931  0.68057  Biso   1.000  O
  O4945    1.0000 0.36774  0.31379  0.69077  Biso   1.000  O
  O4946    1.0000 0.78543  0.23767  0.16351  Biso   1.000  O
  O4947    1.0000 0.77985  0.26389  0.16612  Biso   1.000  O
  O4948    1.0000 0.97492  0.46024  0.35092  Biso   1.000  O
  O4949    1.0000 0.95904  0.46027  0.32913  Biso   1.000  O
  O4950    1.0000 0.25330  0.78733  0.10763  Biso   1.000  O
  O4951    1.0000 0.27507  0.78724  0.12357  Biso   1.000  O
  O4952    1.0000 0.33592  0.83803  0.09565  Biso   1.000  O
  O4953    1.0000 0.35650  0.84626  0.08012  Biso   1.000  O
  O4954    1.0000 0.35090  0.73293  0.14550  Biso   1.000  O
  O4955    1.0000 0.35946  0.75023  0.16440  Biso   1.000  O
  O4956    1.0000 0.94915  0.94519  0.80420  Biso   1.000  O
  O4957    1.0000 0.96629  0.96574  0.80714  Biso   1.000  O
  O4958    1.0000 0.90638  0.99467  0.73070  Biso   1.000  O
  O4959    1.0000 0.91753  0.97374  0.74380  Biso   1.000  O
  O4960    1.0000 0.24799  0.28633  0.59664  Biso   1.000  O
  O4961    1.0000 0.26525  0.27864  0.61596  Biso   1.000  O
  O4962    1.0000 0.33373  0.33861  0.59844  Biso   1.000  O
  O4963    1.0000 0.35354  0.34745  0.58225  Biso   1.000  O
  O4964    1.0000 0.35788  0.26339  0.67558  Biso   1.000  O
  O4965    1.0000 0.33813  0.26051  0.69370  Biso   1.000  O
  O4966    1.0000 0.97857  0.73160  0.02919  Biso   1.000  O
  O4967    1.0000 0.96034  0.74315  0.04542  Biso   1.000  O
  O4968    1.0000 0.34133  0.44810  0.17730  Biso   1.000  O
  O4969    1.0000 0.36244  0.43514  0.18791  Biso   1.000  O
  O4970    1.0000 0.87758  0.38910  0.56472  Biso   1.000  O
  O4971    1.0000 0.88090  0.41543  0.55977  Biso   1.000  O
  O4972    1.0000 0.28051  0.49556  0.07954  Biso   1.000  O
  O4973    1.0000 0.27698  0.47852  0.10017  Biso   1.000  O
  O4974    1.0000 0.28903  0.36065  0.90325  Biso   1.000  O
  O4975    1.0000 0.28572  0.38735  0.90125  Biso   1.000  O
  O4976    1.0000 0.97185  0.29014  0.40371  Biso   1.000  O
  O4977    1.0000 0.96996  0.31246  0.38867  Biso   1.000  O
  O4978    1.0000 0.98170  0.23174  0.52755  Biso   1.000  O
  O4979    1.0000 0.96384  0.24305  0.54437  Biso   1.000  O
  O4980    1.0000 0.27670  0.93188  0.70034  Biso   1.000  O
  O4981    1.0000 0.30344  0.93498  0.70192  Biso   1.000  O
  O4982    1.0000 0.34055  0.90506  0.65943  Biso   1.000  O
  O4983    1.0000 0.35422  0.91248  0.68146  Biso   1.000  O
  O4984    1.0000 0.28204  0.98433  0.58492  Biso   1.000  O
  O4985    1.0000 0.31739  0.85137  0.41162  Biso   1.000  O
  O4986    1.0000 0.30333  0.87391  0.41629  Biso   1.000  O
  O4987    1.0000 0.49956  0.80256  0.39035  Biso   1.000  O
  O4988    1.0000 0.52210  0.81226  0.40150  Biso   1.000  O
  O4989    1.0000 0.46183  0.72649  0.53953  Biso   1.000  O
  O4990    1.0000 0.44321  0.74415  0.54785  Biso   1.000  O
  O4991    1.0000 0.84325  0.44904  0.67812  Biso   1.000  O
  O4992    1.0000 0.86565  0.43698  0.68706  Biso   1.000  O
  O4993    1.0000 0.37740  0.38980  0.06589  Biso   1.000  O
  O4994    1.0000 0.38034  0.41641  0.06243  Biso   1.000  O
  O4995    1.0000 0.78154  0.49682  0.57935  Biso   1.000  O
  O4996    1.0000 0.77796  0.47868  0.59902  Biso   1.000  O
  O4997    1.0000 0.47343  0.29111  0.90100  Biso   1.000  O
  O4998    1.0000 0.47132  0.31442  0.88758  Biso   1.000  O
  O4999    1.0000 0.48037  0.23223  0.02634  Biso   1.000  O
  O5000    1.0000 0.46222  0.24268  0.04343  Biso   1.000  O
  O5001    1.0000 0.85853  0.90150  0.17084  Biso   1.000  O
  O5002    1.0000 0.83579  0.91467  0.16502  Biso   1.000  O
  O5003    1.0000 0.34362  0.94749  0.59734  Biso   1.000  O
  O5004    1.0000 0.31900  0.94426  0.58677  Biso   1.000  O
  O5005    1.0000 0.81762  0.85206  0.91281  Biso   1.000  O
  O5006    1.0000 0.80357  0.87470  0.91701  Biso   1.000  O
  O5007    1.0000 0.28192  0.92610  0.38900  Biso   1.000  O
  O5008    1.0000 0.26817  0.94926  0.39035  Biso   1.000  O
  O5009    1.0000 0.93692  0.32635  0.67210  Biso   1.000  O
  O5010    1.0000 0.95673  0.32819  0.69027  Biso   1.000  O
  O5011    1.0000 0.87521  0.33034  0.68182  Biso   1.000  O
  O5012    1.0000 0.89118  0.34567  0.66646  Biso   1.000  O
  O5013    1.0000 0.37044  0.32966  0.06524  Biso   1.000  O
  O5014    1.0000 0.37183  0.33029  0.09217  Biso   1.000  O
  O5015    1.0000 0.96669  0.28269  0.60814  Biso   1.000  O
  O5016    1.0000 0.97307  0.26822  0.58627  Biso   1.000  O
  O5017    1.0000 0.30071  0.44335  0.94604  Biso   1.000  O
  O5018    1.0000 0.28495  0.46449  0.94062  Biso   1.000  O
  O5019    1.0000 0.94257  0.82395  0.18521  Biso   1.000  O
  O5020    1.0000 0.96507  0.81919  0.19927  Biso   1.000  O
  O5021    1.0000 0.87170  0.82775  0.18212  Biso   1.000  O
  O5022    1.0000 0.88967  0.84365  0.16983  Biso   1.000  O
  O5023    1.0000 0.96687  0.78093  0.10795  Biso   1.000  O
  O5024    1.0000 0.97231  0.76693  0.08553  Biso   1.000  O
  O5025    1.0000 0.78246  0.92943  0.88835  Biso   1.000  O
  O5026    1.0000 0.76960  0.95298  0.89110  Biso   1.000  O
  O5027    1.0000 0.43934  0.32499  0.17665  Biso   1.000  O
  O5028    1.0000 0.46056  0.32445  0.19321  Biso   1.000  O
  O5029    1.0000 0.37630  0.32969  0.18269  Biso   1.000  O
  O5030    1.0000 0.39215  0.34497  0.16715  Biso   1.000  O
  O5031    1.0000 0.87166  0.33031  0.56424  Biso   1.000  O
  O5032    1.0000 0.87231  0.33081  0.59119  Biso   1.000  O
  O5033    1.0000 0.46594  0.28264  0.10683  Biso   1.000  O
  O5034    1.0000 0.47203  0.26753  0.08531  Biso   1.000  O
  O5035    1.0000 0.78107  0.42953  0.38990  Biso   1.000  O
  O5036    1.0000 0.76956  0.45372  0.39317  Biso   1.000  O
  O5037    1.0000 0.44259  0.81714  0.69737  Biso   1.000  O
  O5038    1.0000 0.46940  0.81802  0.70048  Biso   1.000  O
  O5039    1.0000 0.40689  0.84454  0.63014  Biso   1.000  O
  O5040    1.0000 0.42076  0.83287  0.65008  Biso   1.000  O
  O5041    1.0000 0.46857  0.77994  0.60960  Biso   1.000  O
  O5042    1.0000 0.47452  0.76566  0.58750  Biso   1.000  O
  O5043    1.0000 0.78348  0.28353  0.31767  Biso   1.000  O
  O5044    1.0000 0.80040  0.30198  0.30760  Biso   1.000  O
  O5045    1.0000 0.82955  0.27516  0.26125  Biso   1.000  O
  O5046    1.0000 0.83746  0.27025  0.23588  Biso   1.000  O
  O5047    1.0000 0.34728  0.92170  0.12482  Biso   1.000  O
  O5048    1.0000 0.35398  0.94504  0.13650  Biso   1.000  O
  O5049    1.0000 0.86686  0.90930  0.67375  Biso   1.000  O
  O5050    1.0000 0.87697  0.89624  0.69517  Biso   1.000  O
  O5051    1.0000 0.39514  0.96953  0.13717  Biso   1.000  O
  O5052    1.0000 0.38628  0.98590  0.15671  Biso   1.000  O
  O5053    1.0000 0.78332  0.78066  0.81908  Biso   1.000  O
  O5054    1.0000 0.80052  0.79938  0.81007  Biso   1.000  O
  O5055    1.0000 0.84479  0.75101  0.73891  Biso   1.000  O
  O5056    1.0000 0.83285  0.77495  0.74217  Biso   1.000  O
  O5057    1.0000 0.38096  0.43752  0.56244  Biso   1.000  O
  O5058    1.0000 0.40418  0.44903  0.56997  Biso   1.000  O
  O5059    1.0000 0.87011  0.41892  0.15815  Biso   1.000  O
  O5060    1.0000 0.86947  0.41950  0.18512  Biso   1.000  O
  O5061    1.0000 0.47278  0.48176  0.66387  Biso   1.000  O
  O5062    1.0000 0.46682  0.46585  0.64292  Biso   1.000  O
  O5063    1.0000 0.26684  0.30360  0.86121  Biso   1.000  O
  O5064    1.0000 0.28066  0.32677  0.86054  Biso   1.000  O
  O5065    1.0000 0.84961  0.92316  0.62970  Biso   1.000  O
  O5066    1.0000 0.86243  0.94286  0.64297  Biso   1.000  O
  O5067    1.0000 0.37209  0.91925  0.15442  Biso   1.000  O
  O5068    1.0000 0.37008  0.91996  0.18135  Biso   1.000  O
  O5069    1.0000 0.92055  0.96400  0.61586  Biso   1.000  O
  O5070    1.0000 0.90719  0.95217  0.63615  Biso   1.000  O
  O5071    1.0000 0.28433  0.78144  0.31747  Biso   1.000  O
  O5072    1.0000 0.30146  0.80029  0.30863  Biso   1.000  O
  O5073    1.0000 0.26761  0.75638  0.22405  Biso   1.000  O
  O5074    1.0000 0.26759  0.76705  0.24885  Biso   1.000  O
  O5075    1.0000 0.89094  0.40373  0.08192  Biso   1.000  O
  O5076    1.0000 0.87378  0.41902  0.06781  Biso   1.000  O
  O5077    1.0000 0.36960  0.41964  0.65851  Biso   1.000  O
  O5078    1.0000 0.36880  0.41982  0.68548  Biso   1.000  O
  O5079    1.0000 0.96061  0.45461  0.14155  Biso   1.000  O
  O5080    1.0000 0.94730  0.44737  0.16382  Biso   1.000  O
  O5081    1.0000 0.99758  0.87898  0.59348  Biso   1.000  O
  O5082    1.0000 0.87122  0.15616  0.00686  Biso   1.000  O
  O5083    1.0000 0.15487  0.99954  0.87098  Biso   1.000  O
  O5084    1.0000 0.12774  0.84107  0.00059  Biso   1.000  O
  O5085    1.0000 0.40440  0.00108  0.12272  Biso   1.000  O
  O5086    1.0000 0.90708  0.00044  0.62298  Biso   1.000  O
  C6515    1.0000 0.01199  0.00114  0.78826  Biso   1.000  C
  C6516    1.0000 0.00039  0.01230  0.78832  Biso   1.000  C
  C6517    1.0000 0.79050  0.01329  0.00124  Biso   1.000  C
  C6518    1.0000 0.79005  0.00169  0.01248  Biso   1.000  C
  C6519    1.0000 0.00357  0.79186  0.01419  Biso   1.000  C
  C6520    1.0000 0.01520  0.79191  0.00290  Biso   1.000  C
  H2372    1.0000 0.00307  0.78227  0.02238  Biso   1.000  H
  H2373    1.0000 0.02326  0.78224  0.00248  Biso   1.000  H
  C6521    1.0000 0.20613  0.99515  0.98274  Biso   1.000  C
  C6522    1.0000 0.20648  0.98361  0.99407  Biso   1.000  C
  H2374    1.0000 0.21510  0.99535  0.97390  Biso   1.000  H
  H2375    1.0000 0.21580  0.97511  0.99379  Biso   1.000  H
  C6523    1.0000 0.98513  0.99746  0.18431  Biso   1.000  C
  C6524    1.0000 0.99569  0.98505  0.18436  Biso   1.000  C
  N793     1.0000 0.99510  0.97402  0.17191  Biso   1.000  N
  H2376    1.0000 0.97727  0.99869  0.17458  Biso   1.000  H
  O5087    1.0000 0.99459  0.95866  0.17508  Biso   1.000  O
  O5088    1.0000 0.99169  0.97885  0.15736  Biso   1.000  O
  C6525    1.0000 0.99748  0.20714  0.98536  Biso   1.000  C
  C6526    1.0000 0.98662  0.20822  0.99737  Biso   1.000  C
  N794     1.0000 0.97897  0.22272  0.99963  Biso   1.000  N
  H2377    1.0000 0.99867  0.21690  0.97749  Biso   1.000  H
  O5089    1.0000 0.97269  0.23004  0.98725  Biso   1.000  O
  C6527    1.0000 0.00054  0.10269  0.81360  Biso   1.000  C
  H2378    1.0000 0.01289  0.10500  0.81272  Biso   1.000  H
  C6528    1.0000 0.81655  0.00045  0.10151  Biso   1.000  C
  H2379    1.0000 0.81577  0.01272  0.10412  Biso   1.000  H
  N795     1.0000 0.17259  0.00412  0.45030  Biso   1.000  N
  O5090    1.0000 0.18774  0.00627  0.44686  Biso   1.000  O
  O5091    1.0000 0.16569  0.01402  0.46034  Biso   1.000  O
  N796     1.0000 0.99904  0.77286  0.96620  Biso   1.000  N
  O5092    1.0000 0.99097  0.77199  0.97964  Biso   1.000  O
  N797     1.0000 0.35095  0.59677  0.00080  Biso   1.000  N
  O5093    1.0000 0.35365  0.60420  0.01436  Biso   1.000  O
  N798     1.0000 0.84710  0.09622  0.00624  Biso   1.000  N
  O5094    1.0000 0.85778  0.08510  0.00340  Biso   1.000  O
  O5095    1.0000 0.84874  0.10518  0.01902  Biso   1.000  O
  N799     1.0000 0.00006  0.85076  0.09721  Biso   1.000  N
  O5096    1.0000 0.01377  0.85403  0.10407  Biso   1.000  O
  N800     1.0000 0.99763  0.34537  0.10022  Biso   1.000  N
  O5097    1.0000 0.98435  0.35348  0.10212  Biso   1.000  O
  N801     1.0000 0.99780  0.90202  0.14888  Biso   1.000  N
  O5098    1.0000 0.98414  0.89455  0.14707  Biso   1.000  O
  N802     1.0000 0.99479  0.40446  0.65428  Biso   1.000  N
  O5099    1.0000 0.99786  0.41573  0.64381  Biso   1.000  O
  O5100    1.0000 0.98164  0.39606  0.65266  Biso   1.000  O
  N803     1.0000 0.90385  0.15031  0.99599  Biso   1.000  N
  O5101    1.0000 0.89519  0.14799  0.98311  Biso   1.000  O
  O5102    1.0000 0.91494  0.13981  0.99956  Biso   1.000  O
  N804     1.0000 0.38542  0.70210  0.99823  Biso   1.000  N
  O5103    1.0000 0.39133  0.71405  0.98996  Biso   1.000  O
  N805     1.0000 0.82977  0.54658  0.99653  Biso   1.000  N
  O5104    1.0000 0.83811  0.53736  0.98695  Biso   1.000  O
  O5105    1.0000 0.81417  0.54691  0.99487  Biso   1.000  O
  N806     1.0000 0.99761  0.20230  0.09008  Biso   1.000  N
  O5106    1.0000 0.98353  0.20112  0.09688  Biso   1.000  O
  N807     1.0000 0.60146  0.99917  0.84746  Biso   1.000  N
  O5107    1.0000 0.60391  0.98501  0.85371  Biso   1.000  O
  N808     1.0000 0.07452  0.00110  0.22553  Biso   1.000  N
  O5108    1.0000 0.07375  0.01476  0.21785  Biso   1.000  O
  N809     1.0000 0.19838  0.88890  0.98912  Biso   1.000  N
  O5109    1.0000 0.19139  0.88060  0.97776  Biso   1.000  O
  O5110    1.0000 0.21321  0.89350  0.98698  Biso   1.000  O
  N810     1.0000 0.99870  0.54749  0.86680  Biso   1.000  N
  O5111    1.0000 0.98948  0.53638  0.86069  Biso   1.000  O
  N811     1.0000 0.52473  0.71662  0.00118  Biso   1.000  N
  O5112    1.0000 0.52391  0.72962  0.00992  Biso   1.000  O
  N812     1.0000 0.00235  0.52444  0.77173  Biso   1.000  N
  O5113    1.0000 0.00630  0.51179  0.76335  Biso   1.000  O
  N813     1.0000 0.09772  0.83742  0.01130  Biso   1.000  N
  O5114    1.0000 0.10729  0.83536  0.02359  Biso   1.000  O
  O5115    1.0000 0.08593  0.84766  0.01263  Biso   1.000  O
  N814     1.0000 0.59578  0.34809  0.00277  Biso   1.000  N
  O5116    1.0000 0.60362  0.35045  0.01616  Biso   1.000  O
  N815     1.0000 0.66824  0.95308  0.00256  Biso   1.000  N
  O5117    1.0000 0.68383  0.95364  0.00413  Biso   1.000  O
  O5118    1.0000 0.65943  0.96231  0.01172  Biso   1.000  O
  N816     1.0000 0.80929  0.00646  0.07467  Biso   1.000  N
  O5119    1.0000 0.81489  0.00476  0.06009  Biso   1.000  O
  O5120    1.0000 0.80310  0.02028  0.07873  Biso   1.000  O
  F269     1.0000 0.37287  0.00000  0.63105  Biso   1.000  F
  F270     1.0000 0.87138  0.12742  0.00007  Biso   1.000  F
  F271     1.0000 0.99988  0.37804  0.12380  Biso   1.000  F
  F272     1.0000 0.12297  0.99994  0.37779  Biso   1.000  F
  H2380    1.0000 0.14445  0.01091  0.43990  Biso   1.000  H
  H2381    1.0000 0.63666  0.00148  0.94670  Biso   1.000  H
  H2382    1.0000 0.01717  0.99790  0.77724  Biso   1.000  H
  H2383    1.0000 0.91242  0.80179  0.00175  Biso   1.000  H
  H2384    1.0000 0.07895  0.00116  0.80371  Biso   1.000  H
  H2385    1.0000 0.10500  0.01113  0.80950  Biso   1.000  H
  H2386    1.0000 0.58060  0.00023  0.30280  Biso   1.000  H
  H2387    1.0000 0.60586  0.01060  0.31112  Biso   1.000  H
  H2388    1.0000 0.73086  0.99930  0.97297  Biso   1.000  H
  H2389    1.0000 0.33908  0.44781  0.00209  Biso   1.000  H
  H2390    1.0000 0.23287  0.99715  0.47362  Biso   1.000  H
  H2391    1.0000 0.27988  0.52032  0.99781  Biso   1.000  H
  H2392    1.0000 0.77973  0.01880  0.99774  Biso   1.000  H
  H2393    1.0000 0.00665  0.90951  0.82386  Biso   1.000  H
  H2394    1.0000 0.00330  0.41110  0.30800  Biso   1.000  H
  H2395    1.0000 0.00292  0.83437  0.94944  Biso   1.000  H
  H2396    1.0000 0.00307  0.33722  0.44588  Biso   1.000  H
  H2397    1.0000 0.00280  0.44746  0.13738  Biso   1.000  H
  H2398    1.0000 0.00210  0.91050  0.65117  Biso   1.000  H
  H2399    1.0000 0.27340  0.43671  0.99788  Biso   1.000  H
  H2400    1.0000 0.94799  0.00224  0.83762  Biso   1.000  H
  H2401    1.0000 0.05938  0.15765  0.99437  Biso   1.000  H
  H2402    1.0000 0.09078  0.99395  0.17885  Biso   1.000  H
  H2403    1.0000 0.59044  0.99376  0.67992  Biso   1.000  H
  H2404    1.0000 0.85832  0.55731  0.99202  Biso   1.000  H
  H2405    1.0000 0.33161  0.05268  0.99964  Biso   1.000  H
  H2406    1.0000 0.35752  0.06073  0.99068  Biso   1.000  H
  H2407    1.0000 0.52739  0.00038  0.76746  Biso   1.000  H
  H2408    1.0000 0.99524  0.55917  0.65889  Biso   1.000  H
  H2409    1.0000 0.99742  0.05608  0.15896  Biso   1.000  H
  H2410    1.0000 0.99379  0.68858  0.59134  Biso   1.000  H
  H2411    1.0000 0.69615  0.99664  0.38699  Biso   1.000  H
  H2412    1.0000 0.84648  0.99315  0.58764  Biso   1.000  H
  H2413    1.0000 0.34682  0.99161  0.08493  Biso   1.000  H
  H2414    1.0000 0.00303  0.52268  0.69404  Biso   1.000  H
  H2415    1.0000 0.88892  0.99593  0.19540  Biso   1.000  H
  H2416    1.0000 0.59352  0.67936  0.99407  Biso   1.000  H
  H2417    1.0000 0.41972  0.99934  0.69749  Biso   1.000  H
  H2418    1.0000 0.39434  0.98891  0.68949  Biso   1.000  H
  H2419    1.0000 0.16001  0.05210  0.99827  Biso   1.000  H
  H2420    1.0000 0.66054  0.55301  0.99790  Biso   1.000  H
  H2421    1.0000 0.99974  0.08492  0.19979  Biso   1.000  H
  H2422    1.0000 0.99544  0.15974  0.05683  Biso   1.000  H
  H2423    1.0000 0.19392  0.99468  0.09052  Biso   1.000  H
  H2424    1.0000 0.69431  0.99666  0.59118  Biso   1.000  H
  H2425    1.0000 0.99813  0.69627  0.38817  Biso   1.000  H
  H2426    1.0000 0.99636  0.51539  0.27751  Biso   1.000  H
  H2427    1.0000 0.99699  0.01740  0.77730  Biso   1.000  H
  H2428    1.0000 0.00147  0.13574  0.44621  Biso   1.000  H
  H2429    1.0000 0.42910  0.34018  0.00529  Biso   1.000  H
  H2430    1.0000 0.94715  0.83774  0.00307  Biso   1.000  H
  H2431    1.0000 0.99727  0.23270  0.47186  Biso   1.000  H
  H2432    1.0000 0.80897  0.90929  0.00406  Biso   1.000  H
  H2433    1.0000 0.00278  0.07942  0.80493  Biso   1.000  H
  H2434    1.0000 0.30459  0.41159  0.00345  Biso   1.000  H
  H2435    1.0000 0.91643  0.00133  0.79869  Biso   1.000  H
  H2436    1.0000 0.40982  0.00520  0.30942  Biso   1.000  H
  H2437    1.0000 0.84165  0.00664  0.92987  Biso   1.000  H
  H2438    1.0000 0.34123  0.00613  0.42865  Biso   1.000  H
  H2439    1.0000 0.13912  0.44439  0.00560  Biso   1.000  H
  H2440    1.0000 0.64087  0.94040  0.00846  Biso   1.000  H
  H2441    1.0000 0.99903  0.31284  0.47652  Biso   1.000  H
  H2442    1.0000 0.00111  0.80269  0.91064  Biso   1.000  H
  H2443    1.0000 0.00049  0.30069  0.41174  Biso   1.000  H
  H2444    1.0000 0.30572  0.00452  0.61138  Biso   1.000  H
  H2445    1.0000 0.27914  0.99771  0.51662  Biso   1.000  H
  H2446    1.0000 0.77894  0.99860  0.01758  Biso   1.000  H
  H2447    1.0000 0.94723  0.00083  0.66956  Biso   1.000  H
  H2448    1.0000 0.93982  0.01051  0.64365  Biso   1.000  H
  O5121    1.0000 0.65782  0.00287  0.96891  Biso   1.000  O
  O5122    1.0000 0.65512  0.28477  0.00231  Biso   1.000  O
  O5123    1.0000 0.00226  0.78704  0.96031  Biso   1.000  O
  O5124    1.0000 0.36191  0.58709  0.99513  Biso   1.000  O
  O5125    1.0000 0.00089  0.46452  0.17830  Biso   1.000  O
  O5126    1.0000 0.78606  0.00298  0.16629  Biso   1.000  O
  O5127    1.0000 0.01066  0.35705  0.60437  Biso   1.000  O
  O5128    1.0000 0.99334  0.86163  0.08810  Biso   1.000  O
  O5129    1.0000 0.99347  0.87716  0.54435  Biso   1.000  O
  O5130    1.0000 0.00146  0.33460  0.11096  Biso   1.000  O
  O5131    1.0000 0.21119  0.99913  0.04632  Biso   1.000  O
  O5132    1.0000 0.72280  0.01014  0.57754  Biso   1.000  O
  O5133    1.0000 0.00301  0.91122  0.13728  Biso   1.000  O
  O5134    1.0000 0.37111  0.70358  0.00441  Biso   1.000  O
  O5135    1.0000 0.33306  0.99646  0.71471  Biso   1.000  O
  O5136    1.0000 0.98268  0.23116  0.01231  Biso   1.000  O
  O5137    1.0000 0.71119  0.99896  0.42869  Biso   1.000  O
  O5138    1.0000 0.72058  0.99961  0.40333  Biso   1.000  O
  O5139    1.0000 0.61280  0.00566  0.83879  Biso   1.000  O
  O5140    1.0000 0.10552  0.98773  0.35302  Biso   1.000  O
  O5141    1.0000 0.91379  0.99025  0.21305  Biso   1.000  O
  O5142    1.0000 0.54475  0.87877  0.99926  Biso   1.000  O
  O5143    1.0000 0.70220  0.99973  0.53873  Biso   1.000  O
  O5144    1.0000 0.16739  0.00961  0.02309  Biso   1.000  O
  O5145    1.0000 0.08688  0.99175  0.22312  Biso   1.000  O
  O5146    1.0000 0.64579  0.39528  0.98670  Biso   1.000  O
  O5147    1.0000 0.51808  0.77053  0.01145  Biso   1.000  O
  O5148    1.0000 0.00378  0.54578  0.88152  Biso   1.000  O
  O5149    1.0000 0.03741  0.99556  0.41435  Biso   1.000  O
  O5150    1.0000 0.53614  0.99564  0.91504  Biso   1.000  O
  O5151    1.0000 0.53890  0.71069  0.99800  Biso   1.000  O
  O5152    1.0000 0.99545  0.71684  0.41115  Biso   1.000  O
  O5153    1.0000 0.98696  0.14515  0.89473  Biso   1.000  O
  O5154    1.0000 0.99632  0.52241  0.78606  Biso   1.000  O
  O5155    1.0000 0.00167  0.51377  0.34383  Biso   1.000  O
  O5156    1.0000 0.00073  0.01584  0.84368  Biso   1.000  O
  O5157    1.0000 0.00342  0.15717  0.46782  Biso   1.000  O
  O5158    1.0000 0.46361  0.08383  0.00349  Biso   1.000  O
  O5159    1.0000 0.00246  0.23177  0.40567  Biso   1.000  O
  O5160    1.0000 0.01323  0.60343  0.35502  Biso   1.000  O
  O5161    1.0000 0.58543  0.35889  0.99805  Biso   1.000  O
  O5162    1.0000 0.72622  0.98057  0.99343  Biso   1.000  O
  O5163    1.0000 0.18187  0.45742  0.00338  Biso   1.000  O
  O5164    1.0000 0.15699  0.46758  0.00596  Biso   1.000  O
  O5165    1.0000 0.66636  0.00276  0.28546  Biso   1.000  O
  O5166    1.0000 0.99255  0.83584  0.97718  Biso   1.000  O
  O5167    1.0000 0.28804  0.01058  0.58633  Biso   1.000  O
  O5168    1.0000 0.00634  0.21503  0.09286  Biso   1.000  O
