data_image0
_cell_length_a       86.538
_cell_length_b       86.517
_cell_length_c       86.433
_cell_angle_alpha    90
_cell_angle_beta     90
_cell_angle_gamma    90

_symmetry_space_group_name_H-M    "P 1"
_symmetry_int_tables_number       1

loop_
  _symmetry_equiv_pos_as_xyz
  'x, y, z'

loop_
  _atom_site_label
  _atom_site_occupancy
  _atom_site_fract_x
  _atom_site_fract_y
  _atom_site_fract_z
  _atom_site_thermal_displace_type
  _atom_site_B_iso_or_equiv
  _atom_site_type_symbol
  Cr1      1.0000 0.82015  0.92865  0.90431  Biso   1.000  Cr
  Cr2      1.0000 0.81855  0.42882  0.40397  Biso   1.000  Cr
  Cr3      1.0000 0.32134  0.81999  0.34609  Biso   1.000  Cr
  Cr4      1.0000 0.31851  0.32218  0.84698  Biso   1.000  Cr
  Cr5      1.0000 0.92906  0.32126  0.40459  Biso   1.000  Cr
  Cr6      1.0000 0.42915  0.32079  0.90440  Biso   1.000  Cr
  Cr7      1.0000 0.43010  0.82206  0.40608  Biso   1.000  Cr
  Cr8      1.0000 0.42832  0.43003  0.84536  Biso   1.000  Cr
  Cr9      1.0000 0.42921  0.93114  0.34560  Biso   1.000  Cr
  Cr10     1.0000 0.92767  0.43047  0.34606  Biso   1.000  Cr
  Cr11     1.0000 0.92901  0.93151  0.84548  Biso   1.000  Cr
  Cr12     1.0000 0.67851  0.06928  0.59537  Biso   1.000  Cr
  Cr13     1.0000 0.67859  0.56851  0.09717  Biso   1.000  Cr
  Cr14     1.0000 0.56902  0.57183  0.15507  Biso   1.000  Cr
  Cr15     1.0000 0.57055  0.07166  0.65513  Biso   1.000  Cr
  Cr16     1.0000 0.06960  0.56986  0.65374  Biso   1.000  Cr
  Cr17     1.0000 0.07109  0.07113  0.15489  Biso   1.000  Cr
  Cr18     1.0000 0.06988  0.17835  0.09492  Biso   1.000  Cr
  Cr19     1.0000 0.57005  0.17939  0.59569  Biso   1.000  Cr
  Cr20     1.0000 0.17931  0.67821  0.65509  Biso   1.000  Cr
  Cr21     1.0000 0.17894  0.17955  0.15390  Biso   1.000  Cr
  Cr22     1.0000 0.17978  0.06951  0.09634  Biso   1.000  Cr
  Cr23     1.0000 0.17875  0.56971  0.59453  Biso   1.000  Cr
  Cr24     1.0000 0.68009  0.17927  0.65345  Biso   1.000  Cr
  Cr25     1.0000 0.67994  0.67863  0.15421  Biso   1.000  Cr
  Cr26     1.0000 0.06948  0.68009  0.59639  Biso   1.000  Cr
  Cr27     1.0000 0.57070  0.67871  0.09488  Biso   1.000  Cr
  Cr28     1.0000 0.31920  0.92903  0.40358  Biso   1.000  Cr
  Cr29     1.0000 0.32174  0.43046  0.90592  Biso   1.000  Cr
  Cr30     1.0000 0.93095  0.82230  0.90476  Biso   1.000  Cr
  Cr31     1.0000 0.82142  0.32015  0.34486  Biso   1.000  Cr
  Cr32     1.0000 0.82158  0.81976  0.84538  Biso   1.000  Cr
  Cr33     1.0000 0.14262  0.35618  0.50168  Biso   1.000  Cr
  Cr34     1.0000 0.14357  0.85569  0.99999  Biso   1.000  Cr
  Cr35     1.0000 0.60636  0.89139  0.00021  Biso   1.000  Cr
  Cr36     1.0000 0.60702  0.39374  0.49998  Biso   1.000  Cr
  Cr37     1.0000 0.10799  0.85618  0.25001  Biso   1.000  Cr
  Cr38     1.0000 0.10714  0.35605  0.75088  Biso   1.000  Cr
  Cr39     1.0000 0.64342  0.39263  0.75041  Biso   1.000  Cr
  Cr40     1.0000 0.64353  0.89167  0.25128  Biso   1.000  Cr
  Cr41     1.0000 0.50036  0.14385  0.35618  Biso   1.000  Cr
  Cr42     1.0000 0.99927  0.14351  0.85730  Biso   1.000  Cr
  Cr43     1.0000 0.00012  0.60657  0.89352  Biso   1.000  Cr
  Cr44     1.0000 0.50001  0.60804  0.39352  Biso   1.000  Cr
  Cr45     1.0000 0.24986  0.10566  0.85720  Biso   1.000  Cr
  Cr46     1.0000 0.74976  0.10652  0.35658  Biso   1.000  Cr
  Cr47     1.0000 0.75092  0.64438  0.39280  Biso   1.000  Cr
  Cr48     1.0000 0.25007  0.64345  0.89280  Biso   1.000  Cr
  Cr49     1.0000 0.35637  0.49951  0.14412  Biso   1.000  Cr
  Cr50     1.0000 0.35730  0.00064  0.64424  Biso   1.000  Cr
  Cr51     1.0000 0.89356  0.99986  0.60740  Biso   1.000  Cr
  Cr52     1.0000 0.89419  0.49994  0.10676  Biso   1.000  Cr
  Cr53     1.0000 0.85648  0.25022  0.10640  Biso   1.000  Cr
  Cr54     1.0000 0.85658  0.74969  0.60625  Biso   1.000  Cr
  Cr55     1.0000 0.39311  0.75001  0.64241  Biso   1.000  Cr
  Cr56     1.0000 0.39306  0.24918  0.14343  Biso   1.000  Cr
  Cr57     1.0000 0.10750  0.39249  0.00054  Biso   1.000  Cr
  Cr58     1.0000 0.10665  0.89215  0.49945  Biso   1.000  Cr
  Cr59     1.0000 0.64352  0.85681  0.50060  Biso   1.000  Cr
  Cr60     1.0000 0.64208  0.35624  0.00046  Biso   1.000  Cr
  Cr61     1.0000 0.60733  0.35648  0.25078  Biso   1.000  Cr
  Cr62     1.0000 0.60723  0.85710  0.75036  Biso   1.000  Cr
  Cr63     1.0000 0.14277  0.89235  0.74986  Biso   1.000  Cr
  Cr64     1.0000 0.14325  0.39218  0.25149  Biso   1.000  Cr
  Cr65     1.0000 0.89368  0.74911  0.14275  Biso   1.000  Cr
  Cr66     1.0000 0.89257  0.24952  0.64317  Biso   1.000  Cr
  Cr67     1.0000 0.35602  0.25030  0.60613  Biso   1.000  Cr
  Cr68     1.0000 0.35647  0.74962  0.10718  Biso   1.000  Cr
  Cr69     1.0000 0.85641  0.50026  0.64354  Biso   1.000  Cr
  Cr70     1.0000 0.85693  0.99983  0.14377  Biso   1.000  Cr
  Cr71     1.0000 0.39184  0.99978  0.10701  Biso   1.000  Cr
  Cr72     1.0000 0.39306  0.49964  0.60694  Biso   1.000  Cr
  Cr73     1.0000 0.25014  0.60653  0.35726  Biso   1.000  Cr
  Cr74     1.0000 0.74998  0.60578  0.85765  Biso   1.000  Cr
  Cr75     1.0000 0.74913  0.14319  0.89312  Biso   1.000  Cr
  Cr76     1.0000 0.24978  0.14356  0.39270  Biso   1.000  Cr
  Cr77     1.0000 0.99961  0.10540  0.39287  Biso   1.000  Cr
  Cr78     1.0000 0.49950  0.10549  0.89373  Biso   1.000  Cr
  Cr79     1.0000 0.50025  0.64297  0.85630  Biso   1.000  Cr
  Cr80     1.0000 0.00058  0.64361  0.35735  Biso   1.000  Cr
  Cr81     1.0000 0.85642  0.64343  0.49914  Biso   1.000  Cr
  Cr82     1.0000 0.85736  0.14255  0.99911  Biso   1.000  Cr
  Cr83     1.0000 0.39348  0.10579  0.00061  Biso   1.000  Cr
  Cr84     1.0000 0.39244  0.60625  0.50036  Biso   1.000  Cr
  Cr85     1.0000 0.89319  0.14505  0.75009  Biso   1.000  Cr
  Cr86     1.0000 0.89439  0.64301  0.25008  Biso   1.000  Cr
  Cr87     1.0000 0.35657  0.60771  0.25003  Biso   1.000  Cr
  Cr88     1.0000 0.35677  0.10723  0.75005  Biso   1.000  Cr
  Cr89     1.0000 0.49882  0.85610  0.64377  Biso   1.000  Cr
  Cr90     1.0000 0.00055  0.85639  0.14183  Biso   1.000  Cr
  Cr91     1.0000 0.99971  0.39238  0.10748  Biso   1.000  Cr
  Cr92     1.0000 0.49893  0.39246  0.60719  Biso   1.000  Cr
  Cr93     1.0000 0.75033  0.89326  0.14342  Biso   1.000  Cr
  Cr94     1.0000 0.25061  0.89391  0.64277  Biso   1.000  Cr
  Cr95     1.0000 0.24897  0.35684  0.60908  Biso   1.000  Cr
  Cr96     1.0000 0.74935  0.35528  0.10806  Biso   1.000  Cr
  Cr97     1.0000 0.64326  0.49929  0.85683  Biso   1.000  Cr
  Cr98     1.0000 0.64349  0.00016  0.35604  Biso   1.000  Cr
  Cr99     1.0000 0.10768  0.00023  0.39393  Biso   1.000  Cr
  Cr100    1.0000 0.10692  0.50049  0.89472  Biso   1.000  Cr
  Cr101    1.0000 0.14268  0.74979  0.89414  Biso   1.000  Cr
  Cr102    1.0000 0.14420  0.24882  0.39319  Biso   1.000  Cr
  Cr103    1.0000 0.60768  0.25008  0.35669  Biso   1.000  Cr
  Cr104    1.0000 0.60792  0.74892  0.85635  Biso   1.000  Cr
  Cr105    1.0000 0.89223  0.60693  0.00024  Biso   1.000  Cr
  Cr106    1.0000 0.89301  0.10677  0.50014  Biso   1.000  Cr
  Cr107    1.0000 0.35731  0.14327  0.50019  Biso   1.000  Cr
  Cr108    1.0000 0.35837  0.64436  0.99940  Biso   1.000  Cr
  Cr109    1.0000 0.39406  0.64368  0.75057  Biso   1.000  Cr
  Cr110    1.0000 0.39281  0.14414  0.25039  Biso   1.000  Cr
  Cr111    1.0000 0.85790  0.10659  0.24985  Biso   1.000  Cr
  Cr112    1.0000 0.85688  0.60600  0.74990  Biso   1.000  Cr
  Cr113    1.0000 0.10672  0.25052  0.85566  Biso   1.000  Cr
  Cr114    1.0000 0.10732  0.74965  0.35651  Biso   1.000  Cr
  Cr115    1.0000 0.64272  0.74993  0.39412  Biso   1.000  Cr
  Cr116    1.0000 0.64322  0.24960  0.89303  Biso   1.000  Cr
  Cr117    1.0000 0.14420  0.49940  0.35757  Biso   1.000  Cr
  Cr118    1.0000 0.14215  0.00043  0.85510  Biso   1.000  Cr
  Cr119    1.0000 0.60725  0.99906  0.89305  Biso   1.000  Cr
  Cr120    1.0000 0.60642  0.50011  0.39375  Biso   1.000  Cr
  Cr121    1.0000 0.74940  0.39338  0.64178  Biso   1.000  Cr
  Cr122    1.0000 0.25009  0.39306  0.14338  Biso   1.000  Cr
  Cr123    1.0000 0.25099  0.85922  0.10600  Biso   1.000  Cr
  Cr124    1.0000 0.74966  0.85745  0.60847  Biso   1.000  Cr
  Cr125    1.0000 0.99993  0.89377  0.60680  Biso   1.000  Cr
  Cr126    1.0000 0.50050  0.89363  0.10619  Biso   1.000  Cr
  Cr127    1.0000 0.50016  0.35665  0.14272  Biso   1.000  Cr
  Cr128    1.0000 0.99883  0.35759  0.64291  Biso   1.000  Cr
  Cr129    1.0000 0.12384  0.35594  0.62603  Biso   1.000  Cr
  Cr130    1.0000 0.62366  0.85632  0.62540  Biso   1.000  Cr
  Cr131    1.0000 0.62501  0.89477  0.12590  Biso   1.000  Cr
  Cr132    1.0000 0.12559  0.39370  0.12592  Biso   1.000  Cr
  Cr133    1.0000 0.12568  0.85555  0.12514  Biso   1.000  Cr
  Cr134    1.0000 0.62477  0.39415  0.62535  Biso   1.000  Cr
  Cr135    1.0000 0.62556  0.12507  0.35418  Biso   1.000  Cr
  Cr136    1.0000 0.62560  0.62452  0.85486  Biso   1.000  Cr
  Cr137    1.0000 0.12516  0.62514  0.89535  Biso   1.000  Cr
  Cr138    1.0000 0.12415  0.12552  0.39535  Biso   1.000  Cr
  Cr139    1.0000 0.12508  0.12573  0.85331  Biso   1.000  Cr
  Cr140    1.0000 0.62537  0.62513  0.39483  Biso   1.000  Cr
  Cr141    1.0000 0.35502  0.62491  0.12526  Biso   1.000  Cr
  Cr142    1.0000 0.85534  0.62545  0.62513  Biso   1.000  Cr
  Cr143    1.0000 0.89499  0.12477  0.62516  Biso   1.000  Cr
  Cr144    1.0000 0.85498  0.12544  0.12477  Biso   1.000  Cr
  Cr145    1.0000 0.39510  0.62416  0.62571  Biso   1.000  Cr
  Cr146    1.0000 0.39450  0.12441  0.12529  Biso   1.000  Cr
  Cr147    1.0000 0.10527  0.37631  0.87504  Biso   1.000  Cr
  Cr148    1.0000 0.64467  0.87565  0.37592  Biso   1.000  Cr
  Cr149    1.0000 0.60623  0.37564  0.37467  Biso   1.000  Cr
  Cr150    1.0000 0.60586  0.87345  0.87527  Biso   1.000  Cr
  Cr151    1.0000 0.14497  0.87556  0.87523  Biso   1.000  Cr
  Cr152    1.0000 0.14517  0.37478  0.37680  Biso   1.000  Cr
  Cr153    1.0000 0.87520  0.87448  0.14505  Biso   1.000  Cr
  Cr154    1.0000 0.37369  0.37605  0.60624  Biso   1.000  Cr
  Cr155    1.0000 0.87335  0.37502  0.64340  Biso   1.000  Cr
  Cr156    1.0000 0.37616  0.87500  0.10550  Biso   1.000  Cr
  Cr157    1.0000 0.37500  0.60500  0.37456  Biso   1.000  Cr
  Cr158    1.0000 0.87409  0.14485  0.87389  Biso   1.000  Cr
  Cr159    1.0000 0.87465  0.10338  0.37510  Biso   1.000  Cr
  Cr160    1.0000 0.87492  0.60358  0.87508  Biso   1.000  Cr
  Cr161    1.0000 0.37577  0.64496  0.87467  Biso   1.000  Cr
  Cr162    1.0000 0.37507  0.14510  0.37472  Biso   1.000  Cr
  Cr163    1.0000 0.87538  0.64577  0.37421  Biso   1.000  Cr
  Cr164    1.0000 0.37544  0.10311  0.87498  Biso   1.000  Cr
  Cr165    1.0000 0.37489  0.87519  0.64467  Biso   1.000  Cr
  Cr166    1.0000 0.37426  0.37474  0.14462  Biso   1.000  Cr
  Cr167    1.0000 0.87425  0.37575  0.10558  Biso   1.000  Cr
  Cr168    1.0000 0.87547  0.87510  0.60524  Biso   1.000  Cr
  Cr169    1.0000 0.64487  0.37526  0.87538  Biso   1.000  Cr
  Cr170    1.0000 0.10542  0.87457  0.37447  Biso   1.000  Cr
  Cr171    1.0000 0.89402  0.62439  0.12502  Biso   1.000  Cr
  Cr172    1.0000 0.35484  0.12519  0.62569  Biso   1.000  Cr
  Cr173    1.0000 0.12589  0.62510  0.35444  Biso   1.000  Cr
  Cr174    1.0000 0.62410  0.12466  0.89504  Biso   1.000  Cr
  Cr175    1.0000 0.12543  0.89411  0.62449  Biso   1.000  Cr
  Cr176    1.0000 0.62511  0.35499  0.12602  Biso   1.000  Cr
  Cr177    1.0000 0.21587  0.21358  0.29911  Biso   1.000  Cr
  Cr178    1.0000 0.21534  0.71595  0.79952  Biso   1.000  Cr
  Cr179    1.0000 0.71578  0.21460  0.79907  Biso   1.000  Cr
  Cr180    1.0000 0.71501  0.71621  0.29972  Biso   1.000  Cr
  Cr181    1.0000 0.53462  0.03372  0.80000  Biso   1.000  Cr
  Cr182    1.0000 0.53397  0.53521  0.29985  Biso   1.000  Cr
  Cr183    1.0000 0.03553  0.71519  0.45112  Biso   1.000  Cr
  Cr184    1.0000 0.03508  0.21535  0.95044  Biso   1.000  Cr
  Cr185    1.0000 0.53492  0.21507  0.45049  Biso   1.000  Cr
  Cr186    1.0000 0.71506  0.53444  0.95083  Biso   1.000  Cr
  Cr187    1.0000 0.21573  0.53379  0.45156  Biso   1.000  Cr
  Cr188    1.0000 0.29911  0.21422  0.21611  Biso   1.000  Cr
  Cr189    1.0000 0.29943  0.71559  0.71462  Biso   1.000  Cr
  Cr190    1.0000 0.79889  0.21446  0.71620  Biso   1.000  Cr
  Cr191    1.0000 0.80025  0.71522  0.21561  Biso   1.000  Cr
  Cr192    1.0000 0.79971  0.53355  0.03463  Biso   1.000  Cr
  Cr193    1.0000 0.29890  0.53472  0.53485  Biso   1.000  Cr
  Cr194    1.0000 0.45091  0.03568  0.71547  Biso   1.000  Cr
  Cr195    1.0000 0.45111  0.53450  0.21568  Biso   1.000  Cr
  Cr196    1.0000 0.95011  0.71470  0.53368  Biso   1.000  Cr
  Cr197    1.0000 0.95033  0.21516  0.03401  Biso   1.000  Cr
  Cr198    1.0000 0.45007  0.21522  0.53393  Biso   1.000  Cr
  Cr199    1.0000 0.21552  0.29906  0.21614  Biso   1.000  Cr
  Cr200    1.0000 0.21542  0.79902  0.71398  Biso   1.000  Cr
  Cr201    1.0000 0.71529  0.29920  0.71463  Biso   1.000  Cr
  Cr202    1.0000 0.71636  0.79912  0.21454  Biso   1.000  Cr
  Cr203    1.0000 0.03340  0.79948  0.53499  Biso   1.000  Cr
  Cr204    1.0000 0.03493  0.29935  0.03457  Biso   1.000  Cr
  Cr205    1.0000 0.53479  0.29950  0.53381  Biso   1.000  Cr
  Cr206    1.0000 0.71506  0.44998  0.03498  Biso   1.000  Cr
  Cr207    1.0000 0.21511  0.45063  0.53628  Biso   1.000  Cr
  Cr208    1.0000 0.53423  0.95032  0.71495  Biso   1.000  Cr
  Cr209    1.0000 0.53464  0.45050  0.21500  Biso   1.000  Cr
  Cr210    1.0000 0.96663  0.46525  0.20122  Biso   1.000  Cr
  Cr211    1.0000 0.96461  0.96635  0.70127  Biso   1.000  Cr
  Cr212    1.0000 0.78544  0.78439  0.70130  Biso   1.000  Cr
  Cr213    1.0000 0.78504  0.28303  0.20116  Biso   1.000  Cr
  Cr214    1.0000 0.28447  0.78560  0.20022  Biso   1.000  Cr
  Cr215    1.0000 0.28460  0.28215  0.70079  Biso   1.000  Cr
  Cr216    1.0000 0.46595  0.28419  0.04914  Biso   1.000  Cr
  Cr217    1.0000 0.46623  0.78434  0.54945  Biso   1.000  Cr
  Cr218    1.0000 0.96564  0.78418  0.04820  Biso   1.000  Cr
  Cr219    1.0000 0.28531  0.96652  0.54934  Biso   1.000  Cr
  Cr220    1.0000 0.78538  0.96583  0.04910  Biso   1.000  Cr
  Cr221    1.0000 0.96612  0.54899  0.28577  Biso   1.000  Cr
  Cr222    1.0000 0.96556  0.05015  0.78411  Biso   1.000  Cr
  Cr223    1.0000 0.28514  0.04993  0.46523  Biso   1.000  Cr
  Cr224    1.0000 0.78497  0.04942  0.96543  Biso   1.000  Cr
  Cr225    1.0000 0.78575  0.69983  0.78577  Biso   1.000  Cr
  Cr226    1.0000 0.78518  0.20053  0.28586  Biso   1.000  Cr
  Cr227    1.0000 0.28494  0.70090  0.28618  Biso   1.000  Cr
  Cr228    1.0000 0.28495  0.20045  0.78730  Biso   1.000  Cr
  Cr229    1.0000 0.46376  0.20035  0.96533  Biso   1.000  Cr
  Cr230    1.0000 0.46389  0.70079  0.46577  Biso   1.000  Cr
  Cr231    1.0000 0.96333  0.70074  0.96426  Biso   1.000  Cr
  Cr232    1.0000 0.04954  0.46387  0.28569  Biso   1.000  Cr
  Cr233    1.0000 0.04960  0.96523  0.78546  Biso   1.000  Cr
  Cr234    1.0000 0.54965  0.28296  0.96458  Biso   1.000  Cr
  Cr235    1.0000 0.54964  0.78433  0.46575  Biso   1.000  Cr
  Cr236    1.0000 0.04932  0.78343  0.96497  Biso   1.000  Cr
  Cr237    1.0000 0.20086  0.96543  0.46679  Biso   1.000  Cr
  Cr238    1.0000 0.70034  0.96507  0.96618  Biso   1.000  Cr
  Cr239    1.0000 0.70188  0.78459  0.78382  Biso   1.000  Cr
  Cr240    1.0000 0.70096  0.28493  0.28469  Biso   1.000  Cr
  Cr241    1.0000 0.20161  0.78464  0.28469  Biso   1.000  Cr
  Cr242    1.0000 0.20018  0.28339  0.78491  Biso   1.000  Cr
  Cr243    1.0000 0.46566  0.96586  0.20121  Biso   1.000  Cr
  Cr244    1.0000 0.46573  0.46445  0.70089  Biso   1.000  Cr
  Cr245    1.0000 0.96603  0.28405  0.54905  Biso   1.000  Cr
  Cr246    1.0000 0.28471  0.46579  0.04929  Biso   1.000  Cr
  Cr247    1.0000 0.78525  0.46660  0.54867  Biso   1.000  Cr
  Cr248    1.0000 0.20131  0.46474  0.96639  Biso   1.000  Cr
  Cr249    1.0000 0.70025  0.46607  0.46634  Biso   1.000  Cr
  Cr250    1.0000 0.55007  0.96487  0.28499  Biso   1.000  Cr
  Cr251    1.0000 0.54917  0.46371  0.78527  Biso   1.000  Cr
  Cr252    1.0000 0.04969  0.28318  0.46408  Biso   1.000  Cr
  Cr253    1.0000 0.96408  0.20064  0.46429  Biso   1.000  Cr
  Cr254    1.0000 0.28561  0.55020  0.96593  Biso   1.000  Cr
  Cr255    1.0000 0.78478  0.54961  0.46362  Biso   1.000  Cr
  Cr256    1.0000 0.46593  0.04949  0.28452  Biso   1.000  Cr
  Cr257    1.0000 0.46565  0.54907  0.78516  Biso   1.000  Cr
  Cr258    1.0000 0.03477  0.53532  0.80032  Biso   1.000  Cr
  Cr259    1.0000 0.03483  0.03299  0.29913  Biso   1.000  Cr
  Cr260    1.0000 0.53529  0.71529  0.95091  Biso   1.000  Cr
  Cr261    1.0000 0.71535  0.03513  0.45015  Biso   1.000  Cr
  Cr262    1.0000 0.21428  0.03613  0.95041  Biso   1.000  Cr
  Cr263    1.0000 0.03370  0.45058  0.71609  Biso   1.000  Cr
  Cr264    1.0000 0.03524  0.95030  0.21449  Biso   1.000  Cr
  Cr265    1.0000 0.71633  0.95105  0.53440  Biso   1.000  Cr
  Cr266    1.0000 0.21475  0.95124  0.03255  Biso   1.000  Cr
  Cr267    1.0000 0.53461  0.79875  0.03622  Biso   1.000  Cr
  Cr268    1.0000 0.95055  0.53558  0.71672  Biso   1.000  Cr
  Cr269    1.0000 0.95152  0.03507  0.21492  Biso   1.000  Cr
  Cr270    1.0000 0.45122  0.71536  0.03546  Biso   1.000  Cr
  Cr271    1.0000 0.79951  0.03581  0.53381  Biso   1.000  Cr
  Cr272    1.0000 0.29930  0.03555  0.03271  Biso   1.000  Cr
  Cr273    1.0000 0.09522  0.92417  0.51051  Biso   1.000  Cr
  Cr274    1.0000 0.31847  0.29108  0.70809  Biso   1.000  Cr
  Cr275    1.0000 0.09626  0.42483  0.01115  Biso   1.000  Cr
  Cr276    1.0000 0.31902  0.79213  0.20727  Biso   1.000  Cr
  Cr277    1.0000 0.59545  0.92399  0.01019  Biso   1.000  Cr
  Cr278    1.0000 0.81906  0.29223  0.20677  Biso   1.000  Cr
  Cr279    1.0000 0.59442  0.42519  0.51130  Biso   1.000  Cr
  Cr280    1.0000 0.81985  0.79213  0.70706  Biso   1.000  Cr
  Cr281    1.0000 0.65457  0.32455  0.01129  Biso   1.000  Cr
  Cr282    1.0000 0.43213  0.95552  0.20831  Biso   1.000  Cr
  Cr283    1.0000 0.65549  0.82495  0.51173  Biso   1.000  Cr
  Cr284    1.0000 0.43141  0.45717  0.70775  Biso   1.000  Cr
  Cr285    1.0000 0.15409  0.32373  0.51179  Biso   1.000  Cr
  Cr286    1.0000 0.93084  0.95706  0.70731  Biso   1.000  Cr
  Cr287    1.0000 0.15594  0.82380  0.01074  Biso   1.000  Cr
  Cr288    1.0000 0.93226  0.45776  0.20725  Biso   1.000  Cr
  Cr289    1.0000 0.15450  0.42419  0.23991  Biso   1.000  Cr
  Cr290    1.0000 0.93166  0.79359  0.04210  Biso   1.000  Cr
  Cr291    1.0000 0.15431  0.92481  0.73979  Biso   1.000  Cr
  Cr292    1.0000 0.93197  0.29261  0.54251  Biso   1.000  Cr
  Cr293    1.0000 0.65471  0.42467  0.73892  Biso   1.000  Cr
  Cr294    1.0000 0.43255  0.79426  0.54281  Biso   1.000  Cr
  Cr295    1.0000 0.65505  0.92349  0.23975  Biso   1.000  Cr
  Cr296    1.0000 0.43189  0.29288  0.04285  Biso   1.000  Cr
  Cr297    1.0000 0.59569  0.82471  0.73998  Biso   1.000  Cr
  Cr298    1.0000 0.81921  0.45814  0.54190  Biso   1.000  Cr
  Cr299    1.0000 0.59412  0.32486  0.24038  Biso   1.000  Cr
  Cr300    1.0000 0.81912  0.95616  0.04182  Biso   1.000  Cr
  Cr301    1.0000 0.09522  0.82432  0.23932  Biso   1.000  Cr
  Cr302    1.0000 0.31867  0.45701  0.04280  Biso   1.000  Cr
  Cr303    1.0000 0.09367  0.32470  0.73980  Biso   1.000  Cr
  Cr304    1.0000 0.31906  0.95767  0.54229  Biso   1.000  Cr
  Cr305    1.0000 0.51036  0.09434  0.92606  Biso   1.000  Cr
  Cr306    1.0000 0.70722  0.31902  0.29366  Biso   1.000  Cr
  Cr307    1.0000 0.51107  0.59584  0.42534  Biso   1.000  Cr
  Cr308    1.0000 0.70838  0.81836  0.79383  Biso   1.000  Cr
  Cr309    1.0000 0.00998  0.09419  0.42517  Biso   1.000  Cr
  Cr310    1.0000 0.20635  0.31761  0.79340  Biso   1.000  Cr
  Cr311    1.0000 0.01054  0.59559  0.92608  Biso   1.000  Cr
  Cr312    1.0000 0.20796  0.81882  0.29360  Biso   1.000  Cr
  Cr313    1.0000 0.01075  0.65384  0.32456  Biso   1.000  Cr
  Cr314    1.0000 0.20851  0.43129  0.95600  Biso   1.000  Cr
  Cr315    1.0000 0.01061  0.15498  0.82518  Biso   1.000  Cr
  Cr316    1.0000 0.20755  0.93156  0.45701  Biso   1.000  Cr
  Cr317    1.0000 0.51061  0.65422  0.82393  Biso   1.000  Cr
  Cr318    1.0000 0.70738  0.43205  0.45782  Biso   1.000  Cr
  Cr319    1.0000 0.51120  0.15508  0.32387  Biso   1.000  Cr
  Cr320    1.0000 0.70784  0.93130  0.95694  Biso   1.000  Cr
  Cr321    1.0000 0.23966  0.15507  0.42500  Biso   1.000  Cr
  Cr322    1.0000 0.04137  0.93167  0.79433  Biso   1.000  Cr
  Cr323    1.0000 0.23954  0.65473  0.92507  Biso   1.000  Cr
  Cr324    1.0000 0.04131  0.43056  0.29562  Biso   1.000  Cr
  Cr325    1.0000 0.73884  0.15459  0.92557  Biso   1.000  Cr
  Cr326    1.0000 0.54212  0.93107  0.29396  Biso   1.000  Cr
  Cr327    1.0000 0.73899  0.65554  0.42440  Biso   1.000  Cr
  Cr328    1.0000 0.54161  0.42990  0.79404  Biso   1.000  Cr
  Cr329    1.0000 0.73970  0.59533  0.82502  Biso   1.000  Cr
  Cr330    1.0000 0.54314  0.81846  0.45716  Biso   1.000  Cr
  Cr331    1.0000 0.73918  0.09591  0.32405  Biso   1.000  Cr
  Cr332    1.0000 0.54270  0.31700  0.95603  Biso   1.000  Cr
  Cr333    1.0000 0.24021  0.59527  0.32470  Biso   1.000  Cr
  Cr334    1.0000 0.04390  0.81764  0.95630  Biso   1.000  Cr
  Cr335    1.0000 0.23984  0.09524  0.82460  Biso   1.000  Cr
  Cr336    1.0000 0.04270  0.31729  0.45612  Biso   1.000  Cr
  Cr337    1.0000 0.92631  0.51096  0.09554  Biso   1.000  Cr
  Cr338    1.0000 0.29455  0.70872  0.31967  Biso   1.000  Cr
  Cr339    1.0000 0.92571  0.01083  0.59563  Biso   1.000  Cr
  Cr340    1.0000 0.29321  0.20777  0.82132  Biso   1.000  Cr
  Cr341    1.0000 0.42517  0.51040  0.59548  Biso   1.000  Cr
  Cr342    1.0000 0.79488  0.70830  0.81930  Biso   1.000  Cr
  Cr343    1.0000 0.42458  0.01004  0.09681  Biso   1.000  Cr
  Cr344    1.0000 0.79388  0.20816  0.31976  Biso   1.000  Cr
  Cr345    1.0000 0.32463  0.01066  0.65538  Biso   1.000  Cr
  Cr346    1.0000 0.95590  0.20687  0.43017  Biso   1.000  Cr
  Cr347    1.0000 0.32404  0.50995  0.15521  Biso   1.000  Cr
  Cr348    1.0000 0.95627  0.70795  0.93003  Biso   1.000  Cr
  Cr349    1.0000 0.82477  0.01066  0.15484  Biso   1.000  Cr
  Cr350    1.0000 0.45602  0.20635  0.93106  Biso   1.000  Cr
  Cr351    1.0000 0.82392  0.51043  0.65482  Biso   1.000  Cr
  Cr352    1.0000 0.45677  0.70801  0.43140  Biso   1.000  Cr
  Cr353    1.0000 0.42562  0.23956  0.15486  Biso   1.000  Cr
  Cr354    1.0000 0.79284  0.04260  0.93125  Biso   1.000  Cr
  Cr355    1.0000 0.42506  0.73974  0.65473  Biso   1.000  Cr
  Cr356    1.0000 0.79312  0.54258  0.42955  Biso   1.000  Cr
  Cr357    1.0000 0.92510  0.24006  0.65480  Biso   1.000  Cr
  Cr358    1.0000 0.29310  0.04302  0.43110  Biso   1.000  Cr
  Cr359    1.0000 0.92624  0.73918  0.15388  Biso   1.000  Cr
  Cr360    1.0000 0.29379  0.54261  0.93191  Biso   1.000  Cr
  Cr361    1.0000 0.82415  0.73970  0.59477  Biso   1.000  Cr
  Cr362    1.0000 0.45610  0.54152  0.81869  Biso   1.000  Cr
  Cr363    1.0000 0.82483  0.23927  0.09400  Biso   1.000  Cr
  Cr364    1.0000 0.45737  0.04287  0.31858  Biso   1.000  Cr
  Cr365    1.0000 0.32466  0.73906  0.09436  Biso   1.000  Cr
  Cr366    1.0000 0.95652  0.54164  0.31942  Biso   1.000  Cr
  Cr367    1.0000 0.32396  0.23978  0.59423  Biso   1.000  Cr
  Cr368    1.0000 0.95663  0.04331  0.81800  Biso   1.000  Cr
  Cr369    1.0000 0.67433  0.34510  0.98919  Biso   1.000  Cr
  Cr370    1.0000 0.04344  0.56901  0.79252  Biso   1.000  Cr
  Cr371    1.0000 0.67553  0.84516  0.48957  Biso   1.000  Cr
  Cr372    1.0000 0.04289  0.06719  0.29311  Biso   1.000  Cr
  Cr373    1.0000 0.17489  0.34465  0.49124  Biso   1.000  Cr
  Cr374    1.0000 0.54344  0.56883  0.29284  Biso   1.000  Cr
  Cr375    1.0000 0.17598  0.84466  0.98937  Biso   1.000  Cr
  Cr376    1.0000 0.54344  0.06784  0.79352  Biso   1.000  Cr
  Cr377    1.0000 0.07457  0.90398  0.48881  Biso   1.000  Cr
  Cr378    1.0000 0.70643  0.68221  0.29204  Biso   1.000  Cr
  Cr379    1.0000 0.07534  0.40419  0.99043  Biso   1.000  Cr
  Cr380    1.0000 0.70678  0.18058  0.79266  Biso   1.000  Cr
  Cr381    1.0000 0.57487  0.90377  0.98859  Biso   1.000  Cr
  Cr382    1.0000 0.20738  0.68169  0.79303  Biso   1.000  Cr
  Cr383    1.0000 0.57450  0.40443  0.48945  Biso   1.000  Cr
  Cr384    1.0000 0.20570  0.18015  0.29180  Biso   1.000  Cr
  Cr385    1.0000 0.17528  0.40430  0.26169  Biso   1.000  Cr
  Cr386    1.0000 0.54213  0.18070  0.45685  Biso   1.000  Cr
  Cr387    1.0000 0.17507  0.90374  0.76025  Biso   1.000  Cr
  Cr388    1.0000 0.54387  0.68147  0.95802  Biso   1.000  Cr
  Cr389    1.0000 0.67545  0.40463  0.76065  Biso   1.000  Cr
  Cr390    1.0000 0.04402  0.18126  0.95684  Biso   1.000  Cr
  Cr391    1.0000 0.67574  0.90361  0.26159  Biso   1.000  Cr
  Cr392    1.0000 0.04411  0.68130  0.45786  Biso   1.000  Cr
  Cr393    1.0000 0.57507  0.84534  0.76109  Biso   1.000  Cr
  Cr394    1.0000 0.20547  0.07004  0.95735  Biso   1.000  Cr
  Cr395    1.0000 0.57474  0.34642  0.26174  Biso   1.000  Cr
  Cr396    1.0000 0.20623  0.56792  0.45727  Biso   1.000  Cr
  Cr397    1.0000 0.07547  0.84563  0.26042  Biso   1.000  Cr
  Cr398    1.0000 0.70641  0.06910  0.45699  Biso   1.000  Cr
  Cr399    1.0000 0.07430  0.34627  0.76106  Biso   1.000  Cr
  Cr400    1.0000 0.70604  0.56826  0.95812  Biso   1.000  Cr
  Cr401    1.0000 0.84459  0.76128  0.57449  Biso   1.000  Cr
  Cr402    1.0000 0.06908  0.95736  0.20527  Biso   1.000  Cr
  Cr403    1.0000 0.84540  0.26136  0.07415  Biso   1.000  Cr
  Cr404    1.0000 0.06760  0.45830  0.70782  Biso   1.000  Cr
  Cr405    1.0000 0.34555  0.76139  0.07513  Biso   1.000  Cr
  Cr406    1.0000 0.56835  0.95767  0.70672  Biso   1.000  Cr
  Cr407    1.0000 0.34428  0.26188  0.57422  Biso   1.000  Cr
  Cr408    1.0000 0.56859  0.45842  0.20708  Biso   1.000  Cr
  Cr409    1.0000 0.40469  0.26035  0.17557  Biso   1.000  Cr
  Cr410    1.0000 0.18080  0.45700  0.54421  Biso   1.000  Cr
  Cr411    1.0000 0.40395  0.76082  0.67482  Biso   1.000  Cr
  Cr412    1.0000 0.18103  0.95763  0.04255  Biso   1.000  Cr
  Cr413    1.0000 0.90408  0.26098  0.67526  Biso   1.000  Cr
  Cr414    1.0000 0.68110  0.45692  0.04369  Biso   1.000  Cr
  Cr415    1.0000 0.90556  0.75991  0.17490  Biso   1.000  Cr
  Cr416    1.0000 0.68202  0.95733  0.54301  Biso   1.000  Cr
  Cr417    1.0000 0.90631  0.48965  0.07455  Biso   1.000  Cr
  Cr418    1.0000 0.68115  0.29231  0.70643  Biso   1.000  Cr
  Cr419    1.0000 0.90526  0.98997  0.57484  Biso   1.000  Cr
  Cr420    1.0000 0.68242  0.79204  0.20578  Biso   1.000  Cr
  Cr421    1.0000 0.40470  0.48943  0.57457  Biso   1.000  Cr
  Cr422    1.0000 0.18145  0.29198  0.20766  Biso   1.000  Cr
  Cr423    1.0000 0.40487  0.98927  0.07518  Biso   1.000  Cr
  Cr424    1.0000 0.18124  0.79188  0.70614  Biso   1.000  Cr
  Cr425    1.0000 0.34527  0.98955  0.67604  Biso   1.000  Cr
  Cr426    1.0000 0.56862  0.79146  0.04420  Biso   1.000  Cr
  Cr427    1.0000 0.34489  0.48957  0.17646  Biso   1.000  Cr
  Cr428    1.0000 0.56799  0.29106  0.54369  Biso   1.000  Cr
  Cr429    1.0000 0.84514  0.98959  0.17602  Biso   1.000  Cr
  Cr430    1.0000 0.06720  0.79203  0.54384  Biso   1.000  Cr
  Cr431    1.0000 0.84445  0.48927  0.67529  Biso   1.000  Cr
  Cr432    1.0000 0.06864  0.29169  0.04368  Biso   1.000  Cr
  Cr433    1.0000 0.26081  0.17554  0.40435  Biso   1.000  Cr
  Cr434    1.0000 0.45708  0.54252  0.18139  Biso   1.000  Cr
  Cr435    1.0000 0.26147  0.67501  0.90512  Biso   1.000  Cr
  Cr436    1.0000 0.45763  0.04426  0.68145  Biso   1.000  Cr
  Cr437    1.0000 0.76045  0.17484  0.90502  Biso   1.000  Cr
  Cr438    1.0000 0.95647  0.54353  0.68224  Biso   1.000  Cr
  Cr439    1.0000 0.76119  0.67639  0.40494  Biso   1.000  Cr
  Cr440    1.0000 0.95816  0.04353  0.18089  Biso   1.000  Cr
  Cr441    1.0000 0.76009  0.57376  0.84543  Biso   1.000  Cr
  Cr442    1.0000 0.95756  0.20719  0.06817  Biso   1.000  Cr
  Cr443    1.0000 0.76023  0.07466  0.34428  Biso   1.000  Cr
  Cr444    1.0000 0.95661  0.70631  0.56785  Biso   1.000  Cr
  Cr445    1.0000 0.26029  0.57427  0.34596  Biso   1.000  Cr
  Cr446    1.0000 0.45661  0.20754  0.56823  Biso   1.000  Cr
  Cr447    1.0000 0.26053  0.07382  0.84484  Biso   1.000  Cr
  Cr448    1.0000 0.45759  0.70606  0.06942  Biso   1.000  Cr
  Cr449    1.0000 0.99056  0.67562  0.34493  Biso   1.000  Cr
  Cr450    1.0000 0.79273  0.04411  0.56801  Biso   1.000  Cr
  Cr451    1.0000 0.98869  0.17532  0.84514  Biso   1.000  Cr
  Cr452    1.0000 0.79304  0.54144  0.06878  Biso   1.000  Cr
  Cr453    1.0000 0.49069  0.67552  0.84493  Biso   1.000  Cr
  Cr454    1.0000 0.29280  0.04384  0.06690  Biso   1.000  Cr
  Cr455    1.0000 0.48937  0.17543  0.34409  Biso   1.000  Cr
  Cr456    1.0000 0.29211  0.54370  0.56881  Biso   1.000  Cr
  Cr457    1.0000 0.48961  0.07321  0.90563  Biso   1.000  Cr
  Cr458    1.0000 0.29186  0.70554  0.68120  Biso   1.000  Cr
  Cr459    1.0000 0.48891  0.57591  0.40490  Biso   1.000  Cr
  Cr460    1.0000 0.29275  0.20657  0.18177  Biso   1.000  Cr
  Cr461    1.0000 0.98879  0.07338  0.40478  Biso   1.000  Cr
  Cr462    1.0000 0.79320  0.70590  0.18187  Biso   1.000  Cr
  Cr463    1.0000 0.98898  0.57488  0.90577  Biso   1.000  Cr
  Cr464    1.0000 0.79284  0.20650  0.68189  Biso   1.000  Cr
  Cr465    1.0000 0.90509  0.07464  0.49016  Biso   1.000  Cr
  Cr466    1.0000 0.68102  0.70731  0.29305  Biso   1.000  Cr
  Cr467    1.0000 0.90441  0.57481  0.99043  Biso   1.000  Cr
  Cr468    1.0000 0.68175  0.20603  0.79206  Biso   1.000  Cr
  Cr469    1.0000 0.40588  0.07393  0.99047  Biso   1.000  Cr
  Cr470    1.0000 0.18156  0.70646  0.79248  Biso   1.000  Cr
  Cr471    1.0000 0.40543  0.57465  0.48994  Biso   1.000  Cr
  Cr472    1.0000 0.18129  0.20614  0.29378  Biso   1.000  Cr
  Cr473    1.0000 0.34609  0.67607  0.98837  Biso   1.000  Cr
  Cr474    1.0000 0.56856  0.04234  0.79286  Biso   1.000  Cr
  Cr475    1.0000 0.34572  0.17520  0.48891  Biso   1.000  Cr
  Cr476    1.0000 0.56814  0.54293  0.29306  Biso   1.000  Cr
  Cr477    1.0000 0.84466  0.67551  0.48882  Biso   1.000  Cr
  Cr478    1.0000 0.06871  0.04251  0.29220  Biso   1.000  Cr
  Cr479    1.0000 0.84587  0.17464  0.98820  Biso   1.000  Cr
  Cr480    1.0000 0.06863  0.54347  0.79295  Biso   1.000  Cr
  Cr481    1.0000 0.84458  0.57420  0.76059  Biso   1.000  Cr
  Cr482    1.0000 0.06914  0.20672  0.95688  Biso   1.000  Cr
  Cr483    1.0000 0.84532  0.07481  0.26012  Biso   1.000  Cr
  Cr484    1.0000 0.06965  0.70637  0.45749  Biso   1.000  Cr
  Cr485    1.0000 0.34557  0.57517  0.25996  Biso   1.000  Cr
  Cr486    1.0000 0.56847  0.20494  0.45759  Biso   1.000  Cr
  Cr487    1.0000 0.34506  0.07512  0.76044  Biso   1.000  Cr
  Cr488    1.0000 0.56942  0.70645  0.95719  Biso   1.000  Cr
  Cr489    1.0000 0.40489  0.17633  0.26036  Biso   1.000  Cr
  Cr490    1.0000 0.18155  0.54221  0.45772  Biso   1.000  Cr
  Cr491    1.0000 0.40525  0.67626  0.76020  Biso   1.000  Cr
  Cr492    1.0000 0.18020  0.04473  0.95740  Biso   1.000  Cr
  Cr493    1.0000 0.90513  0.17716  0.76047  Biso   1.000  Cr
  Cr494    1.0000 0.68101  0.54277  0.95798  Biso   1.000  Cr
  Cr495    1.0000 0.90583  0.67560  0.25965  Biso   1.000  Cr
  Cr496    1.0000 0.68140  0.04367  0.45732  Biso   1.000  Cr
  Cr497    1.0000 0.49044  0.90535  0.07390  Biso   1.000  Cr
  Cr498    1.0000 0.29296  0.68122  0.70758  Biso   1.000  Cr
  Cr499    1.0000 0.48812  0.40397  0.57506  Biso   1.000  Cr
  Cr500    1.0000 0.29270  0.18050  0.20645  Biso   1.000  Cr
  Cr501    1.0000 0.98997  0.90559  0.57442  Biso   1.000  Cr
  Cr502    1.0000 0.79296  0.68120  0.20801  Biso   1.000  Cr
  Cr503    1.0000 0.98938  0.40446  0.07535  Biso   1.000  Cr
  Cr504    1.0000 0.79296  0.18061  0.70670  Biso   1.000  Cr
  Cr505    1.0000 0.98806  0.34635  0.67516  Biso   1.000  Cr
  Cr506    1.0000 0.79151  0.56715  0.04380  Biso   1.000  Cr
  Cr507    1.0000 0.98979  0.84557  0.17424  Biso   1.000  Cr
  Cr508    1.0000 0.79180  0.06955  0.54277  Biso   1.000  Cr
  Cr509    1.0000 0.48912  0.34584  0.17503  Biso   1.000  Cr
  Cr510    1.0000 0.29262  0.56892  0.54344  Biso   1.000  Cr
  Cr511    1.0000 0.48890  0.84553  0.67654  Biso   1.000  Cr
  Cr512    1.0000 0.29210  0.06939  0.04182  Biso   1.000  Cr
  Cr513    1.0000 0.76075  0.84564  0.57647  Biso   1.000  Cr
  Cr514    1.0000 0.95843  0.06906  0.20622  Biso   1.000  Cr
  Cr515    1.0000 0.76043  0.34523  0.07552  Biso   1.000  Cr
  Cr516    1.0000 0.95760  0.56930  0.70709  Biso   1.000  Cr
  Cr517    1.0000 0.26193  0.84590  0.07449  Biso   1.000  Cr
  Cr518    1.0000 0.45797  0.06971  0.70672  Biso   1.000  Cr
  Cr519    1.0000 0.25982  0.34598  0.57654  Biso   1.000  Cr
  Cr520    1.0000 0.45729  0.56848  0.20602  Biso   1.000  Cr
  Cr521    1.0000 0.26031  0.40354  0.17605  Biso   1.000  Cr
  Cr522    1.0000 0.45810  0.18170  0.54372  Biso   1.000  Cr
  Cr523    1.0000 0.26019  0.90381  0.67580  Biso   1.000  Cr
  Cr524    1.0000 0.45863  0.68131  0.04355  Biso   1.000  Cr
  Cr525    1.0000 0.75982  0.40359  0.67446  Biso   1.000  Cr
  Cr526    1.0000 0.95788  0.18144  0.04337  Biso   1.000  Cr
  Cr527    1.0000 0.76170  0.90438  0.17536  Biso   1.000  Cr
  Cr528    1.0000 0.95776  0.68096  0.54244  Biso   1.000  Cr
  Cr529    1.0000 0.07451  0.49035  0.90596  Biso   1.000  Cr
  Cr530    1.0000 0.70614  0.29123  0.68091  Biso   1.000  Cr
  Cr531    1.0000 0.07547  0.98926  0.40511  Biso   1.000  Cr
  Cr532    1.0000 0.70776  0.79114  0.18066  Biso   1.000  Cr
  Cr533    1.0000 0.57437  0.48918  0.40546  Biso   1.000  Cr
  Cr534    1.0000 0.20665  0.29139  0.18235  Biso   1.000  Cr
  Cr535    1.0000 0.57501  0.98826  0.90460  Biso   1.000  Cr
  Cr536    1.0000 0.20607  0.79102  0.68046  Biso   1.000  Cr
  Cr537    1.0000 0.67566  0.98946  0.34446  Biso   1.000  Cr
  Cr538    1.0000 0.04183  0.79213  0.56901  Biso   1.000  Cr
  Cr539    1.0000 0.67531  0.48892  0.84479  Biso   1.000  Cr
  Cr540    1.0000 0.04306  0.29164  0.06865  Biso   1.000  Cr
  Cr541    1.0000 0.17514  0.99048  0.84559  Biso   1.000  Cr
  Cr542    1.0000 0.54393  0.79167  0.07010  Biso   1.000  Cr
  Cr543    1.0000 0.17606  0.48846  0.34516  Biso   1.000  Cr
  Cr544    1.0000 0.54193  0.29194  0.56820  Biso   1.000  Cr
  Cr545    1.0000 0.57561  0.75942  0.84483  Biso   1.000  Cr
  Cr546    1.0000 0.20705  0.95763  0.06698  Biso   1.000  Cr
  Cr547    1.0000 0.57530  0.26082  0.34571  Biso   1.000  Cr
  Cr548    1.0000 0.20578  0.45821  0.56992  Biso   1.000  Cr
  Cr549    1.0000 0.07495  0.75999  0.34496  Biso   1.000  Cr
  Cr550    1.0000 0.70720  0.95745  0.56846  Biso   1.000  Cr
  Cr551    1.0000 0.07433  0.26140  0.84507  Biso   1.000  Cr
  Cr552    1.0000 0.70628  0.45708  0.06908  Biso   1.000  Cr
  Cr553    1.0000 0.17588  0.25999  0.40552  Biso   1.000  Cr
  Cr554    1.0000 0.54403  0.45798  0.18115  Biso   1.000  Cr
  Cr555    1.0000 0.17501  0.76053  0.90514  Biso   1.000  Cr
  Cr556    1.0000 0.54316  0.95822  0.68134  Biso   1.000  Cr
  Cr557    1.0000 0.67525  0.26086  0.90462  Biso   1.000  Cr
  Cr558    1.0000 0.04291  0.45790  0.68226  Biso   1.000  Cr
  Cr559    1.0000 0.67459  0.76134  0.40546  Biso   1.000  Cr
  Cr560    1.0000 0.04347  0.95752  0.18038  Biso   1.000  Cr
  Cr561    1.0000 0.32641  0.65552  0.01064  Biso   1.000  Cr
  Cr562    1.0000 0.95659  0.43153  0.20823  Biso   1.000  Cr
  Cr563    1.0000 0.32518  0.15507  0.51086  Biso   1.000  Cr
  Cr564    1.0000 0.95645  0.93209  0.70792  Biso   1.000  Cr
  Cr565    1.0000 0.82474  0.65505  0.51078  Biso   1.000  Cr
  Cr566    1.0000 0.45563  0.43104  0.70855  Biso   1.000  Cr
  Cr567    1.0000 0.82585  0.15482  0.01074  Biso   1.000  Cr
  Cr568    1.0000 0.45847  0.93142  0.20742  Biso   1.000  Cr
  Cr569    1.0000 0.92550  0.09612  0.51060  Biso   1.000  Cr
  Cr570    1.0000 0.29308  0.31615  0.70804  Biso   1.000  Cr
  Cr571    1.0000 0.92482  0.59653  0.01046  Biso   1.000  Cr
  Cr572    1.0000 0.29515  0.81871  0.20853  Biso   1.000  Cr
  Cr573    1.0000 0.42606  0.09548  0.01111  Biso   1.000  Cr
  Cr574    1.0000 0.79342  0.31730  0.20757  Biso   1.000  Cr
  Cr575    1.0000 0.42525  0.59630  0.51066  Biso   1.000  Cr
  Cr576    1.0000 0.79528  0.81814  0.70790  Biso   1.000  Cr
  Cr577    1.0000 0.82446  0.59514  0.73910  Biso   1.000  Cr
  Cr578    1.0000 0.45852  0.81876  0.54354  Biso   1.000  Cr
  Cr579    1.0000 0.82535  0.09613  0.23939  Biso   1.000  Cr
  Cr580    1.0000 0.45719  0.31823  0.04241  Biso   1.000  Cr
  Cr581    1.0000 0.32428  0.59620  0.23982  Biso   1.000  Cr
  Cr582    1.0000 0.95742  0.81849  0.04219  Biso   1.000  Cr
  Cr583    1.0000 0.32447  0.09606  0.73929  Biso   1.000  Cr
  Cr584    1.0000 0.95720  0.31802  0.54210  Biso   1.000  Cr
  Cr585    1.0000 0.42510  0.15524  0.23934  Biso   1.000  Cr
  Cr586    1.0000 0.79328  0.93152  0.04311  Biso   1.000  Cr
  Cr587    1.0000 0.42597  0.65541  0.73932  Biso   1.000  Cr
  Cr588    1.0000 0.79421  0.43252  0.54254  Biso   1.000  Cr
  Cr589    1.0000 0.92554  0.15629  0.73940  Biso   1.000  Cr
  Cr590    1.0000 0.29392  0.93226  0.54304  Biso   1.000  Cr
  Cr591    1.0000 0.92649  0.65459  0.23879  Biso   1.000  Cr
  Cr592    1.0000 0.29352  0.43155  0.04372  Biso   1.000  Cr
  Cr593    1.0000 0.15486  0.23916  0.42605  Biso   1.000  Cr
  Cr594    1.0000 0.93133  0.04413  0.79271  Biso   1.000  Cr
  Cr595    1.0000 0.15501  0.73892  0.92604  Biso   1.000  Cr
  Cr596    1.0000 0.93178  0.54292  0.29355  Biso   1.000  Cr
  Cr597    1.0000 0.65510  0.23919  0.92518  Biso   1.000  Cr
  Cr598    1.0000 0.43179  0.04345  0.29353  Biso   1.000  Cr
  Cr599    1.0000 0.65503  0.73926  0.42618  Biso   1.000  Cr
  Cr600    1.0000 0.43126  0.54275  0.79289  Biso   1.000  Cr
  Cr601    1.0000 0.59652  0.73888  0.82379  Biso   1.000  Cr
  Cr602    1.0000 0.81869  0.54266  0.45464  Biso   1.000  Cr
  Cr603    1.0000 0.59542  0.23973  0.32467  Biso   1.000  Cr
  Cr604    1.0000 0.81882  0.04249  0.95592  Biso   1.000  Cr
  Cr605    1.0000 0.09607  0.73961  0.32392  Biso   1.000  Cr
  Cr606    1.0000 0.31948  0.54280  0.95682  Biso   1.000  Cr
  Cr607    1.0000 0.09405  0.23972  0.82393  Biso   1.000  Cr
  Cr608    1.0000 0.31894  0.04266  0.45588  Biso   1.000  Cr
  Cr609    1.0000 0.09529  0.51107  0.92702  Biso   1.000  Cr
  Cr610    1.0000 0.31917  0.70814  0.29365  Biso   1.000  Cr
  Cr611    1.0000 0.09526  0.01122  0.42576  Biso   1.000  Cr
  Cr612    1.0000 0.31877  0.20780  0.79632  Biso   1.000  Cr
  Cr613    1.0000 0.59428  0.51117  0.42569  Biso   1.000  Cr
  Cr614    1.0000 0.81979  0.70755  0.79367  Biso   1.000  Cr
  Cr615    1.0000 0.59516  0.01033  0.92473  Biso   1.000  Cr
  Cr616    1.0000 0.81922  0.20729  0.29454  Biso   1.000  Cr
  Cr617    1.0000 0.65489  0.01045  0.32374  Biso   1.000  Cr
  Cr618    1.0000 0.43028  0.20850  0.95588  Biso   1.000  Cr
  Cr619    1.0000 0.65409  0.50995  0.82449  Biso   1.000  Cr
  Cr620    1.0000 0.43067  0.70936  0.45574  Biso   1.000  Cr
  Cr621    1.0000 0.15496  0.00985  0.82289  Biso   1.000  Cr
  Cr622    1.0000 0.93048  0.20879  0.45528  Biso   1.000  Cr
  Cr623    1.0000 0.15517  0.51012  0.32519  Biso   1.000  Cr
  Cr624    1.0000 0.93009  0.70932  0.95445  Biso   1.000  Cr
  Cr625    1.0000 0.73859  0.82550  0.59651  Biso   1.000  Cr
  Cr626    1.0000 0.54085  0.45529  0.81915  Biso   1.000  Cr
  Cr627    1.0000 0.73854  0.32393  0.09464  Biso   1.000  Cr
  Cr628    1.0000 0.54233  0.95671  0.31887  Biso   1.000  Cr
  Cr629    1.0000 0.24031  0.82658  0.09594  Biso   1.000  Cr
  Cr630    1.0000 0.04266  0.45661  0.32006  Biso   1.000  Cr
  Cr631    1.0000 0.23821  0.32521  0.59651  Biso   1.000  Cr
  Cr632    1.0000 0.04192  0.95720  0.81939  Biso   1.000  Cr
  Cr633    1.0000 0.23953  0.42498  0.15590  Biso   1.000  Cr
  Cr634    1.0000 0.04247  0.79242  0.93095  Biso   1.000  Cr
  Cr635    1.0000 0.23969  0.92562  0.65540  Biso   1.000  Cr
  Cr636    1.0000 0.04200  0.29244  0.43039  Biso   1.000  Cr
  Cr637    1.0000 0.73910  0.42529  0.65455  Biso   1.000  Cr
  Cr638    1.0000 0.54244  0.79317  0.43185  Biso   1.000  Cr
  Cr639    1.0000 0.73984  0.92531  0.15550  Biso   1.000  Cr
  Cr640    1.0000 0.54216  0.29183  0.93068  Biso   1.000  Cr
  Cr641    1.0000 0.00952  0.32558  0.65517  Biso   1.000  Cr
  Cr642    1.0000 0.20727  0.95757  0.43245  Biso   1.000  Cr
  Cr643    1.0000 0.01129  0.82453  0.15443  Biso   1.000  Cr
  Cr644    1.0000 0.20764  0.45781  0.93194  Biso   1.000  Cr
  Cr645    1.0000 0.51056  0.32466  0.15540  Biso   1.000  Cr
  Cr646    1.0000 0.70753  0.95703  0.93205  Biso   1.000  Cr
  Cr647    1.0000 0.50987  0.82437  0.65613  Biso   1.000  Cr
  Cr648    1.0000 0.70671  0.45723  0.43233  Biso   1.000  Cr
  Cr649    1.0000 0.51128  0.92598  0.09495  Biso   1.000  Cr
  Cr650    1.0000 0.70798  0.29318  0.31857  Biso   1.000  Cr
  Cr651    1.0000 0.51018  0.42421  0.59522  Biso   1.000  Cr
  Cr652    1.0000 0.70794  0.79215  0.81823  Biso   1.000  Cr
  Cr653    1.0000 0.01085  0.92607  0.59548  Biso   1.000  Cr
  Cr654    1.0000 0.20681  0.29234  0.81890  Biso   1.000  Cr
  Cr655    1.0000 0.01130  0.42426  0.09602  Biso   1.000  Cr
  Cr656    1.0000 0.20787  0.79324  0.31877  Biso   1.000  Cr
  Cr657    1.0000 0.92804  0.90641  0.82021  Biso   1.000  Cr
  Cr658    1.0000 0.42930  0.90537  0.32092  Biso   1.000  Cr
  Cr659    1.0000 0.42746  0.40450  0.82053  Biso   1.000  Cr
  Cr660    1.0000 0.82069  0.34513  0.31946  Biso   1.000  Cr
  Cr661    1.0000 0.82017  0.84486  0.82015  Biso   1.000  Cr
  Cr662    1.0000 0.32073  0.84499  0.32072  Biso   1.000  Cr
  Cr663    1.0000 0.32032  0.40449  0.93035  Biso   1.000  Cr
  Cr664    1.0000 0.31974  0.90494  0.42999  Biso   1.000  Cr
  Cr665    1.0000 0.81950  0.40426  0.42984  Biso   1.000  Cr
  Cr666    1.0000 0.43062  0.84771  0.43078  Biso   1.000  Cr
  Cr667    1.0000 0.43037  0.34564  0.92999  Biso   1.000  Cr
  Cr668    1.0000 0.93112  0.84778  0.92986  Biso   1.000  Cr
  Cr669    1.0000 0.92985  0.34606  0.43021  Biso   1.000  Cr
  Cr670    1.0000 0.90598  0.82239  0.93020  Biso   1.000  Cr
  Cr671    1.0000 0.90424  0.32101  0.43017  Biso   1.000  Cr
  Cr672    1.0000 0.40530  0.82246  0.43176  Biso   1.000  Cr
  Cr673    1.0000 0.34370  0.31991  0.82186  Biso   1.000  Cr
  Cr674    1.0000 0.84652  0.32028  0.31956  Biso   1.000  Cr
  Cr675    1.0000 0.40415  0.93073  0.32012  Biso   1.000  Cr
  Cr676    1.0000 0.40238  0.42993  0.82084  Biso   1.000  Cr
  Cr677    1.0000 0.84436  0.42982  0.42833  Biso   1.000  Cr
  Cr678    1.0000 0.84394  0.92996  0.93066  Biso   1.000  Cr
  Cr679    1.0000 0.34595  0.42945  0.93206  Biso   1.000  Cr
  Cr680    1.0000 0.34443  0.93066  0.42863  Biso   1.000  Cr
  Cr681    1.0000 0.65493  0.17862  0.67900  Biso   1.000  Cr
  Cr682    1.0000 0.15430  0.17916  0.17988  Biso   1.000  Cr
  Cr683    1.0000 0.09539  0.07003  0.18075  Biso   1.000  Cr
  Cr684    1.0000 0.09517  0.56992  0.67856  Biso   1.000  Cr
  Cr685    1.0000 0.15334  0.57146  0.56962  Biso   1.000  Cr
  Cr686    1.0000 0.15451  0.06945  0.07098  Biso   1.000  Cr
  Cr687    1.0000 0.65401  0.56945  0.07128  Biso   1.000  Cr
  Cr688    1.0000 0.65361  0.06941  0.56976  Biso   1.000  Cr
  Cr689    1.0000 0.59671  0.67932  0.07060  Biso   1.000  Cr
  Cr690    1.0000 0.59505  0.17936  0.57027  Biso   1.000  Cr
  Cr691    1.0000 0.56992  0.15399  0.57050  Biso   1.000  Cr
  Cr692    1.0000 0.57171  0.65380  0.06938  Biso   1.000  Cr
  Cr693    1.0000 0.07029  0.15366  0.06891  Biso   1.000  Cr
  Cr694    1.0000 0.07027  0.65547  0.57051  Biso   1.000  Cr
  Cr695    1.0000 0.06976  0.59488  0.67929  Biso   1.000  Cr
  Cr696    1.0000 0.56938  0.59684  0.18068  Biso   1.000  Cr
  Cr697    1.0000 0.68048  0.65406  0.18000  Biso   1.000  Cr
  Cr698    1.0000 0.68107  0.15452  0.67921  Biso   1.000  Cr
  Cr699    1.0000 0.18041  0.15488  0.17954  Biso   1.000  Cr
  Cr700    1.0000 0.17988  0.09451  0.07096  Biso   1.000  Cr
  Cr701    1.0000 0.17953  0.59570  0.57000  Biso   1.000  Cr
  Cr702    1.0000 0.07091  0.09628  0.18012  Biso   1.000  Cr
  Cr703    1.0000 0.57072  0.09609  0.68115  Biso   1.000  Cr
  Cr704    1.0000 0.17976  0.65316  0.68047  Biso   1.000  Cr
  Cr705    1.0000 0.68061  0.59322  0.07152  Biso   1.000  Cr
  Cr706    1.0000 0.67924  0.09434  0.57020  Biso   1.000  Cr
  Cr707    1.0000 0.09540  0.17884  0.07026  Biso   1.000  Cr
  Cr708    1.0000 0.09536  0.68077  0.57186  Biso   1.000  Cr
  Cr709    1.0000 0.65497  0.67893  0.17984  Biso   1.000  Cr
  Cr710    1.0000 0.15432  0.67826  0.68070  Biso   1.000  Cr
  Cr711    1.0000 0.59547  0.07024  0.68031  Biso   1.000  Cr
  Cr712    1.0000 0.59430  0.57118  0.18008  Biso   1.000  Cr
  Cr713    1.0000 0.34712  0.82076  0.32145  Biso   1.000  Cr
  Cr714    1.0000 0.84701  0.82109  0.82039  Biso   1.000  Cr
  Cr715    1.0000 0.90299  0.93183  0.82115  Biso   1.000  Cr
  Cr716    1.0000 0.90404  0.43033  0.31942  Biso   1.000  Cr
  Cr717    1.0000 0.40485  0.32062  0.93033  Biso   1.000  Cr
  Cr718    1.0000 0.92957  0.40547  0.32060  Biso   1.000  Cr
  Cr719    1.0000 0.31883  0.34547  0.81988  Biso   1.000  Cr
  Cr720    1.0000 0.81973  0.90365  0.92985  Biso   1.000  Cr
  Cr721    1.0000 0.13604  0.36275  0.88744  Biso   1.000  Cr
  Cr722    1.0000 0.13667  0.86227  0.38733  Biso   1.000  Cr
  Cr723    1.0000 0.63637  0.36186  0.38845  Biso   1.000  Cr
  Cr724    1.0000 0.61365  0.88874  0.38824  Biso   1.000  Cr
  Cr725    1.0000 0.11397  0.88784  0.88814  Biso   1.000  Cr
  Cr726    1.0000 0.11399  0.38725  0.38937  Biso   1.000  Cr
  Cr727    1.0000 0.11390  0.86258  0.86279  Biso   1.000  Cr
  Cr728    1.0000 0.11423  0.36238  0.36360  Biso   1.000  Cr
  Cr729    1.0000 0.61350  0.86250  0.36380  Biso   1.000  Cr
  Cr730    1.0000 0.61403  0.36217  0.86262  Biso   1.000  Cr
  Cr731    1.0000 0.63810  0.38784  0.36375  Biso   1.000  Cr
  Cr732    1.0000 0.63665  0.88720  0.86318  Biso   1.000  Cr
  Cr733    1.0000 0.88733  0.13462  0.36263  Biso   1.000  Cr
  Cr734    1.0000 0.88738  0.63463  0.86194  Biso   1.000  Cr
  Cr735    1.0000 0.38739  0.63653  0.36272  Biso   1.000  Cr
  Cr736    1.0000 0.38850  0.61364  0.88704  Biso   1.000  Cr
  Cr737    1.0000 0.38821  0.11409  0.38738  Biso   1.000  Cr
  Cr738    1.0000 0.86116  0.11369  0.86157  Biso   1.000  Cr
  Cr739    1.0000 0.86271  0.61456  0.36168  Biso   1.000  Cr
  Cr740    1.0000 0.36237  0.11384  0.36241  Biso   1.000  Cr
  Cr741    1.0000 0.36221  0.61391  0.86254  Biso   1.000  Cr
  Cr742    1.0000 0.36241  0.63576  0.38835  Biso   1.000  Cr
  Cr743    1.0000 0.86248  0.63482  0.88766  Biso   1.000  Cr
  Cr744    1.0000 0.36297  0.88675  0.13675  Biso   1.000  Cr
  Cr745    1.0000 0.36081  0.38761  0.63768  Biso   1.000  Cr
  Cr746    1.0000 0.86255  0.88765  0.63617  Biso   1.000  Cr
  Cr747    1.0000 0.88753  0.38746  0.61283  Biso   1.000  Cr
  Cr748    1.0000 0.88786  0.88853  0.11467  Biso   1.000  Cr
  Cr749    1.0000 0.38789  0.38739  0.11388  Biso   1.000  Cr
  Cr750    1.0000 0.86364  0.86217  0.11350  Biso   1.000  Cr
  Cr751    1.0000 0.86229  0.36223  0.61186  Biso   1.000  Cr
  Cr752    1.0000 0.36258  0.86223  0.61348  Biso   1.000  Cr
  Cr753    1.0000 0.36273  0.36207  0.11321  Biso   1.000  Cr
  Cr754    1.0000 0.38643  0.36246  0.63683  Biso   1.000  Cr
  Cr755    1.0000 0.38902  0.86210  0.13650  Biso   1.000  Cr
  Cr756    1.0000 0.11125  0.38692  0.61313  Biso   1.000  Cr
  Cr757    1.0000 0.11313  0.88654  0.11218  Biso   1.000  Cr
  Cr758    1.0000 0.63841  0.86460  0.11206  Biso   1.000  Cr
  Cr759    1.0000 0.13741  0.86259  0.61214  Biso   1.000  Cr
  Cr760    1.0000 0.61151  0.36288  0.63736  Biso   1.000  Cr
  Cr761    1.0000 0.61322  0.86306  0.13760  Biso   1.000  Cr
  Cr762    1.0000 0.13863  0.88667  0.13732  Biso   1.000  Cr
  Cr763    1.0000 0.13682  0.38704  0.63829  Biso   1.000  Cr
  Cr764    1.0000 0.63730  0.88731  0.63729  Biso   1.000  Cr
  Cr765    1.0000 0.63770  0.38620  0.13853  Biso   1.000  Cr
  Cr766    1.0000 0.88615  0.13780  0.13731  Biso   1.000  Cr
  Cr767    1.0000 0.88686  0.63734  0.63743  Biso   1.000  Cr
  Cr768    1.0000 0.38581  0.13887  0.63784  Biso   1.000  Cr
  Cr769    1.0000 0.38640  0.63743  0.13711  Biso   1.000  Cr
  Cr770    1.0000 0.36473  0.63827  0.61288  Biso   1.000  Cr
  Cr771    1.0000 0.36404  0.13778  0.11188  Biso   1.000  Cr
  Cr772    1.0000 0.86352  0.11260  0.63723  Biso   1.000  Cr
  Cr773    1.0000 0.86280  0.61189  0.13744  Biso   1.000  Cr
  Cr774    1.0000 0.38584  0.61217  0.11181  Biso   1.000  Cr
  Cr775    1.0000 0.88588  0.61247  0.61164  Biso   1.000  Cr
  Cr776    1.0000 0.88591  0.11220  0.11228  Biso   1.000  Cr
  Cr777    1.0000 0.63801  0.61269  0.36363  Biso   1.000  Cr
  Cr778    1.0000 0.13753  0.61294  0.86401  Biso   1.000  Cr
  Cr779    1.0000 0.13756  0.13779  0.88472  Biso   1.000  Cr
  Cr780    1.0000 0.13822  0.63790  0.38555  Biso   1.000  Cr
  Cr781    1.0000 0.63718  0.13766  0.38564  Biso   1.000  Cr
  Cr782    1.0000 0.63747  0.63699  0.88625  Biso   1.000  Cr
  Cr783    1.0000 0.61224  0.11191  0.38476  Biso   1.000  Cr
  Cr784    1.0000 0.61206  0.61166  0.88551  Biso   1.000  Cr
  Cr785    1.0000 0.11218  0.11244  0.88401  Biso   1.000  Cr
  Cr786    1.0000 0.11167  0.63764  0.86453  Biso   1.000  Cr
  Cr787    1.0000 0.11162  0.13630  0.36336  Biso   1.000  Cr
  Cr788    1.0000 0.86316  0.63733  0.11214  Biso   1.000  Cr
  Cr789    1.0000 0.86435  0.13803  0.61205  Biso   1.000  Cr
  Cr790    1.0000 0.38596  0.11306  0.61274  Biso   1.000  Cr
  Cr791    1.0000 0.36333  0.61217  0.63736  Biso   1.000  Cr
  Cr792    1.0000 0.36288  0.11239  0.13710  Biso   1.000  Cr
  Cr793    1.0000 0.11172  0.86345  0.63711  Biso   1.000  Cr
  Cr794    1.0000 0.11212  0.36276  0.13831  Biso   1.000  Cr
  Cr795    1.0000 0.61256  0.38594  0.11282  Biso   1.000  Cr
  Cr796    1.0000 0.61162  0.88749  0.61225  Biso   1.000  Cr
  Cr797    1.0000 0.63702  0.36308  0.61220  Biso   1.000  Cr
  Cr798    1.0000 0.13752  0.36239  0.11307  Biso   1.000  Cr
  Cr799    1.0000 0.63730  0.11244  0.86406  Biso   1.000  Cr
  Cr800    1.0000 0.13804  0.11217  0.36499  Biso   1.000  Cr
  Cr801    1.0000 0.11324  0.61216  0.38548  Biso   1.000  Cr
  Cr802    1.0000 0.61261  0.63787  0.36381  Biso   1.000  Cr
  Cr803    1.0000 0.61195  0.13780  0.86399  Biso   1.000  Cr
  Cr804    1.0000 0.88794  0.61469  0.38724  Biso   1.000  Cr
  Cr805    1.0000 0.88701  0.11378  0.88648  Biso   1.000  Cr
  Cr806    1.0000 0.36255  0.13378  0.88865  Biso   1.000  Cr
  Cr807    1.0000 0.86200  0.13439  0.38795  Biso   1.000  Cr
  Cr808    1.0000 0.38738  0.13484  0.86300  Biso   1.000  Cr
  Cr809    1.0000 0.63723  0.86115  0.88781  Biso   1.000  Cr
  Cr810    1.0000 0.13636  0.88837  0.36274  Biso   1.000  Cr
  Cr811    1.0000 0.13661  0.38831  0.86232  Biso   1.000  Cr
  Cr812    1.0000 0.61367  0.38714  0.88839  Biso   1.000  Cr
  Cr813    1.0000 0.86191  0.38811  0.13672  Biso   1.000  Cr
  Cr814    1.0000 0.38733  0.88816  0.61367  Biso   1.000  Cr
  Cr815    1.0000 0.88721  0.36277  0.13639  Biso   1.000  Cr
  Cr816    1.0000 0.88811  0.86270  0.63646  Biso   1.000  Cr
  O1       1.0000 0.15719  0.34151  0.50150  Biso   1.000  O
  O2       1.0000 0.15838  0.84127  0.99979  Biso   1.000  O
  O3       1.0000 0.59221  0.90645  0.99969  Biso   1.000  O
  O4       1.0000 0.59197  0.40785  0.50012  Biso   1.000  O
  O5       1.0000 0.09295  0.84194  0.25003  Biso   1.000  O
  O6       1.0000 0.09177  0.34222  0.75071  Biso   1.000  O
  O7       1.0000 0.65805  0.40721  0.74974  Biso   1.000  O
  O8       1.0000 0.65819  0.90631  0.25091  Biso   1.000  O
  O9       1.0000 0.50009  0.15795  0.34117  Biso   1.000  O
  O10      1.0000 0.99955  0.15790  0.84251  Biso   1.000  O
  O11      1.0000 0.99982  0.59240  0.90856  Biso   1.000  O
  O12      1.0000 0.50004  0.59318  0.40791  Biso   1.000  O
  O13      1.0000 0.25025  0.09162  0.84207  Biso   1.000  O
  O14      1.0000 0.74994  0.09243  0.34147  Biso   1.000  O
  O15      1.0000 0.75038  0.65887  0.40741  Biso   1.000  O
  O16      1.0000 0.25054  0.65762  0.90781  Biso   1.000  O
  O17      1.0000 0.34173  0.49974  0.15867  Biso   1.000  O
  O18      1.0000 0.34230  0.00024  0.65856  Biso   1.000  O
  O19      1.0000 0.90812  0.00018  0.59263  Biso   1.000  O
  O20      1.0000 0.90890  0.50027  0.09221  Biso   1.000  O
  O21      1.0000 0.84237  0.25010  0.09137  Biso   1.000  O
  O22      1.0000 0.84173  0.75036  0.59188  Biso   1.000  O
  O23      1.0000 0.40742  0.75027  0.65734  Biso   1.000  O
  O24      1.0000 0.40780  0.24969  0.15799  Biso   1.000  O
  O25      1.0000 0.09300  0.40716  0.00080  Biso   1.000  O
  O26      1.0000 0.09198  0.90669  0.49977  Biso   1.000  O
  O27      1.0000 0.65820  0.84230  0.50063  Biso   1.000  O
  O28      1.0000 0.65702  0.34197  0.00028  Biso   1.000  O
  O29      1.0000 0.59212  0.34245  0.25112  Biso   1.000  O
  O30      1.0000 0.59257  0.84242  0.75040  Biso   1.000  O
  O31      1.0000 0.15745  0.90693  0.74988  Biso   1.000  O
  O32      1.0000 0.15784  0.40681  0.25079  Biso   1.000  O
  O33      1.0000 0.90854  0.74943  0.15722  Biso   1.000  O
  O34      1.0000 0.90726  0.25018  0.65778  Biso   1.000  O
  O35      1.0000 0.34136  0.25076  0.59152  Biso   1.000  O
  O36      1.0000 0.34216  0.75010  0.09223  Biso   1.000  O
  O37      1.0000 0.84154  0.49997  0.65786  Biso   1.000  O
  O38      1.0000 0.84234  0.00020  0.15836  Biso   1.000  O
  O39      1.0000 0.40702  0.99980  0.09288  Biso   1.000  O
  O40      1.0000 0.40757  0.50002  0.59219  Biso   1.000  O
  O41      1.0000 0.25019  0.59199  0.34260  Biso   1.000  O
  O42      1.0000 0.75001  0.59164  0.84262  Biso   1.000  O
  O43      1.0000 0.74949  0.15747  0.90797  Biso   1.000  O
  O44      1.0000 0.25020  0.15797  0.40745  Biso   1.000  O
  O45      1.0000 0.99948  0.09096  0.40763  Biso   1.000  O
  O46      1.0000 0.49975  0.09105  0.90854  Biso   1.000  O
  O47      1.0000 0.50065  0.65766  0.84181  Biso   1.000  O
  O48      1.0000 0.00040  0.65754  0.34215  Biso   1.000  O
  O49      1.0000 0.84193  0.65811  0.49969  Biso   1.000  O
  O50      1.0000 0.84289  0.15729  0.99916  Biso   1.000  O
  O51      1.0000 0.40859  0.09176  0.00064  Biso   1.000  O
  O52      1.0000 0.40771  0.59239  0.50042  Biso   1.000  O
  O53      1.0000 0.90799  0.15952  0.74992  Biso   1.000  O
  O54      1.0000 0.90899  0.65774  0.24950  Biso   1.000  O
  O55      1.0000 0.34201  0.59304  0.25008  Biso   1.000  O
  O56      1.0000 0.34205  0.09268  0.74982  Biso   1.000  O
  O57      1.0000 0.49912  0.84191  0.65879  Biso   1.000  O
  O58      1.0000 0.00068  0.84223  0.15690  Biso   1.000  O
  O59      1.0000 0.00032  0.40695  0.09280  Biso   1.000  O
  O60      1.0000 0.49931  0.40678  0.59231  Biso   1.000  O
  O61      1.0000 0.75074  0.90782  0.15805  Biso   1.000  O
  O62      1.0000 0.24995  0.90778  0.65811  Biso   1.000  O
  O63      1.0000 0.24907  0.34271  0.59401  Biso   1.000  O
  O64      1.0000 0.74935  0.34153  0.09264  Biso   1.000  O
  O65      1.0000 0.65769  0.49950  0.84203  Biso   1.000  O
  O66      1.0000 0.65815  0.00015  0.34142  Biso   1.000  O
  O67      1.0000 0.09268  0.00040  0.40815  Biso   1.000  O
  O68      1.0000 0.09214  0.50083  0.90924  Biso   1.000  O
  O69      1.0000 0.15764  0.74967  0.90838  Biso   1.000  O
  O70      1.0000 0.15842  0.24919  0.40818  Biso   1.000  O
  O71      1.0000 0.59275  0.25021  0.34238  Biso   1.000  O
  O72      1.0000 0.59332  0.74911  0.84160  Biso   1.000  O
  O73      1.0000 0.90713  0.59270  0.00047  Biso   1.000  O
  O74      1.0000 0.90797  0.09255  0.50018  Biso   1.000  O
  O75      1.0000 0.34259  0.15775  0.49981  Biso   1.000  O
  O76      1.0000 0.34339  0.65854  0.99919  Biso   1.000  O
  O77      1.0000 0.40840  0.65853  0.74989  Biso   1.000  O
  O78      1.0000 0.40765  0.15858  0.24997  Biso   1.000  O
  O79      1.0000 0.84283  0.09250  0.24975  Biso   1.000  O
  O80      1.0000 0.84187  0.59176  0.74986  Biso   1.000  O
  O81      1.0000 0.09159  0.25043  0.84165  Biso   1.000  O
  O82      1.0000 0.09272  0.74977  0.34174  Biso   1.000  O
  O83      1.0000 0.65755  0.75003  0.40856  Biso   1.000  O
  O84      1.0000 0.65791  0.24994  0.90763  Biso   1.000  O
  O85      1.0000 0.15850  0.49935  0.34262  Biso   1.000  O
  O86      1.0000 0.15740  0.00022  0.84114  Biso   1.000  O
  O87      1.0000 0.59233  0.99936  0.90731  Biso   1.000  O
  O88      1.0000 0.59168  0.50016  0.40830  Biso   1.000  O
  O89      1.0000 0.74927  0.40734  0.65703  Biso   1.000  O
  O90      1.0000 0.24982  0.40713  0.15854  Biso   1.000  O
  O91      1.0000 0.25108  0.84388  0.09213  Biso   1.000  O
  O92      1.0000 0.74961  0.84289  0.59379  Biso   1.000  O
  O93      1.0000 0.00022  0.90854  0.59225  Biso   1.000  O
  O94      1.0000 0.50070  0.90840  0.09169  Biso   1.000  O
  O95      1.0000 0.50009  0.34243  0.15775  Biso   1.000  O
  O96      1.0000 0.99891  0.34320  0.65777  Biso   1.000  O
  O97      1.0000 0.20088  0.19987  0.29511  Biso   1.000  O
  O98      1.0000 0.20138  0.70132  0.79502  Biso   1.000  O
  O99      1.0000 0.70137  0.20035  0.79477  Biso   1.000  O
  O100     1.0000 0.70081  0.70182  0.29526  Biso   1.000  O
  O101     1.0000 0.54897  0.04803  0.79561  Biso   1.000  O
  O102     1.0000 0.54858  0.54905  0.29531  Biso   1.000  O
  O103     1.0000 0.04983  0.70094  0.45547  Biso   1.000  O
  O104     1.0000 0.04942  0.20106  0.95454  Biso   1.000  O
  O105     1.0000 0.54858  0.20022  0.45483  Biso   1.000  O
  O106     1.0000 0.70066  0.54845  0.95575  Biso   1.000  O
  O107     1.0000 0.20114  0.54802  0.45537  Biso   1.000  O
  O108     1.0000 0.29479  0.20042  0.20135  Biso   1.000  O
  O109     1.0000 0.29462  0.70078  0.70113  Biso   1.000  O
  O110     1.0000 0.79489  0.20053  0.70151  Biso   1.000  O
  O111     1.0000 0.79532  0.70073  0.20179  Biso   1.000  O
  O112     1.0000 0.79475  0.54745  0.04910  Biso   1.000  O
  O113     1.0000 0.29454  0.54914  0.54904  Biso   1.000  O
  O114     1.0000 0.45558  0.04996  0.70121  Biso   1.000  O
  O115     1.0000 0.45521  0.54854  0.20102  Biso   1.000  O
  O116     1.0000 0.95461  0.70059  0.54810  Biso   1.000  O
  O117     1.0000 0.95499  0.20122  0.04860  Biso   1.000  O
  O118     1.0000 0.45483  0.20144  0.54865  Biso   1.000  O
  O119     1.0000 0.20118  0.29424  0.20204  Biso   1.000  O
  O120     1.0000 0.20089  0.79391  0.70022  Biso   1.000  O
  O121     1.0000 0.70087  0.29430  0.70063  Biso   1.000  O
  O122     1.0000 0.70221  0.79410  0.20034  Biso   1.000  O
  O123     1.0000 0.04747  0.79455  0.54929  Biso   1.000  O
  O124     1.0000 0.04891  0.29429  0.04900  Biso   1.000  O
  O125     1.0000 0.54823  0.29432  0.54867  Biso   1.000  O
  O126     1.0000 0.70080  0.45454  0.04929  Biso   1.000  O
  O127     1.0000 0.20050  0.45519  0.55017  Biso   1.000  O
  O128     1.0000 0.54863  0.95550  0.70104  Biso   1.000  O
  O129     1.0000 0.54909  0.45558  0.20106  Biso   1.000  O
  O130     1.0000 0.95184  0.45146  0.20545  Biso   1.000  O
  O131     1.0000 0.95069  0.95177  0.70573  Biso   1.000  O
  O132     1.0000 0.80026  0.79831  0.70511  Biso   1.000  O
  O133     1.0000 0.79924  0.29765  0.20505  Biso   1.000  O
  O134     1.0000 0.29960  0.79887  0.20500  Biso   1.000  O
  O135     1.0000 0.29877  0.29648  0.70551  Biso   1.000  O
  O136     1.0000 0.45165  0.29849  0.04474  Biso   1.000  O
  O137     1.0000 0.45243  0.79912  0.54515  Biso   1.000  O
  O138     1.0000 0.95161  0.79876  0.04387  Biso   1.000  O
  O139     1.0000 0.29941  0.95210  0.54475  Biso   1.000  O
  O140     1.0000 0.79923  0.95119  0.04451  Biso   1.000  O
  O141     1.0000 0.95144  0.54443  0.29956  Biso   1.000  O
  O142     1.0000 0.95111  0.04603  0.79831  Biso   1.000  O
  O143     1.0000 0.29915  0.04544  0.45068  Biso   1.000  O
  O144     1.0000 0.79897  0.04509  0.95083  Biso   1.000  O
  O145     1.0000 0.80016  0.70542  0.79952  Biso   1.000  O
  O146     1.0000 0.79941  0.20545  0.30006  Biso   1.000  O
  O147     1.0000 0.29960  0.70603  0.29980  Biso   1.000  O
  O148     1.0000 0.29899  0.20544  0.80163  Biso   1.000  O
  O149     1.0000 0.44999  0.20507  0.95075  Biso   1.000  O
  O150     1.0000 0.45047  0.70599  0.45089  Biso   1.000  O
  O151     1.0000 0.94984  0.70585  0.94950  Biso   1.000  O
  O152     1.0000 0.04439  0.45035  0.30050  Biso   1.000  O
  O153     1.0000 0.04421  0.95133  0.79976  Biso   1.000  O
  O154     1.0000 0.54472  0.29725  0.95045  Biso   1.000  O
  O155     1.0000 0.54525  0.79872  0.45152  Biso   1.000  O
  O156     1.0000 0.04529  0.79788  0.95067  Biso   1.000  O
  O157     1.0000 0.20536  0.95151  0.45205  Biso   1.000  O
  O158     1.0000 0.70532  0.95111  0.95166  Biso   1.000  O
  O159     1.0000 0.70607  0.79842  0.79866  Biso   1.000  O
  O160     1.0000 0.70552  0.29911  0.29898  Biso   1.000  O
  O161     1.0000 0.20591  0.79899  0.29901  Biso   1.000  O
  O162     1.0000 0.20451  0.29783  0.79912  Biso   1.000  O
  O163     1.0000 0.45202  0.95090  0.20552  Biso   1.000  O
  O164     1.0000 0.45089  0.45088  0.70568  Biso   1.000  O
  O165     1.0000 0.95170  0.29827  0.54448  Biso   1.000  O
  O166     1.0000 0.29891  0.45145  0.04486  Biso   1.000  O
  O167     1.0000 0.79953  0.45240  0.54412  Biso   1.000  O
  O168     1.0000 0.20570  0.45121  0.95140  Biso   1.000  O
  O169     1.0000 0.70479  0.45174  0.45212  Biso   1.000  O
  O170     1.0000 0.54486  0.95083  0.29926  Biso   1.000  O
  O171     1.0000 0.54387  0.44967  0.79951  Biso   1.000  O
  O172     1.0000 0.04454  0.29761  0.45023  Biso   1.000  O
  O173     1.0000 0.95013  0.20545  0.44990  Biso   1.000  O
  O174     1.0000 0.29967  0.54545  0.95149  Biso   1.000  O
  O175     1.0000 0.79892  0.54504  0.44927  Biso   1.000  O
  O176     1.0000 0.45164  0.04546  0.29890  Biso   1.000  O
  O177     1.0000 0.45091  0.54462  0.79894  Biso   1.000  O
  O178     1.0000 0.04897  0.54934  0.79525  Biso   1.000  O
  O179     1.0000 0.04887  0.04755  0.29482  Biso   1.000  O
  O180     1.0000 0.54955  0.70108  0.95541  Biso   1.000  O
  O181     1.0000 0.70103  0.04927  0.45491  Biso   1.000  O
  O182     1.0000 0.19994  0.05026  0.95525  Biso   1.000  O
  O183     1.0000 0.04805  0.45538  0.70206  Biso   1.000  O
  O184     1.0000 0.04933  0.95477  0.19998  Biso   1.000  O
  O185     1.0000 0.70183  0.95507  0.54868  Biso   1.000  O
  O186     1.0000 0.20099  0.95544  0.04739  Biso   1.000  O
  O187     1.0000 0.54904  0.79384  0.05015  Biso   1.000  O
  O188     1.0000 0.95489  0.54944  0.70192  Biso   1.000  O
  O189     1.0000 0.95608  0.04932  0.20062  Biso   1.000  O
  O190     1.0000 0.45545  0.70082  0.04954  Biso   1.000  O
  O191     1.0000 0.79445  0.04977  0.54824  Biso   1.000  O
  O192     1.0000 0.29460  0.04957  0.04719  Biso   1.000  O
  O193     1.0000 0.07902  0.07912  0.17209  Biso   1.000  O
  O194     1.0000 0.07795  0.57804  0.67077  Biso   1.000  O
  O195     1.0000 0.57878  0.07928  0.67234  Biso   1.000  O
  O196     1.0000 0.57757  0.58001  0.17201  Biso   1.000  O
  O197     1.0000 0.67202  0.17081  0.67047  Biso   1.000  O
  O198     1.0000 0.17065  0.57894  0.57795  Biso   1.000  O
  O199     1.0000 0.57956  0.67070  0.07813  Biso   1.000  O
  O200     1.0000 0.17135  0.07783  0.07944  Biso   1.000  O
  O201     1.0000 0.67046  0.07764  0.57840  Biso   1.000  O
  O202     1.0000 0.67120  0.57695  0.07985  Biso   1.000  O
  O203     1.0000 0.67176  0.67054  0.17135  Biso   1.000  O
  O204     1.0000 0.57822  0.17098  0.57870  Biso   1.000  O
  O205     1.0000 0.07830  0.17038  0.07786  Biso   1.000  O
  O206     1.0000 0.07815  0.67225  0.57941  Biso   1.000  O
  O207     1.0000 0.17104  0.66982  0.67205  Biso   1.000  O
  O208     1.0000 0.17120  0.17122  0.17113  Biso   1.000  O
  O209     1.0000 0.82950  0.32848  0.32786  Biso   1.000  O
  O210     1.0000 0.82945  0.82840  0.82843  Biso   1.000  O
  O211     1.0000 0.92002  0.92325  0.82887  Biso   1.000  O
  O212     1.0000 0.32938  0.42143  0.92278  Biso   1.000  O
  O213     1.0000 0.42221  0.83051  0.42310  Biso   1.000  O
  O214     1.0000 0.82736  0.42107  0.42087  Biso   1.000  O
  O215     1.0000 0.42092  0.92246  0.32881  Biso   1.000  O
  O216     1.0000 0.92282  0.83071  0.92171  Biso   1.000  O
  O217     1.0000 0.32698  0.32916  0.82952  Biso   1.000  O
  O218     1.0000 0.92097  0.32948  0.42167  Biso   1.000  O
  O219     1.0000 0.41945  0.42148  0.82887  Biso   1.000  O
  O220     1.0000 0.32959  0.82845  0.32925  Biso   1.000  O
  O221     1.0000 0.82774  0.92084  0.92180  Biso   1.000  O
  O222     1.0000 0.42154  0.32894  0.92170  Biso   1.000  O
  O223     1.0000 0.92049  0.42208  0.32871  Biso   1.000  O
  O224     1.0000 0.32773  0.92156  0.42079  Biso   1.000  O
  O225     1.0000 0.12585  0.87626  0.12484  Biso   1.000  O
  O226     1.0000 0.12406  0.37665  0.62576  Biso   1.000  O
  O227     1.0000 0.62507  0.37573  0.12584  Biso   1.000  O
  O228     1.0000 0.62442  0.37339  0.62498  Biso   1.000  O
  O229     1.0000 0.62418  0.87704  0.62499  Biso   1.000  O
  O230     1.0000 0.62564  0.87411  0.12526  Biso   1.000  O
  O231     1.0000 0.12496  0.12534  0.87405  Biso   1.000  O
  O232     1.0000 0.12582  0.62503  0.37515  Biso   1.000  O
  O233     1.0000 0.62506  0.12487  0.37486  Biso   1.000  O
  O234     1.0000 0.62545  0.62536  0.37409  Biso   1.000  O
  O235     1.0000 0.62508  0.62434  0.87553  Biso   1.000  O
  O236     1.0000 0.12489  0.62536  0.87463  Biso   1.000  O
  O237     1.0000 0.12452  0.12457  0.37457  Biso   1.000  O
  O238     1.0000 0.87567  0.12519  0.12472  Biso   1.000  O
  O239     1.0000 0.87601  0.62519  0.62465  Biso   1.000  O
  O240     1.0000 0.37559  0.12571  0.62548  Biso   1.000  O
  O241     1.0000 0.37571  0.62492  0.12459  Biso   1.000  O
  O242     1.0000 0.37440  0.62472  0.62512  Biso   1.000  O
  O243     1.0000 0.37384  0.12477  0.12462  Biso   1.000  O
  O244     1.0000 0.87432  0.12499  0.62463  Biso   1.000  O
  O245     1.0000 0.62690  0.37523  0.37575  Biso   1.000  O
  O246     1.0000 0.62657  0.87387  0.87538  Biso   1.000  O
  O247     1.0000 0.12430  0.87531  0.87537  Biso   1.000  O
  O248     1.0000 0.12451  0.37487  0.37649  Biso   1.000  O
  O249     1.0000 0.12595  0.37590  0.87504  Biso   1.000  O
  O250     1.0000 0.62393  0.87563  0.37597  Biso   1.000  O
  O251     1.0000 0.87430  0.37506  0.62275  Biso   1.000  O
  O252     1.0000 0.37607  0.87466  0.12625  Biso   1.000  O
  O253     1.0000 0.87551  0.87531  0.62593  Biso   1.000  O
  O254     1.0000 0.87549  0.87515  0.12435  Biso   1.000  O
  O255     1.0000 0.37356  0.37530  0.62692  Biso   1.000  O
  O256     1.0000 0.87456  0.12410  0.37515  Biso   1.000  O
  O257     1.0000 0.87484  0.62430  0.87483  Biso   1.000  O
  O258     1.0000 0.37563  0.62417  0.87464  Biso   1.000  O
  O259     1.0000 0.37526  0.12436  0.37483  Biso   1.000  O
  O260     1.0000 0.37486  0.62573  0.37519  Biso   1.000  O
  O261     1.0000 0.87413  0.12410  0.87395  Biso   1.000  O
  O262     1.0000 0.87537  0.62503  0.37438  Biso   1.000  O
  O263     1.0000 0.37503  0.12387  0.87549  Biso   1.000  O
  O264     1.0000 0.37483  0.87534  0.62395  Biso   1.000  O
  O265     1.0000 0.37485  0.37490  0.12396  Biso   1.000  O
  O266     1.0000 0.87441  0.37545  0.12627  Biso   1.000  O
  O267     1.0000 0.62421  0.37490  0.87538  Biso   1.000  O
  O268     1.0000 0.12613  0.87498  0.37480  Biso   1.000  O
  O269     1.0000 0.87332  0.62439  0.12466  Biso   1.000  O
  O270     1.0000 0.62441  0.12494  0.87433  Biso   1.000  O
  O271     1.0000 0.12475  0.87340  0.62444  Biso   1.000  O
  O272     1.0000 0.12512  0.37299  0.12582  Biso   1.000  O
  O273     1.0000 0.85534  0.91271  0.92757  Biso   1.000  O
  O274     1.0000 0.31784  0.29754  0.72791  Biso   1.000  O
  O275     1.0000 0.33881  0.32450  0.80156  Biso   1.000  O
  O276     1.0000 0.21487  0.27288  0.81406  Biso   1.000  O
  O277     1.0000 0.21840  0.27385  0.78888  Biso   1.000  O
  O278     1.0000 0.07223  0.92490  0.48413  Biso   1.000  O
  O279     1.0000 0.09360  0.93546  0.49276  Biso   1.000  O
  O280     1.0000 0.08655  0.97127  0.40360  Biso   1.000  O
  O281     1.0000 0.10348  0.98022  0.38699  Biso   1.000  O
  O282     1.0000 0.10473  0.89467  0.38083  Biso   1.000  O
  O283     1.0000 0.12085  0.90344  0.36343  Biso   1.000  O
  O284     1.0000 0.70030  0.93845  0.92388  Biso   1.000  O
  O285     1.0000 0.64511  0.89647  0.88005  Biso   1.000  O
  O286     1.0000 0.18992  0.97839  0.45366  Biso   1.000  O
  O287     1.0000 0.18751  0.96438  0.43277  Biso   1.000  O
  O288     1.0000 0.11661  0.00850  0.42628  Biso   1.000  O
  O289     1.0000 0.12078  0.99169  0.40763  Biso   1.000  O
  O290     1.0000 0.85505  0.41215  0.42492  Biso   1.000  O
  O291     1.0000 0.32420  0.80641  0.22239  Biso   1.000  O
  O292     1.0000 0.33722  0.81654  0.30344  Biso   1.000  O
  O293     1.0000 0.21562  0.77374  0.31385  Biso   1.000  O
  O294     1.0000 0.21974  0.77490  0.28873  Biso   1.000  O
  O295     1.0000 0.07257  0.42507  0.98594  Biso   1.000  O
  O296     1.0000 0.09433  0.43582  0.99306  Biso   1.000  O
  O297     1.0000 0.08387  0.47497  0.89399  Biso   1.000  O
  O298     1.0000 0.10869  0.47943  0.89676  Biso   1.000  O
  O299     1.0000 0.10434  0.39756  0.87078  Biso   1.000  O
  O300     1.0000 0.12853  0.40526  0.87181  Biso   1.000  O
  O301     1.0000 0.69972  0.43838  0.42476  Biso   1.000  O
  O302     1.0000 0.64649  0.39672  0.38083  Biso   1.000  O
  O303     1.0000 0.18999  0.47761  0.95348  Biso   1.000  O
  O304     1.0000 0.18763  0.46405  0.93220  Biso   1.000  O
  O305     1.0000 0.11241  0.49935  0.93124  Biso   1.000  O
  O306     1.0000 0.12287  0.50269  0.90847  Biso   1.000  O
  O307     1.0000 0.35542  0.91314  0.42564  Biso   1.000  O
  O308     1.0000 0.81950  0.29912  0.22649  Biso   1.000  O
  O309     1.0000 0.83597  0.31647  0.30186  Biso   1.000  O
  O310     1.0000 0.71579  0.27371  0.31327  Biso   1.000  O
  O311     1.0000 0.71930  0.27538  0.28815  Biso   1.000  O
  O312     1.0000 0.57277  0.92462  0.98370  Biso   1.000  O
  O313     1.0000 0.59424  0.93500  0.99224  Biso   1.000  O
  O314     1.0000 0.58607  0.97024  0.90317  Biso   1.000  O
  O315     1.0000 0.60303  0.97899  0.88645  Biso   1.000  O
  O316     1.0000 0.60521  0.89351  0.88167  Biso   1.000  O
  O317     1.0000 0.62114  0.90227  0.86406  Biso   1.000  O
  O318     1.0000 0.19973  0.93918  0.42417  Biso   1.000  O
  O319     1.0000 0.14461  0.89763  0.37975  Biso   1.000  O
  O320     1.0000 0.68956  0.97780  0.95277  Biso   1.000  O
  O321     1.0000 0.68764  0.96363  0.93197  Biso   1.000  O
  O322     1.0000 0.61654  0.00786  0.92498  Biso   1.000  O
  O323     1.0000 0.62046  0.99067  0.90671  Biso   1.000  O
  O324     1.0000 0.35320  0.41049  0.93874  Biso   1.000  O
  O325     1.0000 0.82011  0.79879  0.72692  Biso   1.000  O
  O326     1.0000 0.83711  0.81698  0.80236  Biso   1.000  O
  O327     1.0000 0.71573  0.77279  0.81281  Biso   1.000  O
  O328     1.0000 0.71994  0.77453  0.78774  Biso   1.000  O
  O329     1.0000 0.57166  0.42534  0.48472  Biso   1.000  O
  O330     1.0000 0.59264  0.43664  0.49371  Biso   1.000  O
  O331     1.0000 0.58416  0.47375  0.39398  Biso   1.000  O
  O332     1.0000 0.60896  0.47909  0.39588  Biso   1.000  O
  O333     1.0000 0.60605  0.39576  0.38085  Biso   1.000  O
  O334     1.0000 0.62343  0.40375  0.36413  Biso   1.000  O
  O335     1.0000 0.20070  0.43930  0.92323  Biso   1.000  O
  O336     1.0000 0.15337  0.39021  0.87589  Biso   1.000  O
  O337     1.0000 0.68908  0.47826  0.45274  Biso   1.000  O
  O338     1.0000 0.68668  0.46360  0.43229  Biso   1.000  O
  O339     1.0000 0.61152  0.49980  0.43044  Biso   1.000  O
  O340     1.0000 0.62217  0.50287  0.40764  Biso   1.000  O
  O341     1.0000 0.89665  0.33970  0.43739  Biso   1.000  O
  O342     1.0000 0.42889  0.93999  0.22265  Biso   1.000  O
  O343     1.0000 0.40934  0.92436  0.30031  Biso   1.000  O
  O344     1.0000 0.53556  0.97653  0.31368  Biso   1.000  O
  O345     1.0000 0.53228  0.97538  0.28848  Biso   1.000  O
  O346     1.0000 0.67702  0.32413  0.98458  Biso   1.000  O
  O347     1.0000 0.65589  0.31324  0.99354  Biso   1.000  O
  O348     1.0000 0.66424  0.27881  0.90246  Biso   1.000  O
  O349     1.0000 0.64762  0.26944  0.88574  Biso   1.000  O
  O350     1.0000 0.64676  0.35429  0.87034  Biso   1.000  O
  O351     1.0000 0.62311  0.34542  0.87172  Biso   1.000  O
  O352     1.0000 0.04875  0.31142  0.42266  Biso   1.000  O
  O353     1.0000 0.09755  0.35974  0.37705  Biso   1.000  O
  O354     1.0000 0.56045  0.27066  0.95071  Biso   1.000  O
  O355     1.0000 0.56193  0.28516  0.92993  Biso   1.000  O
  O356     1.0000 0.63375  0.24200  0.92527  Biso   1.000  O
  O357     1.0000 0.62985  0.25847  0.90623  Biso   1.000  O
  O358     1.0000 0.89840  0.84104  0.93754  Biso   1.000  O
  O359     1.0000 0.43162  0.45104  0.72784  Biso   1.000  O
  O360     1.0000 0.41251  0.43343  0.80291  Biso   1.000  O
  O361     1.0000 0.53353  0.47482  0.81395  Biso   1.000  O
  O362     1.0000 0.53132  0.47425  0.78858  Biso   1.000  O
  O363     1.0000 0.67814  0.82418  0.48513  Biso   1.000  O
  O364     1.0000 0.65692  0.81354  0.49408  Biso   1.000  O
  O365     1.0000 0.66306  0.77906  0.40416  Biso   1.000  O
  O366     1.0000 0.64698  0.76987  0.38690  Biso   1.000  O
  O367     1.0000 0.64493  0.85554  0.38247  Biso   1.000  O
  O368     1.0000 0.62863  0.84712  0.36499  Biso   1.000  O
  O369     1.0000 0.05059  0.81075  0.92295  Biso   1.000  O
  O370     1.0000 0.09737  0.85997  0.87652  Biso   1.000  O
  O371     1.0000 0.56016  0.77169  0.45194  Biso   1.000  O
  O372     1.0000 0.56211  0.78610  0.43114  Biso   1.000  O
  O373     1.0000 0.63364  0.74216  0.42664  Biso   1.000  O
  O374     1.0000 0.62946  0.75858  0.40758  Biso   1.000  O
  O375     1.0000 0.39758  0.33924  0.93795  Biso   1.000  O
  O376     1.0000 0.93091  0.95100  0.72720  Biso   1.000  O
  O377     1.0000 0.90729  0.92589  0.80100  Biso   1.000  O
  O378     1.0000 0.03482  0.97693  0.81401  Biso   1.000  O
  O379     1.0000 0.03179  0.97576  0.78868  Biso   1.000  O
  O380     1.0000 0.17083  0.32800  0.47909  Biso   1.000  O
  O381     1.0000 0.16565  0.31186  0.49791  Biso   1.000  O
  O382     1.0000 0.16671  0.27516  0.39315  Biso   1.000  O
  O383     1.0000 0.14187  0.26990  0.39433  Biso   1.000  O
  O384     1.0000 0.14663  0.35365  0.37201  Biso   1.000  O
  O385     1.0000 0.12273  0.34550  0.37297  Biso   1.000  O
  O386     1.0000 0.54918  0.31067  0.92270  Biso   1.000  O
  O387     1.0000 0.59763  0.35907  0.87641  Biso   1.000  O
  O388     1.0000 0.06039  0.27116  0.44997  Biso   1.000  O
  O389     1.0000 0.06192  0.28600  0.42945  Biso   1.000  O
  O390     1.0000 0.13770  0.25105  0.42964  Biso   1.000  O
  O391     1.0000 0.12791  0.24696  0.40664  Biso   1.000  O
  O392     1.0000 0.39780  0.84134  0.43865  Biso   1.000  O
  O393     1.0000 0.93233  0.45175  0.22724  Biso   1.000  O
  O394     1.0000 0.91574  0.43463  0.30267  Biso   1.000  O
  O395     1.0000 0.03551  0.47617  0.31454  Biso   1.000  O
  O396     1.0000 0.03201  0.47480  0.28930  Biso   1.000  O
  O397     1.0000 0.17222  0.82770  0.97751  Biso   1.000  O
  O398     1.0000 0.16758  0.81196  0.99698  Biso   1.000  O
  O399     1.0000 0.16415  0.77875  0.90346  Biso   1.000  O
  O400     1.0000 0.14707  0.76970  0.88704  Biso   1.000  O
  O401     1.0000 0.14661  0.85443  0.87058  Biso   1.000  O
  O402     1.0000 0.12284  0.84582  0.87220  Biso   1.000  O
  O403     1.0000 0.54990  0.81177  0.42388  Biso   1.000  O
  O404     1.0000 0.60474  0.85362  0.38080  Biso   1.000  O
  O405     1.0000 0.05937  0.77037  0.95115  Biso   1.000  O
  O406     1.0000 0.06189  0.78476  0.93043  Biso   1.000  O
  O407     1.0000 0.13365  0.74188  0.92659  Biso   1.000  O
  O408     1.0000 0.12961  0.75855  0.90777  Biso   1.000  O
  O409     1.0000 0.39457  0.41133  0.81375  Biso   1.000  O
  O410     1.0000 0.93158  0.80062  0.02240  Biso   1.000  O
  O411     1.0000 0.91678  0.81890  0.94775  Biso   1.000  O
  O412     1.0000 0.03381  0.77333  0.93611  Biso   1.000  O
  O413     1.0000 0.03070  0.77450  0.96135  Biso   1.000  O
  O414     1.0000 0.17770  0.42521  0.26600  Biso   1.000  O
  O415     1.0000 0.15624  0.43581  0.25744  Biso   1.000  O
  O416     1.0000 0.16518  0.47032  0.34724  Biso   1.000  O
  O417     1.0000 0.14892  0.47947  0.36442  Biso   1.000  O
  O418     1.0000 0.14648  0.39596  0.38144  Biso   1.000  O
  O419     1.0000 0.12247  0.40416  0.38002  Biso   1.000  O
  O420     1.0000 0.54784  0.43659  0.82735  Biso   1.000  O
  O421     1.0000 0.59677  0.38920  0.87509  Biso   1.000  O
  O422     1.0000 0.06096  0.47640  0.29887  Biso   1.000  O
  O423     1.0000 0.06274  0.46251  0.31991  Biso   1.000  O
  O424     1.0000 0.13390  0.50695  0.32549  Biso   1.000  O
  O425     1.0000 0.13038  0.49062  0.34474  Biso   1.000  O
  O426     1.0000 0.39346  0.91323  0.32411  Biso   1.000  O
  O427     1.0000 0.93188  0.29921  0.52268  Biso   1.000  O
  O428     1.0000 0.91497  0.31737  0.44776  Biso   1.000  O
  O429     1.0000 0.03459  0.27272  0.43509  Biso   1.000  O
  O430     1.0000 0.03172  0.27304  0.46043  Biso   1.000  O
  O431     1.0000 0.17090  0.92020  0.77249  Biso   1.000  O
  O432     1.0000 0.16578  0.93667  0.75384  Biso   1.000  O
  O433     1.0000 0.16564  0.97537  0.85793  Biso   1.000  O
  O434     1.0000 0.14077  0.97935  0.85435  Biso   1.000  O
  O435     1.0000 0.14617  0.89671  0.87993  Biso   1.000  O
  O436     1.0000 0.12223  0.90463  0.87843  Biso   1.000  O
  O437     1.0000 0.54856  0.93777  0.32712  Biso   1.000  O
  O438     1.0000 0.60477  0.89774  0.37137  Biso   1.000  O
  O439     1.0000 0.06024  0.97754  0.79935  Biso   1.000  O
  O440     1.0000 0.06209  0.96291  0.81988  Biso   1.000  O
  O441     1.0000 0.13856  0.99752  0.81834  Biso   1.000  O
  O442     1.0000 0.12672  0.00143  0.84043  Biso   1.000  O
  O443     1.0000 0.89748  0.41178  0.31111  Biso   1.000  O
  O444     1.0000 0.42898  0.80986  0.52854  Biso   1.000  O
  O445     1.0000 0.41598  0.81930  0.44947  Biso   1.000  O
  O446     1.0000 0.53454  0.77375  0.43685  Biso   1.000  O
  O447     1.0000 0.53127  0.77481  0.46200  Biso   1.000  O
  O448     1.0000 0.67792  0.42550  0.76512  Biso   1.000  O
  O449     1.0000 0.65658  0.43625  0.75649  Biso   1.000  O
  O450     1.0000 0.66463  0.47068  0.84700  Biso   1.000  O
  O451     1.0000 0.64863  0.47980  0.86432  Biso   1.000  O
  O452     1.0000 0.64588  0.39630  0.88027  Biso   1.000  O
  O453     1.0000 0.62180  0.40421  0.87895  Biso   1.000  O
  O454     1.0000 0.04940  0.43796  0.32849  Biso   1.000  O
  O455     1.0000 0.09730  0.38954  0.37584  Biso   1.000  O
  O456     1.0000 0.55998  0.47587  0.79919  Biso   1.000  O
  O457     1.0000 0.56068  0.46187  0.82031  Biso   1.000  O
  O458     1.0000 0.63283  0.50611  0.82485  Biso   1.000  O
  O459     1.0000 0.63017  0.48950  0.84397  Biso   1.000  O
  O460     1.0000 0.89233  0.91426  0.82502  Biso   1.000  O
  O461     1.0000 0.43174  0.29951  0.02306  Biso   1.000  O
  O462     1.0000 0.41585  0.31677  0.94772  Biso   1.000  O
  O463     1.0000 0.53452  0.27224  0.93557  Biso   1.000  O
  O464     1.0000 0.53169  0.27282  0.96090  Biso   1.000  O
  O465     1.0000 0.67798  0.92452  0.26622  Biso   1.000  O
  O466     1.0000 0.65679  0.93538  0.25712  Biso   1.000  O
  O467     1.0000 0.66481  0.97136  0.34665  Biso   1.000  O
  O468     1.0000 0.64863  0.98071  0.36372  Biso   1.000  O
  O469     1.0000 0.64476  0.89578  0.36934  Biso   1.000  O
  O470     1.0000 0.62886  0.90400  0.38721  Biso   1.000  O
  O471     1.0000 0.04846  0.93828  0.82759  Biso   1.000  O
  O472     1.0000 0.09709  0.89000  0.87484  Biso   1.000  O
  O473     1.0000 0.56105  0.97698  0.29889  Biso   1.000  O
  O474     1.0000 0.56247  0.96231  0.31952  Biso   1.000  O
  O475     1.0000 0.63371  0.00676  0.32387  Biso   1.000  O
  O476     1.0000 0.63045  0.99044  0.34309  Biso   1.000  O
  O477     1.0000 0.35403  0.83958  0.31406  Biso   1.000  O
  O478     1.0000 0.81892  0.45125  0.52222  Biso   1.000  O
  O479     1.0000 0.83998  0.42437  0.44856  Biso   1.000  O
  O480     1.0000 0.71425  0.47688  0.43695  Biso   1.000  O
  O481     1.0000 0.71809  0.47626  0.46215  Biso   1.000  O
  O482     1.0000 0.57922  0.82845  0.77291  Biso   1.000  O
  O483     1.0000 0.58439  0.81253  0.75382  Biso   1.000  O
  O484     1.0000 0.58503  0.77476  0.85679  Biso   1.000  O
  O485     1.0000 0.60999  0.76999  0.85496  Biso   1.000  O
  O486     1.0000 0.60606  0.85329  0.86900  Biso   1.000  O
  O487     1.0000 0.62254  0.84535  0.88667  Biso   1.000  O
  O488     1.0000 0.20077  0.81185  0.32688  Biso   1.000  O
  O489     1.0000 0.14599  0.85342  0.37055  Biso   1.000  O
  O490     1.0000 0.69084  0.77167  0.79692  Biso   1.000  O
  O491     1.0000 0.68809  0.78561  0.81788  Biso   1.000  O
  O492     1.0000 0.61353  0.75065  0.81976  Biso   1.000  O
  O493     1.0000 0.62395  0.74699  0.84257  Biso   1.000  O
  O494     1.0000 0.35463  0.33754  0.82416  Biso   1.000  O
  O495     1.0000 0.81828  0.94905  0.02214  Biso   1.000  O
  O496     1.0000 0.83858  0.92381  0.95032  Biso   1.000  O
  O497     1.0000 0.71520  0.97643  0.93737  Biso   1.000  O
  O498     1.0000 0.71823  0.97544  0.96270  Biso   1.000  O
  O499     1.0000 0.57803  0.32940  0.27376  Biso   1.000  O
  O500     1.0000 0.58258  0.31336  0.25448  Biso   1.000  O
  O501     1.0000 0.58608  0.27893  0.34759  Biso   1.000  O
  O502     1.0000 0.60319  0.26991  0.36402  Biso   1.000  O
  O503     1.0000 0.60595  0.35549  0.36840  Biso   1.000  O
  O504     1.0000 0.62084  0.34686  0.38696  Biso   1.000  O
  O505     1.0000 0.19925  0.31090  0.82683  Biso   1.000  O
  O506     1.0000 0.15275  0.36008  0.87382  Biso   1.000  O
  O507     1.0000 0.69062  0.27204  0.29836  Biso   1.000  O
  O508     1.0000 0.68815  0.28644  0.31896  Biso   1.000  O
  O509     1.0000 0.61675  0.24268  0.32429  Biso   1.000  O
  O510     1.0000 0.62070  0.25912  0.34331  Biso   1.000  O
  O511     1.0000 0.85360  0.84013  0.81323  Biso   1.000  O
  O512     1.0000 0.31854  0.44987  0.02320  Biso   1.000  O
  O513     1.0000 0.33478  0.43239  0.94945  Biso   1.000  O
  O514     1.0000 0.21500  0.47732  0.93766  Biso   1.000  O
  O515     1.0000 0.21924  0.47495  0.96263  Biso   1.000  O
  O516     1.0000 0.07899  0.82878  0.27250  Biso   1.000  O
  O517     1.0000 0.08360  0.81260  0.25339  Biso   1.000  O
  O518     1.0000 0.08433  0.77549  0.35680  Biso   1.000  O
  O519     1.0000 0.10933  0.77073  0.35511  Biso   1.000  O
  O520     1.0000 0.10562  0.85435  0.36828  Biso   1.000  O
  O521     1.0000 0.12199  0.84642  0.38606  Biso   1.000  O
  O522     1.0000 0.70068  0.81058  0.82671  Biso   1.000  O
  O523     1.0000 0.64638  0.85227  0.87095  Biso   1.000  O
  O524     1.0000 0.19078  0.77211  0.29828  Biso   1.000  O
  O525     1.0000 0.18796  0.78672  0.31872  Biso   1.000  O
  O526     1.0000 0.11300  0.75156  0.31999  Biso   1.000  O
  O527     1.0000 0.12335  0.74773  0.34279  Biso   1.000  O
  O528     1.0000 0.85388  0.33898  0.31225  Biso   1.000  O
  O529     1.0000 0.31848  0.95097  0.52261  Biso   1.000  O
  O530     1.0000 0.33978  0.92531  0.44882  Biso   1.000  O
  O531     1.0000 0.21525  0.97685  0.43778  Biso   1.000  O
  O532     1.0000 0.21884  0.97558  0.46302  Biso   1.000  O
  O533     1.0000 0.07734  0.32920  0.77303  Biso   1.000  O
  O534     1.0000 0.08172  0.31326  0.75362  Biso   1.000  O
  O535     1.0000 0.08525  0.27956  0.84657  Biso   1.000  O
  O536     1.0000 0.10252  0.27047  0.86275  Biso   1.000  O
  O537     1.0000 0.10335  0.35512  0.87933  Biso   1.000  O
  O538     1.0000 0.12703  0.34629  0.87766  Biso   1.000  O
  O539     1.0000 0.70084  0.31170  0.32692  Biso   1.000  O
  O540     1.0000 0.64565  0.35246  0.37198  Biso   1.000  O
  O541     1.0000 0.18954  0.27074  0.79856  Biso   1.000  O
  O542     1.0000 0.18716  0.28531  0.81919  Biso   1.000  O
  O543     1.0000 0.11539  0.24248  0.82318  Biso   1.000  O
  O544     1.0000 0.11959  0.25921  0.84188  Biso   1.000  O
  O545     1.0000 0.93811  0.85527  0.91104  Biso   1.000  O
  O546     1.0000 0.72246  0.32300  0.30834  Biso   1.000  O
  O547     1.0000 0.80297  0.33422  0.31615  Biso   1.000  O
  O548     1.0000 0.81419  0.22315  0.28157  Biso   1.000  O
  O549     1.0000 0.79553  0.21048  0.26990  Biso   1.000  O
  O550     1.0000 0.47758  0.07718  0.92237  Biso   1.000  O
  O551     1.0000 0.49672  0.08285  0.93818  Biso   1.000  O
  O552     1.0000 0.40371  0.08454  0.97204  Biso   1.000  O
  O553     1.0000 0.38605  0.10007  0.98119  Biso   1.000  O
  O554     1.0000 0.38131  0.10230  0.89532  Biso   1.000  O
  O555     1.0000 0.36353  0.11831  0.90368  Biso   1.000  O
  O556     1.0000 0.92409  0.69367  0.94168  Biso   1.000  O
  O557     1.0000 0.87941  0.64361  0.89686  Biso   1.000  O
  O558     1.0000 0.45308  0.18290  0.96991  Biso   1.000  O
  O559     1.0000 0.43083  0.19479  0.97241  Biso   1.000  O
  O560     1.0000 0.42541  0.11668  0.00720  Biso   1.000  O
  O561     1.0000 0.40593  0.11938  0.99092  Biso   1.000  O
  O562     1.0000 0.93662  0.35379  0.41137  Biso   1.000  O
  O563     1.0000 0.72298  0.82186  0.80912  Biso   1.000  O
  O564     1.0000 0.80292  0.83339  0.81657  Biso   1.000  O
  O565     1.0000 0.81452  0.71462  0.77399  Biso   1.000  O
  O566     1.0000 0.78918  0.71735  0.77473  Biso   1.000  O
  O567     1.0000 0.48432  0.57339  0.42579  Biso   1.000  O
  O568     1.0000 0.49351  0.59439  0.43686  Biso   1.000  O
  O569     1.0000 0.40329  0.58535  0.47166  Biso   1.000  O
  O570     1.0000 0.38537  0.60088  0.48062  Biso   1.000  O
  O571     1.0000 0.38078  0.60407  0.39499  Biso   1.000  O
  O572     1.0000 0.36323  0.62027  0.40338  Biso   1.000  O
  O573     1.0000 0.92432  0.19262  0.44313  Biso   1.000  O
  O574     1.0000 0.87872  0.14300  0.39751  Biso   1.000  O
  O575     1.0000 0.45297  0.68321  0.46938  Biso   1.000  O
  O576     1.0000 0.43089  0.69537  0.47204  Biso   1.000  O
  O577     1.0000 0.42433  0.61753  0.50714  Biso   1.000  O
  O578     1.0000 0.40477  0.62019  0.49104  Biso   1.000  O
  O579     1.0000 0.43772  0.85482  0.41185  Biso   1.000  O
  O580     1.0000 0.22123  0.32202  0.80822  Biso   1.000  O
  O581     1.0000 0.29878  0.34107  0.82618  Biso   1.000  O
  O582     1.0000 0.31357  0.22361  0.78328  Biso   1.000  O
  O583     1.0000 0.29522  0.21066  0.77145  Biso   1.000  O
  O584     1.0000 0.98413  0.07099  0.42565  Biso   1.000  O
  O585     1.0000 0.99207  0.09263  0.43614  Biso   1.000  O
  O586     1.0000 0.90284  0.08502  0.47175  Biso   1.000  O
  O587     1.0000 0.88546  0.10113  0.48073  Biso   1.000  O
  O588     1.0000 0.88032  0.10303  0.39547  Biso   1.000  O
  O589     1.0000 0.86251  0.11919  0.40328  Biso   1.000  O
  O590     1.0000 0.42475  0.69348  0.44327  Biso   1.000  O
  O591     1.0000 0.37929  0.64437  0.39782  Biso   1.000  O
  O592     1.0000 0.95351  0.18310  0.46884  Biso   1.000  O
  O593     1.0000 0.93131  0.19503  0.47169  Biso   1.000  O
  O594     1.0000 0.92502  0.11731  0.50675  Biso   1.000  O
  O595     1.0000 0.90563  0.12017  0.49040  Biso   1.000  O
  O596     1.0000 0.43693  0.35336  0.91110  Biso   1.000  O
  O597     1.0000 0.22300  0.82271  0.30846  Biso   1.000  O
  O598     1.0000 0.30327  0.83384  0.31696  Biso   1.000  O
  O599     1.0000 0.31363  0.71558  0.27411  Biso   1.000  O
  O600     1.0000 0.28837  0.71864  0.27546  Biso   1.000  O
  O601     1.0000 0.98430  0.57259  0.92662  Biso   1.000  O
  O602     1.0000 0.99276  0.59407  0.93728  Biso   1.000  O
  O603     1.0000 0.90219  0.58515  0.97200  Biso   1.000  O
  O604     1.0000 0.88476  0.60127  0.98078  Biso   1.000  O
  O605     1.0000 0.88072  0.60347  0.89543  Biso   1.000  O
  O606     1.0000 0.86309  0.61984  0.90319  Biso   1.000  O
  O607     1.0000 0.42425  0.19229  0.94375  Biso   1.000  O
  O608     1.0000 0.37924  0.14242  0.89815  Biso   1.000  O
  O609     1.0000 0.95266  0.68305  0.96781  Biso   1.000  O
  O610     1.0000 0.93035  0.69497  0.97044  Biso   1.000  O
  O611     1.0000 0.92420  0.61774  0.00669  Biso   1.000  O
  O612     1.0000 0.90479  0.62023  0.99042  Biso   1.000  O
  O613     1.0000 0.42566  0.89525  0.33882  Biso   1.000  O
  O614     1.0000 0.22300  0.42821  0.94059  Biso   1.000  O
  O615     1.0000 0.30256  0.41540  0.93357  Biso   1.000  O
  O616     1.0000 0.31405  0.52692  0.96961  Biso   1.000  O
  O617     1.0000 0.29588  0.53981  0.98167  Biso   1.000  O
  O618     1.0000 0.98578  0.67773  0.32400  Biso   1.000  O
  O619     1.0000 0.99259  0.65552  0.31375  Biso   1.000  O
  O620     1.0000 0.89432  0.66636  0.27543  Biso   1.000  O
  O621     1.0000 0.89646  0.64134  0.27117  Biso   1.000  O
  O622     1.0000 0.88109  0.64580  0.35394  Biso   1.000  O
  O623     1.0000 0.86321  0.62960  0.34615  Biso   1.000  O
  O624     1.0000 0.42650  0.05942  0.30634  Biso   1.000  O
  O625     1.0000 0.37589  0.09721  0.35976  Biso   1.000  O
  O626     1.0000 0.95700  0.56744  0.28187  Biso   1.000  O
  O627     1.0000 0.93390  0.55757  0.27795  Biso   1.000  O
  O628     1.0000 0.93092  0.63763  0.25053  Biso   1.000  O
  O629     1.0000 0.90816  0.62693  0.24798  Biso   1.000  O
  O630     1.0000 0.43486  0.39703  0.83918  Biso   1.000  O
  O631     1.0000 0.22201  0.92773  0.44173  Biso   1.000  O
  O632     1.0000 0.29961  0.90954  0.42406  Biso   1.000  O
  O633     1.0000 0.31364  0.02678  0.46870  Biso   1.000  O
  O634     1.0000 0.29552  0.03960  0.48087  Biso   1.000  O
  O635     1.0000 0.98479  0.17793  0.82414  Biso   1.000  O
  O636     1.0000 0.99299  0.15637  0.81356  Biso   1.000  O
  O637     1.0000 0.89303  0.16790  0.77585  Biso   1.000  O
  O638     1.0000 0.89518  0.14305  0.77111  Biso   1.000  O
  O639     1.0000 0.86920  0.14619  0.85281  Biso   1.000  O
  O640     1.0000 0.87027  0.12220  0.84461  Biso   1.000  O
  O641     1.0000 0.42548  0.55829  0.80605  Biso   1.000  O
  O642     1.0000 0.37538  0.59704  0.85958  Biso   1.000  O
  O643     1.0000 0.95639  0.06855  0.78010  Biso   1.000  O
  O644     1.0000 0.93311  0.05869  0.77697  Biso   1.000  O
  O645     1.0000 0.92964  0.13919  0.75097  Biso   1.000  O
  O646     1.0000 0.90679  0.12877  0.74798  Biso   1.000  O
  O647     1.0000 0.92497  0.89587  0.83813  Biso   1.000  O
  O648     1.0000 0.72195  0.42799  0.44271  Biso   1.000  O
  O649     1.0000 0.79927  0.40910  0.42429  Biso   1.000  O
  O650     1.0000 0.81362  0.52675  0.46755  Biso   1.000  O
  O651     1.0000 0.79503  0.53928  0.47939  Biso   1.000  O
  O652     1.0000 0.48569  0.67819  0.82412  Biso   1.000  O
  O653     1.0000 0.49242  0.65625  0.81330  Biso   1.000  O
  O654     1.0000 0.39355  0.66708  0.77592  Biso   1.000  O
  O655     1.0000 0.39622  0.64221  0.77164  Biso   1.000  O
  O656     1.0000 0.37062  0.64632  0.85360  Biso   1.000  O
  O657     1.0000 0.37112  0.62228  0.84543  Biso   1.000  O
  O658     1.0000 0.92586  0.05997  0.80558  Biso   1.000  O
  O659     1.0000 0.87463  0.09704  0.85883  Biso   1.000  O
  O660     1.0000 0.45654  0.56750  0.78139  Biso   1.000  O
  O661     1.0000 0.43334  0.55768  0.77755  Biso   1.000  O
  O662     1.0000 0.43060  0.63882  0.75148  Biso   1.000  O
  O663     1.0000 0.40806  0.62782  0.74871  Biso   1.000  O
  O664     1.0000 0.93571  0.39770  0.33958  Biso   1.000  O
  O665     1.0000 0.72256  0.92747  0.94190  Biso   1.000  O
  O666     1.0000 0.79978  0.90846  0.92339  Biso   1.000  O
  O667     1.0000 0.81377  0.02656  0.96879  Biso   1.000  O
  O668     1.0000 0.79549  0.03909  0.98101  Biso   1.000  O
  O669     1.0000 0.48512  0.17797  0.32316  Biso   1.000  O
  O670     1.0000 0.49351  0.15654  0.31239  Biso   1.000  O
  O671     1.0000 0.39287  0.16726  0.27590  Biso   1.000  O
  O672     1.0000 0.39496  0.14236  0.27141  Biso   1.000  O
  O673     1.0000 0.37036  0.14635  0.35357  Biso   1.000  O
  O674     1.0000 0.37148  0.12231  0.34548  Biso   1.000  O
  O675     1.0000 0.92654  0.55880  0.30653  Biso   1.000  O
  O676     1.0000 0.87936  0.60587  0.35219  Biso   1.000  O
  O677     1.0000 0.45657  0.06777  0.28027  Biso   1.000  O
  O678     1.0000 0.43331  0.05778  0.27757  Biso   1.000  O
  O679     1.0000 0.42926  0.13819  0.25103  Biso   1.000  O
  O680     1.0000 0.40635  0.12781  0.24834  Biso   1.000  O
  O681     1.0000 0.82292  0.39335  0.41212  Biso   1.000  O
  O682     1.0000 0.02639  0.92820  0.80929  Biso   1.000  O
  O683     1.0000 0.94816  0.91164  0.82534  Biso   1.000  O
  O684     1.0000 0.93632  0.02818  0.77994  Biso   1.000  O
  O685     1.0000 0.95508  0.04032  0.76812  Biso   1.000  O
  O686     1.0000 0.26558  0.17795  0.42528  Biso   1.000  O
  O687     1.0000 0.25778  0.15629  0.43588  Biso   1.000  O
  O688     1.0000 0.34760  0.16421  0.47082  Biso   1.000  O
  O689     1.0000 0.36437  0.14769  0.48027  Biso   1.000  O
  O690     1.0000 0.37986  0.14677  0.39584  Biso   1.000  O
  O691     1.0000 0.37911  0.12282  0.40424  Biso   1.000  O
  O692     1.0000 0.82404  0.55855  0.44182  Biso   1.000  O
  O693     1.0000 0.87125  0.60596  0.39667  Biso   1.000  O
  O694     1.0000 0.29499  0.06788  0.46936  Biso   1.000  O
  O695     1.0000 0.31800  0.05714  0.47174  Biso   1.000  O
  O696     1.0000 0.32509  0.13371  0.50787  Biso   1.000  O
  O697     1.0000 0.34429  0.12949  0.49154  Biso   1.000  O
  O698     1.0000 0.82411  0.89314  0.91226  Biso   1.000  O
  O699     1.0000 0.02683  0.42742  0.31106  Biso   1.000  O
  O700     1.0000 0.94744  0.41628  0.31825  Biso   1.000  O
  O701     1.0000 0.93676  0.52705  0.28053  Biso   1.000  O
  O702     1.0000 0.95602  0.53926  0.26947  Biso   1.000  O
  O703     1.0000 0.26585  0.67728  0.92615  Biso   1.000  O
  O704     1.0000 0.25727  0.65570  0.93644  Biso   1.000  O
  O705     1.0000 0.34800  0.66505  0.97032  Biso   1.000  O
  O706     1.0000 0.36542  0.64919  0.97958  Biso   1.000  O
  O707     1.0000 0.38105  0.64644  0.89565  Biso   1.000  O
  O708     1.0000 0.37980  0.62255  0.90404  Biso   1.000  O
  O709     1.0000 0.82437  0.05830  0.94301  Biso   1.000  O
  O710     1.0000 0.87356  0.09717  0.88936  Biso   1.000  O
  O711     1.0000 0.29564  0.56817  0.96990  Biso   1.000  O
  O712     1.0000 0.31844  0.55722  0.97266  Biso   1.000  O
  O713     1.0000 0.32661  0.63420  0.00732  Biso   1.000  O
  O714     1.0000 0.34558  0.63043  0.99059  Biso   1.000  O
  O715     1.0000 0.31384  0.39767  0.91108  Biso   1.000  O
  O716     1.0000 0.52698  0.92769  0.30886  Biso   1.000  O
  O717     1.0000 0.44916  0.91080  0.32678  Biso   1.000  O
  O718     1.0000 0.43661  0.02734  0.28085  Biso   1.000  O
  O719     1.0000 0.45545  0.03921  0.26881  Biso   1.000  O
  O720     1.0000 0.76489  0.17740  0.92595  Biso   1.000  O
  O721     1.0000 0.75695  0.15588  0.93655  Biso   1.000  O
  O722     1.0000 0.84722  0.16361  0.97009  Biso   1.000  O
  O723     1.0000 0.86407  0.14697  0.97916  Biso   1.000  O
  O724     1.0000 0.87902  0.14644  0.89495  Biso   1.000  O
  O725     1.0000 0.87789  0.12250  0.90328  Biso   1.000  O
  O726     1.0000 0.32527  0.55847  0.94394  Biso   1.000  O
  O727     1.0000 0.37473  0.59726  0.89018  Biso   1.000  O
  O728     1.0000 0.79470  0.06744  0.96961  Biso   1.000  O
  O729     1.0000 0.81784  0.05695  0.97178  Biso   1.000  O
  O730     1.0000 0.82546  0.13344  0.00796  Biso   1.000  O
  O731     1.0000 0.84381  0.12912  0.99074  Biso   1.000  O
  O732     1.0000 0.32329  0.89366  0.41267  Biso   1.000  O
  O733     1.0000 0.52682  0.42581  0.80892  Biso   1.000  O
  O734     1.0000 0.44535  0.41465  0.81644  Biso   1.000  O
  O735     1.0000 0.43656  0.52709  0.77977  Biso   1.000  O
  O736     1.0000 0.45560  0.53957  0.76872  Biso   1.000  O
  O737     1.0000 0.76533  0.67850  0.42603  Biso   1.000  O
  O738     1.0000 0.75642  0.65691  0.43615  Biso   1.000  O
  O739     1.0000 0.84599  0.66447  0.47076  Biso   1.000  O
  O740     1.0000 0.86345  0.64846  0.47932  Biso   1.000  O
  O741     1.0000 0.86968  0.64624  0.39447  Biso   1.000  O
  O742     1.0000 0.88718  0.62983  0.40273  Biso   1.000  O
  O743     1.0000 0.32470  0.05843  0.44306  Biso   1.000  O
  O744     1.0000 0.37474  0.09746  0.39030  Biso   1.000  O
  O745     1.0000 0.79455  0.56763  0.46783  Biso   1.000  O
  O746     1.0000 0.81758  0.55712  0.47046  Biso   1.000  O
  O747     1.0000 0.82460  0.63378  0.50731  Biso   1.000  O
  O748     1.0000 0.84297  0.63025  0.49007  Biso   1.000  O
  O749     1.0000 0.32269  0.35733  0.83680  Biso   1.000  O
  O750     1.0000 0.52836  0.82291  0.44232  Biso   1.000  O
  O751     1.0000 0.44845  0.83729  0.43452  Biso   1.000  O
  O752     1.0000 0.43649  0.72540  0.46811  Biso   1.000  O
  O753     1.0000 0.45342  0.71169  0.48108  Biso   1.000  O
  O754     1.0000 0.76509  0.57161  0.82456  Biso   1.000  O
  O755     1.0000 0.75774  0.59358  0.81425  Biso   1.000  O
  O756     1.0000 0.84654  0.58517  0.77864  Biso   1.000  O
  O757     1.0000 0.86425  0.60073  0.76950  Biso   1.000  O
  O758     1.0000 0.86914  0.60312  0.85474  Biso   1.000  O
  O759     1.0000 0.88685  0.61933  0.84676  Biso   1.000  O
  O760     1.0000 0.32426  0.19194  0.80920  Biso   1.000  O
  O761     1.0000 0.37064  0.14352  0.85374  Biso   1.000  O
  O762     1.0000 0.79928  0.68858  0.77350  Biso   1.000  O
  O763     1.0000 0.82026  0.68755  0.78764  Biso   1.000  O
  O764     1.0000 0.82479  0.61638  0.74283  Biso   1.000  O
  O765     1.0000 0.84416  0.61957  0.75920  Biso   1.000  O
  O766     1.0000 0.31315  0.85260  0.33929  Biso   1.000  O
  O767     1.0000 0.52775  0.32124  0.94119  Biso   1.000  O
  O768     1.0000 0.44815  0.33474  0.93286  Biso   1.000  O
  O769     1.0000 0.43611  0.22480  0.96816  Biso   1.000  O
  O770     1.0000 0.45375  0.21146  0.98055  Biso   1.000  O
  O771     1.0000 0.76525  0.07269  0.32341  Biso   1.000  O
  O772     1.0000 0.75690  0.09432  0.31282  Biso   1.000  O
  O773     1.0000 0.84734  0.08546  0.27837  Biso   1.000  O
  O774     1.0000 0.86513  0.10114  0.26946  Biso   1.000  O
  O775     1.0000 0.86903  0.10325  0.35474  Biso   1.000  O
  O776     1.0000 0.88691  0.11953  0.34717  Biso   1.000  O
  O777     1.0000 0.32752  0.70111  0.31232  Biso   1.000  O
  O778     1.0000 0.37068  0.64539  0.35356  Biso   1.000  O
  O779     1.0000 0.79485  0.18229  0.28217  Biso   1.000  O
  O780     1.0000 0.81770  0.19287  0.27885  Biso   1.000  O
  O781     1.0000 0.82607  0.11732  0.24292  Biso   1.000  O
  O782     1.0000 0.84531  0.12017  0.25938  Biso   1.000  O
  O783     1.0000 0.81374  0.35280  0.33831  Biso   1.000  O
  O784     1.0000 0.02918  0.82250  0.94150  Biso   1.000  O
  O785     1.0000 0.94909  0.83752  0.93346  Biso   1.000  O
  O786     1.0000 0.93583  0.72518  0.96723  Biso   1.000  O
  O787     1.0000 0.95285  0.71125  0.97974  Biso   1.000  O
  O788     1.0000 0.26549  0.57148  0.32522  Biso   1.000  O
  O789     1.0000 0.25841  0.59314  0.31412  Biso   1.000  O
  O790     1.0000 0.35745  0.58450  0.27547  Biso   1.000  O
  O791     1.0000 0.35500  0.60951  0.27105  Biso   1.000  O
  O792     1.0000 0.36918  0.60545  0.35410  Biso   1.000  O
  O793     1.0000 0.38711  0.62181  0.34700  Biso   1.000  O
  O794     1.0000 0.82446  0.19136  0.30749  Biso   1.000  O
  O795     1.0000 0.87083  0.14346  0.35301  Biso   1.000  O
  O796     1.0000 0.29812  0.68977  0.27359  Biso   1.000  O
  O797     1.0000 0.31940  0.68821  0.28729  Biso   1.000  O
  O798     1.0000 0.32006  0.61311  0.25184  Biso   1.000  O
  O799     1.0000 0.34274  0.62357  0.24798  Biso   1.000  O
  O800     1.0000 0.81275  0.85224  0.83889  Biso   1.000  O
  O801     1.0000 0.02754  0.32164  0.44148  Biso   1.000  O
  O802     1.0000 0.94757  0.33507  0.43333  Biso   1.000  O
  O803     1.0000 0.93643  0.22502  0.46758  Biso   1.000  O
  O804     1.0000 0.95419  0.21162  0.47972  Biso   1.000  O
  O805     1.0000 0.26577  0.07192  0.82393  Biso   1.000  O
  O806     1.0000 0.25774  0.09381  0.81370  Biso   1.000  O
  O807     1.0000 0.34707  0.08596  0.77858  Biso   1.000  O
  O808     1.0000 0.36444  0.10186  0.76950  Biso   1.000  O
  O809     1.0000 0.36966  0.10331  0.85468  Biso   1.000  O
  O810     1.0000 0.38712  0.12003  0.84725  Biso   1.000  O
  O811     1.0000 0.82794  0.70090  0.81250  Biso   1.000  O
  O812     1.0000 0.87069  0.64339  0.85246  Biso   1.000  O
  O813     1.0000 0.29488  0.18245  0.78343  Biso   1.000  O
  O814     1.0000 0.31772  0.19327  0.78053  Biso   1.000  O
  O815     1.0000 0.32453  0.11727  0.74345  Biso   1.000  O
  O816     1.0000 0.34390  0.12028  0.75979  Biso   1.000  O
  O817     1.0000 0.91187  0.92767  0.85685  Biso   1.000  O
  O818     1.0000 0.30986  0.72319  0.32315  Biso   1.000  O
  O819     1.0000 0.31855  0.80211  0.33572  Biso   1.000  O
  O820     1.0000 0.27536  0.81482  0.21591  Biso   1.000  O
  O821     1.0000 0.27471  0.78964  0.21847  Biso   1.000  O
  O822     1.0000 0.92342  0.47799  0.07886  Biso   1.000  O
  O823     1.0000 0.93869  0.49749  0.08412  Biso   1.000  O
  O824     1.0000 0.97131  0.40314  0.08634  Biso   1.000  O
  O825     1.0000 0.97971  0.38580  0.10267  Biso   1.000  O
  O826     1.0000 0.89441  0.38194  0.10534  Biso   1.000  O
  O827     1.0000 0.90261  0.36378  0.12112  Biso   1.000  O
  O828     1.0000 0.94384  0.92619  0.69198  Biso   1.000  O
  O829     1.0000 0.89754  0.87943  0.64502  Biso   1.000  O
  O830     1.0000 0.97113  0.45510  0.18348  Biso   1.000  O
  O831     1.0000 0.97287  0.43212  0.19429  Biso   1.000  O
  O832     1.0000 0.00812  0.42425  0.11739  Biso   1.000  O
  O833     1.0000 0.99094  0.40583  0.12065  Biso   1.000  O
  O834     1.0000 0.90847  0.43712  0.35256  Biso   1.000  O
  O835     1.0000 0.29950  0.22754  0.82092  Biso   1.000  O
  O836     1.0000 0.32433  0.30185  0.84351  Biso   1.000  O
  O837     1.0000 0.28049  0.31044  0.72407  Biso   1.000  O
  O838     1.0000 0.26867  0.29234  0.71106  Biso   1.000  O
  O839     1.0000 0.92222  0.97813  0.57891  Biso   1.000  O
  O840     1.0000 0.93770  0.99760  0.58354  Biso   1.000  O
  O841     1.0000 0.97435  0.89379  0.58361  Biso   1.000  O
  O842     1.0000 0.97883  0.89556  0.60863  Biso   1.000  O
  O843     1.0000 0.89570  0.88103  0.60497  Biso   1.000  O
  O844     1.0000 0.90360  0.86328  0.62135  Biso   1.000  O
  O845     1.0000 0.94404  0.42600  0.19210  Biso   1.000  O
  O846     1.0000 0.89676  0.37942  0.14536  Biso   1.000  O
  O847     1.0000 0.96920  0.95671  0.68329  Biso   1.000  O
  O848     1.0000 0.97237  0.93366  0.69345  Biso   1.000  O
  O849     1.0000 0.99903  0.93035  0.61251  Biso   1.000  O
  O850     1.0000 0.41157  0.92760  0.35631  Biso   1.000  O
  O851     1.0000 0.81005  0.72298  0.82279  Biso   1.000  O
  O852     1.0000 0.81885  0.80189  0.83498  Biso   1.000  O
  O853     1.0000 0.78315  0.81302  0.72438  Biso   1.000  O
  O854     1.0000 0.77034  0.79506  0.71213  Biso   1.000  O
  O855     1.0000 0.42176  0.47755  0.57868  Biso   1.000  O
  O856     1.0000 0.43727  0.49685  0.58387  Biso   1.000  O
  O857     1.0000 0.47022  0.40280  0.58629  Biso   1.000  O
  O858     1.0000 0.47892  0.38572  0.60272  Biso   1.000  O
  O859     1.0000 0.39382  0.38219  0.60631  Biso   1.000  O
  O860     1.0000 0.40192  0.36371  0.62169  Biso   1.000  O
  O861     1.0000 0.43996  0.92282  0.20043  Biso   1.000  O
  O862     1.0000 0.39813  0.87884  0.14566  Biso   1.000  O
  O863     1.0000 0.46961  0.45396  0.68312  Biso   1.000  O
  O864     1.0000 0.47192  0.43151  0.69464  Biso   1.000  O
  O865     1.0000 0.50723  0.42455  0.61665  Biso   1.000  O
  O866     1.0000 0.49026  0.40601  0.62024  Biso   1.000  O
  O867     1.0000 0.40994  0.43749  0.85319  Biso   1.000  O
  O868     1.0000 0.80080  0.22778  0.31913  Biso   1.000  O
  O869     1.0000 0.81796  0.30230  0.33452  Biso   1.000  O
  O870     1.0000 0.78108  0.31165  0.22385  Biso   1.000  O
  O871     1.0000 0.76922  0.29328  0.21138  Biso   1.000  O
  O872     1.0000 0.42169  0.97738  0.07987  Biso   1.000  O
  O873     1.0000 0.43711  0.99659  0.08557  Biso   1.000  O
  O874     1.0000 0.47494  0.89344  0.08314  Biso   1.000  O
  O875     1.0000 0.47944  0.89545  0.10813  Biso   1.000  O
  O876     1.0000 0.39631  0.88118  0.10541  Biso   1.000  O
  O877     1.0000 0.40452  0.86330  0.12149  Biso   1.000  O
  O878     1.0000 0.44301  0.42547  0.69252  Biso   1.000  O
  O879     1.0000 0.39578  0.37901  0.64606  Biso   1.000  O
  O880     1.0000 0.47837  0.95288  0.18972  Biso   1.000  O
  O881     1.0000 0.46471  0.93166  0.18740  Biso   1.000  O
  O882     1.0000 0.49957  0.93019  0.11206  Biso   1.000  O
  O883     1.0000 0.50264  0.90726  0.12236  Biso   1.000  O
  O884     1.0000 0.34060  0.43784  0.89945  Biso   1.000  O
  O885     1.0000 0.95023  0.22701  0.43008  Biso   1.000  O
  O886     1.0000 0.93291  0.30343  0.41481  Biso   1.000  O
  O887     1.0000 0.96970  0.31256  0.52598  Biso   1.000  O
  O888     1.0000 0.98178  0.29436  0.53878  Biso   1.000  O
  O889     1.0000 0.32446  0.98427  0.67825  Biso   1.000  O
  O890     1.0000 0.31357  0.99265  0.65684  Biso   1.000  O
  O891     1.0000 0.27577  0.89216  0.66625  Biso   1.000  O
  O892     1.0000 0.27165  0.89616  0.64146  Biso   1.000  O
  O893     1.0000 0.35366  0.87033  0.64586  Biso   1.000  O
  O894     1.0000 0.34568  0.87145  0.62181  Biso   1.000  O
  O895     1.0000 0.30642  0.42677  0.05985  Biso   1.000  O
  O896     1.0000 0.35321  0.37865  0.10446  Biso   1.000  O
  O897     1.0000 0.28152  0.95718  0.56766  Biso   1.000  O
  O898     1.0000 0.27842  0.93392  0.55785  Biso   1.000  O
  O899     1.0000 0.25166  0.93054  0.63862  Biso   1.000  O
  O900     1.0000 0.24861  0.90818  0.62733  Biso   1.000  O
  O901     1.0000 0.33682  0.92526  0.39289  Biso   1.000  O
  O902     1.0000 0.95058  0.72803  0.93030  Biso   1.000  O
  O903     1.0000 0.93458  0.80455  0.91518  Biso   1.000  O
  O904     1.0000 0.96996  0.81347  0.02595  Biso   1.000  O
  O905     1.0000 0.98149  0.79424  0.03787  Biso   1.000  O
  O906     1.0000 0.32815  0.47747  0.17261  Biso   1.000  O
  O907     1.0000 0.31201  0.49610  0.16660  Biso   1.000  O
  O908     1.0000 0.27581  0.39187  0.16643  Biso   1.000  O
  O909     1.0000 0.27111  0.39473  0.14158  Biso   1.000  O
  O910     1.0000 0.35379  0.38024  0.14425  Biso   1.000  O
  O911     1.0000 0.34699  0.36207  0.12801  Biso   1.000  O
  O912     1.0000 0.30702  0.92674  0.55874  Biso   1.000  O
  O913     1.0000 0.35998  0.87567  0.59664  Biso   1.000  O
  O914     1.0000 0.28087  0.45657  0.06773  Biso   1.000  O
  O915     1.0000 0.27769  0.43333  0.05809  Biso   1.000  O
  O916     1.0000 0.25154  0.42971  0.13924  Biso   1.000  O
  O917     1.0000 0.24826  0.40745  0.12780  Biso   1.000  O
  O918     1.0000 0.83579  0.42497  0.39287  Biso   1.000  O
  O919     1.0000 0.45042  0.22653  0.93080  Biso   1.000  O
  O920     1.0000 0.43312  0.30291  0.91447  Biso   1.000  O
  O921     1.0000 0.46964  0.31284  0.02623  Biso   1.000  O
  O922     1.0000 0.48168  0.29450  0.03884  Biso   1.000  O
  O923     1.0000 0.82425  0.98473  0.17842  Biso   1.000  O
  O924     1.0000 0.81376  0.99279  0.15670  Biso   1.000  O
  O925     1.0000 0.77966  0.90262  0.16417  Biso   1.000  O
  O926     1.0000 0.77006  0.88576  0.14788  Biso   1.000  O
  O927     1.0000 0.85490  0.88001  0.14496  Biso   1.000  O
  O928     1.0000 0.84782  0.86218  0.12841  Biso   1.000  O
  O929     1.0000 0.80710  0.42755  0.55853  Biso   1.000  O
  O930     1.0000 0.85300  0.37883  0.60292  Biso   1.000  O
  O931     1.0000 0.78117  0.95656  0.06749  Biso   1.000  O
  O932     1.0000 0.77748  0.93362  0.05730  Biso   1.000  O
  O933     1.0000 0.74334  0.92575  0.13415  Biso   1.000  O
  O934     1.0000 0.75942  0.90632  0.13010  Biso   1.000  O
  O935     1.0000 0.83844  0.92518  0.89461  Biso   1.000  O
  O936     1.0000 0.45095  0.72808  0.43156  Biso   1.000  O
  O937     1.0000 0.43391  0.80442  0.41657  Biso   1.000  O
  O938     1.0000 0.47799  0.81354  0.53601  Biso   1.000  O
  O939     1.0000 0.47645  0.78852  0.53164  Biso   1.000  O
  O940     1.0000 0.82796  0.47717  0.67066  Biso   1.000  O
  O941     1.0000 0.81186  0.49617  0.66575  Biso   1.000  O
  O942     1.0000 0.77515  0.39185  0.66473  Biso   1.000  O
  O943     1.0000 0.77041  0.39493  0.63992  Biso   1.000  O
  O944     1.0000 0.85294  0.38056  0.64265  Biso   1.000  O
  O945     1.0000 0.84633  0.36232  0.62640  Biso   1.000  O
  O946     1.0000 0.80602  0.92644  0.05918  Biso   1.000  O
  O947     1.0000 0.85362  0.87839  0.10468  Biso   1.000  O
  O948     1.0000 0.78160  0.45719  0.56704  Biso   1.000  O
  O949     1.0000 0.77843  0.43403  0.55706  Biso   1.000  O
  O950     1.0000 0.75114  0.43003  0.63789  Biso   1.000  O
  O951     1.0000 0.74764  0.40790  0.62631  Biso   1.000  O
  O952     1.0000 0.41133  0.81475  0.39891  Biso   1.000  O
  O953     1.0000 0.79924  0.02278  0.93163  Biso   1.000  O
  O954     1.0000 0.82545  0.94880  0.90938  Biso   1.000  O
  O955     1.0000 0.78062  0.93641  0.02704  Biso   1.000  O
  O956     1.0000 0.76932  0.95574  0.03901  Biso   1.000  O
  O957     1.0000 0.42128  0.27255  0.17139  Biso   1.000  O
  O958     1.0000 0.43754  0.25380  0.16585  Biso   1.000  O
  O959     1.0000 0.47119  0.34708  0.16375  Biso   1.000  O
  O960     1.0000 0.48022  0.36384  0.14700  Biso   1.000  O
  O961     1.0000 0.39473  0.36922  0.14551  Biso   1.000  O
  O962     1.0000 0.40279  0.38700  0.12943  Biso   1.000  O
  O963     1.0000 0.43990  0.82704  0.55063  Biso   1.000  O
  O964     1.0000 0.39027  0.87456  0.59711  Biso   1.000  O
  O965     1.0000 0.47023  0.29383  0.06723  Biso   1.000  O
  O966     1.0000 0.47319  0.31679  0.05667  Biso   1.000  O
  O967     1.0000 0.50765  0.32398  0.13406  Biso   1.000  O
  O968     1.0000 0.49148  0.34314  0.12938  Biso   1.000  O
  O969     1.0000 0.41021  0.31365  0.89749  Biso   1.000  O
  O970     1.0000 0.79949  0.52280  0.43016  Biso   1.000  O
  O971     1.0000 0.82464  0.44886  0.40812  Biso   1.000  O
  O972     1.0000 0.78129  0.43720  0.52655  Biso   1.000  O
  O973     1.0000 0.76951  0.45592  0.53892  Biso   1.000  O
  O974     1.0000 0.42476  0.76587  0.67765  Biso   1.000  O
  O975     1.0000 0.43609  0.75763  0.65637  Biso   1.000  O
  O976     1.0000 0.47321  0.85701  0.66701  Biso   1.000  O
  O977     1.0000 0.47780  0.85414  0.64207  Biso   1.000  O
  O978     1.0000 0.39602  0.88017  0.64634  Biso   1.000  O
  O979     1.0000 0.40410  0.87910  0.62237  Biso   1.000  O
  O980     1.0000 0.44467  0.32404  0.05845  Biso   1.000  O
  O981     1.0000 0.39769  0.37057  0.10558  Biso   1.000  O
  O982     1.0000 0.47882  0.79725  0.56095  Biso   1.000  O
  O983     1.0000 0.46489  0.81835  0.56348  Biso   1.000  O
  O984     1.0000 0.49820  0.81932  0.63913  Biso   1.000  O
  O985     1.0000 0.50109  0.84197  0.62824  Biso   1.000  O
  O986     1.0000 0.91218  0.81525  0.89726  Biso   1.000  O
  O987     1.0000 0.29936  0.02319  0.43144  Biso   1.000  O
  O988     1.0000 0.32491  0.94927  0.40773  Biso   1.000  O
  O989     1.0000 0.28079  0.93718  0.52732  Biso   1.000  O
  O990     1.0000 0.26929  0.95611  0.53954  Biso   1.000  O
  O991     1.0000 0.92062  0.27315  0.67100  Biso   1.000  O
  O992     1.0000 0.93693  0.25435  0.66574  Biso   1.000  O
  O993     1.0000 0.97006  0.34758  0.66398  Biso   1.000  O
  O994     1.0000 0.97893  0.36458  0.64739  Biso   1.000  O
  O995     1.0000 0.89373  0.36946  0.64467  Biso   1.000  O
  O996     1.0000 0.90214  0.38714  0.62864  Biso   1.000  O
  O997     1.0000 0.94496  0.82390  0.05848  Biso   1.000  O
  O998     1.0000 0.89816  0.87263  0.10555  Biso   1.000  O
  O999     1.0000 0.97016  0.29384  0.56714  Biso   1.000  O
  O1000    1.0000 0.97316  0.31669  0.55636  Biso   1.000  O
  O1001    1.0000 0.00653  0.32513  0.63385  Biso   1.000  O
  O1002    1.0000 0.99017  0.34416  0.62944  Biso   1.000  O
  O1003    1.0000 0.91040  0.31395  0.39731  Biso   1.000  O
  O1004    1.0000 0.30033  0.52279  0.93276  Biso   1.000  O
  O1005    1.0000 0.31784  0.44787  0.91676  Biso   1.000  O
  O1006    1.0000 0.28060  0.43596  0.02767  Biso   1.000  O
  O1007    1.0000 0.26893  0.45516  0.03936  Biso   1.000  O
  O1008    1.0000 0.92220  0.77207  0.17079  Biso   1.000  O
  O1009    1.0000 0.93835  0.75333  0.16482  Biso   1.000  O
  O1010    1.0000 0.97176  0.84679  0.16310  Biso   1.000  O
  O1011    1.0000 0.98064  0.86340  0.14615  Biso   1.000  O
  O1012    1.0000 0.89556  0.86896  0.14536  Biso   1.000  O
  O1013    1.0000 0.90298  0.88775  0.13010  Biso   1.000  O
  O1014    1.0000 0.94464  0.32386  0.55807  Biso   1.000  O
  O1015    1.0000 0.89740  0.37056  0.60479  Biso   1.000  O
  O1016    1.0000 0.97018  0.79354  0.06644  Biso   1.000  O
  O1017    1.0000 0.97345  0.81657  0.05623  Biso   1.000  O
  O1018    1.0000 0.00837  0.82384  0.13312  Biso   1.000  O
  O1019    1.0000 0.99191  0.84274  0.12857  Biso   1.000  O
  O1020    1.0000 0.84013  0.31314  0.35226  Biso   1.000  O
  O1021    1.0000 0.44931  0.52194  0.81733  Biso   1.000  O
  O1022    1.0000 0.43186  0.44738  0.83425  Biso   1.000  O
  O1023    1.0000 0.46808  0.43645  0.72471  Biso   1.000  O
  O1024    1.0000 0.48100  0.45389  0.71160  Biso   1.000  O
  O1025    1.0000 0.82786  0.77321  0.57908  Biso   1.000  O
  O1026    1.0000 0.81202  0.75390  0.58387  Biso   1.000  O
  O1027    1.0000 0.77862  0.84677  0.58778  Biso   1.000  O
  O1028    1.0000 0.76990  0.86386  0.60435  Biso   1.000  O
  O1029    1.0000 0.85527  0.86895  0.60513  Biso   1.000  O
  O1030    1.0000 0.84721  0.88705  0.62091  Biso   1.000  O
  O1031    1.0000 0.80589  0.32357  0.19158  Biso   1.000  O
  O1032    1.0000 0.85232  0.37157  0.14541  Biso   1.000  O
  O1033    1.0000 0.78074  0.79415  0.68331  Biso   1.000  O
  O1034    1.0000 0.77884  0.81718  0.69404  Biso   1.000  O
  O1035    1.0000 0.74120  0.82527  0.61792  Biso   1.000  O
  O1036    1.0000 0.75781  0.84404  0.62225  Biso   1.000  O
  O1037    1.0000 0.84044  0.81330  0.85295  Biso   1.000  O
  O1038    1.0000 0.45058  0.02316  0.31800  Biso   1.000  O
  O1039    1.0000 0.42303  0.95089  0.34017  Biso   1.000  O
  O1040    1.0000 0.47793  0.93694  0.21472  Biso   1.000  O
  O1041    1.0000 0.47603  0.96193  0.21905  Biso   1.000  O
  O1042    1.0000 0.82442  0.26589  0.07147  Biso   1.000  O
  O1043    1.0000 0.81378  0.25713  0.09281  Biso   1.000  O
  O1044    1.0000 0.77842  0.34661  0.08669  Biso   1.000  O
  O1045    1.0000 0.76914  0.36268  0.10393  Biso   1.000  O
  O1046    1.0000 0.85408  0.36956  0.10557  Biso   1.000  O
  O1047    1.0000 0.84646  0.38764  0.12154  Biso   1.000  O
  O1048    1.0000 0.80755  0.82362  0.69166  Biso   1.000  O
  O1049    1.0000 0.85321  0.87089  0.64470  Biso   1.000  O
  O1050    1.0000 0.78027  0.29239  0.18299  Biso   1.000  O
  O1051    1.0000 0.77746  0.31558  0.19328  Biso   1.000  O
  O1052    1.0000 0.74134  0.32284  0.11602  Biso   1.000  O
  O1053    1.0000 0.75822  0.34125  0.12074  Biso   1.000  O
  O1054    1.0000 0.33613  0.32633  0.85752  Biso   1.000  O
  O1055    1.0000 0.94954  0.52209  0.31847  Biso   1.000  O
  O1056    1.0000 0.93139  0.44840  0.33589  Biso   1.000  O
  O1057    1.0000 0.96916  0.43662  0.22444  Biso   1.000  O
  O1058    1.0000 0.98179  0.45476  0.21211  Biso   1.000  O
  O1059    1.0000 0.32471  0.76638  0.07248  Biso   1.000  O
  O1060    1.0000 0.31331  0.75675  0.09312  Biso   1.000  O
  O1061    1.0000 0.27997  0.84808  0.08536  Biso   1.000  O
  O1062    1.0000 0.27094  0.86574  0.10127  Biso   1.000  O
  O1063    1.0000 0.35602  0.86885  0.10502  Biso   1.000  O
  O1064    1.0000 0.34759  0.88610  0.12159  Biso   1.000  O
  O1065    1.0000 0.30580  0.32202  0.69208  Biso   1.000  O
  O1066    1.0000 0.35136  0.37075  0.64606  Biso   1.000  O
  O1067    1.0000 0.27308  0.80031  0.18952  Biso   1.000  O
  O1068    1.0000 0.28831  0.82068  0.18879  Biso   1.000  O
  O1069    1.0000 0.24328  0.82754  0.11739  Biso   1.000  O
  O1070    1.0000 0.25967  0.84671  0.12029  Biso   1.000  O
  O1071    1.0000 0.34005  0.81340  0.35397  Biso   1.000  O
  O1072    1.0000 0.94968  0.02374  0.81733  Biso   1.000  O
  O1073    1.0000 0.92252  0.95134  0.84100  Biso   1.000  O
  O1074    1.0000 0.96907  0.93742  0.72393  Biso   1.000  O
  O1075    1.0000 0.98052  0.95653  0.71181  Biso   1.000  O
  O1076    1.0000 0.32340  0.26686  0.57210  Biso   1.000  O
  O1077    1.0000 0.31250  0.25741  0.59311  Biso   1.000  O
  O1078    1.0000 0.27790  0.34774  0.58740  Biso   1.000  O
  O1079    1.0000 0.26888  0.36380  0.60493  Biso   1.000  O
  O1080    1.0000 0.35354  0.37007  0.60579  Biso   1.000  O
  O1081    1.0000 0.34540  0.38738  0.62249  Biso   1.000  O
  O1082    1.0000 0.31427  0.82570  0.20161  Biso   1.000  O
  O1083    1.0000 0.35386  0.86979  0.14540  Biso   1.000  O
  O1084    1.0000 0.28048  0.29202  0.68266  Biso   1.000  O
  O1085    1.0000 0.27722  0.31471  0.69374  Biso   1.000  O
  O1086    1.0000 0.24073  0.32469  0.61787  Biso   1.000  O
  O1087    1.0000 0.25758  0.34317  0.62234  Biso   1.000  O
  O1088    1.0000 0.66171  0.10522  0.57361  Biso   1.000  O
  O1089    1.0000 0.05826  0.57258  0.77740  Biso   1.000  O
  O1090    1.0000 0.06655  0.58416  0.69720  Biso   1.000  O
  O1091    1.0000 0.03014  0.47377  0.68755  Biso   1.000  O
  O1092    1.0000 0.01793  0.46127  0.70591  Biso   1.000  O
  O1093    1.0000 0.67558  0.32238  0.01561  Biso   1.000  O
  O1094    1.0000 0.68593  0.34384  0.00677  Biso   1.000  O
  O1095    1.0000 0.72042  0.33478  0.09671  Biso   1.000  O
  O1096    1.0000 0.72947  0.35023  0.11468  Biso   1.000  O
  O1097    1.0000 0.64614  0.35357  0.13092  Biso   1.000  O
  O1098    1.0000 0.65448  0.37745  0.12929  Biso   1.000  O
  O1099    1.0000 0.68854  0.94992  0.57602  Biso   1.000  O
  O1100    1.0000 0.64686  0.89559  0.62041  Biso   1.000  O
  O1101    1.0000 0.71945  0.43197  0.04495  Biso   1.000  O
  O1102    1.0000 0.72218  0.44283  0.06783  Biso   1.000  O
  O1103    1.0000 0.75718  0.36646  0.07641  Biso   1.000  O
  O1104    1.0000 0.74058  0.36959  0.09554  Biso   1.000  O
  O1105    1.0000 0.66342  0.60484  0.07447  Biso   1.000  O
  O1106    1.0000 0.04894  0.06724  0.27321  Biso   1.000  O
  O1107    1.0000 0.06690  0.08599  0.19795  Biso   1.000  O
  O1108    1.0000 0.02393  0.96487  0.18554  Biso   1.000  O
  O1109    1.0000 0.02521  0.96831  0.21064  Biso   1.000  O
  O1110    1.0000 0.67650  0.82266  0.51630  Biso   1.000  O
  O1111    1.0000 0.68690  0.84397  0.50728  Biso   1.000  O
  O1112    1.0000 0.72070  0.83667  0.59792  Biso   1.000  O
  O1113    1.0000 0.72940  0.85332  0.61489  Biso   1.000  O
  O1114    1.0000 0.64391  0.85554  0.61935  Biso   1.000  O
  O1115    1.0000 0.65231  0.87176  0.63693  Biso   1.000  O
  O1116    1.0000 0.69358  0.44116  0.07488  Biso   1.000  O
  O1117    1.0000 0.64040  0.40265  0.12487  Biso   1.000  O
  O1118    1.0000 0.72856  0.93963  0.54795  Biso   1.000  O
  O1119    1.0000 0.71430  0.93785  0.56897  Biso   1.000  O
  O1120    1.0000 0.75841  0.86709  0.57643  Biso   1.000  O
  O1121    1.0000 0.74157  0.87131  0.59503  Biso   1.000  O
  O1122    1.0000 0.16231  0.10533  0.07451  Biso   1.000  O
  O1123    1.0000 0.55871  0.57259  0.27838  Biso   1.000  O
  O1124    1.0000 0.56612  0.58630  0.19855  Biso   1.000  O
  O1125    1.0000 0.53088  0.47363  0.18629  Biso   1.000  O
  O1126    1.0000 0.51892  0.46076  0.20462  Biso   1.000  O
  O1127    1.0000 0.17080  0.32767  0.52407  Biso   1.000  O
  O1128    1.0000 0.18675  0.33315  0.50506  Biso   1.000  O
  O1129    1.0000 0.22018  0.33626  0.59798  Biso   1.000  O
  O1130    1.0000 0.22895  0.35216  0.61561  Biso   1.000  O
  O1131    1.0000 0.14397  0.35551  0.61990  Biso   1.000  O
  O1132    1.0000 0.15224  0.37183  0.63753  Biso   1.000  O
  O1133    1.0000 0.19468  0.94135  0.07273  Biso   1.000  O
  O1134    1.0000 0.14816  0.89520  0.12059  Biso   1.000  O
  O1135    1.0000 0.22743  0.44018  0.55040  Biso   1.000  O
  O1136    1.0000 0.21279  0.43857  0.57109  Biso   1.000  O
  O1137    1.0000 0.25674  0.36733  0.57689  Biso   1.000  O
  O1138    1.0000 0.24045  0.37090  0.59616  Biso   1.000  O
  O1139    1.0000 0.16221  0.60681  0.57383  Biso   1.000  O
  O1140    1.0000 0.55818  0.07217  0.77860  Biso   1.000  O
  O1141    1.0000 0.56712  0.08508  0.69873  Biso   1.000  O
  O1142    1.0000 0.52336  0.96522  0.68619  Biso   1.000  O
  O1143    1.0000 0.52408  0.96835  0.71135  Biso   1.000  O
  O1144    1.0000 0.17278  0.82862  0.02265  Biso   1.000  O
  O1145    1.0000 0.18829  0.83354  0.00322  Biso   1.000  O
  O1146    1.0000 0.22228  0.83752  0.09703  Biso   1.000  O
  O1147    1.0000 0.23099  0.85507  0.11302  Biso   1.000  O
  O1148    1.0000 0.14587  0.85519  0.11911  Biso   1.000  O
  O1149    1.0000 0.15393  0.87139  0.13686  Biso   1.000  O
  O1150    1.0000 0.18706  0.45100  0.57766  Biso   1.000  O
  O1151    1.0000 0.14617  0.39588  0.62163  Biso   1.000  O
  O1152    1.0000 0.21997  0.93325  0.04209  Biso   1.000  O
  O1153    1.0000 0.22322  0.94373  0.06502  Biso   1.000  O
  O1154    1.0000 0.25908  0.86723  0.07336  Biso   1.000  O
  O1155    1.0000 0.24240  0.87215  0.09199  Biso   1.000  O
  O1156    1.0000 0.08930  0.14609  0.06234  Biso   1.000  O
  O1157    1.0000 0.69938  0.68329  0.27233  Biso   1.000  O
  O1158    1.0000 0.67474  0.65939  0.19993  Biso   1.000  O
  O1159    1.0000 0.72736  0.78385  0.18569  Biso   1.000  O
  O1160    1.0000 0.72671  0.78119  0.21100  Biso   1.000  O
  O1161    1.0000 0.07442  0.92677  0.51529  Biso   1.000  O
  O1162    1.0000 0.06321  0.90565  0.50662  Biso   1.000  O
  O1163    1.0000 0.02610  0.91643  0.60730  Biso   1.000  O
  O1164    1.0000 0.02105  0.89152  0.60542  Biso   1.000  O
  O1165    1.0000 0.10511  0.89489  0.61847  Biso   1.000  O
  O1166    1.0000 0.09680  0.87901  0.63643  Biso   1.000  O
  O1167    1.0000 0.05585  0.30726  0.07489  Biso   1.000  O
  O1168    1.0000 0.10246  0.35444  0.12145  Biso   1.000  O
  O1169    1.0000 0.02140  0.81088  0.54869  Biso   1.000  O
  O1170    1.0000 0.03572  0.81201  0.56962  Biso   1.000  O
  O1171    1.0000 0.00176  0.88865  0.57015  Biso   1.000  O
  O1172    1.0000 0.99787  0.87790  0.59278  Biso   1.000  O
  O1173    1.0000 0.08926  0.64808  0.56379  Biso   1.000  O
  O1174    1.0000 0.70035  0.18079  0.77282  Biso   1.000  O
  O1175    1.0000 0.68457  0.16586  0.69652  Biso   1.000  O
  O1176    1.0000 0.72576  0.28363  0.68569  Biso   1.000  O
  O1177    1.0000 0.72543  0.28116  0.71101  Biso   1.000  O
  O1178    1.0000 0.07540  0.42733  0.01627  Biso   1.000  O
  O1179    1.0000 0.06467  0.40567  0.00856  Biso   1.000  O
  O1180    1.0000 0.02911  0.41291  0.09771  Biso   1.000  O
  O1181    1.0000 0.01969  0.39662  0.11471  Biso   1.000  O
  O1182    1.0000 0.10517  0.39447  0.12025  Biso   1.000  O
  O1183    1.0000 0.09711  0.37822  0.13791  Biso   1.000  O
  O1184    1.0000 0.06068  0.79903  0.57691  Biso   1.000  O
  O1185    1.0000 0.10203  0.85482  0.62050  Biso   1.000  O
  O1186    1.0000 0.03095  0.31733  0.04460  Biso   1.000  O
  O1187    1.0000 0.02740  0.30625  0.06728  Biso   1.000  O
  O1188    1.0000 0.99207  0.38307  0.07520  Biso   1.000  O
  O1189    1.0000 0.00831  0.37857  0.09441  Biso   1.000  O
  O1190    1.0000 0.58866  0.14632  0.56336  Biso   1.000  O
  O1191    1.0000 0.20086  0.68153  0.77316  Biso   1.000  O
  O1192    1.0000 0.17398  0.65811  0.70044  Biso   1.000  O
  O1193    1.0000 0.22582  0.78381  0.68510  Biso   1.000  O
  O1194    1.0000 0.22555  0.78100  0.71039  Biso   1.000  O
  O1195    1.0000 0.57461  0.92694  0.01465  Biso   1.000  O
  O1196    1.0000 0.56334  0.90576  0.00621  Biso   1.000  O
  O1197    1.0000 0.52673  0.91629  0.10665  Biso   1.000  O
  O1198    1.0000 0.52153  0.89141  0.10464  Biso   1.000  O
  O1199    1.0000 0.60403  0.89549  0.13126  Biso   1.000  O
  O1200    1.0000 0.59632  0.87171  0.12837  Biso   1.000  O
  O1201    1.0000 0.56058  0.29879  0.57664  Biso   1.000  O
  O1202    1.0000 0.60203  0.35437  0.62041  Biso   1.000  O
  O1203    1.0000 0.52294  0.81011  0.05019  Biso   1.000  O
  O1204    1.0000 0.53781  0.81170  0.07068  Biso   1.000  O
  O1205    1.0000 0.50244  0.88844  0.06961  Biso   1.000  O
  O1206    1.0000 0.49838  0.87774  0.09220  Biso   1.000  O
  O1207    1.0000 0.59076  0.64641  0.06285  Biso   1.000  O
  O1208    1.0000 0.19813  0.18148  0.27234  Biso   1.000  O
  O1209    1.0000 0.17479  0.15995  0.19959  Biso   1.000  O
  O1210    1.0000 0.22632  0.28403  0.18717  Biso   1.000  O
  O1211    1.0000 0.22575  0.28108  0.21243  Biso   1.000  O
  O1212    1.0000 0.57353  0.42727  0.51572  Biso   1.000  O
  O1213    1.0000 0.56338  0.40564  0.50745  Biso   1.000  O
  O1214    1.0000 0.52814  0.41304  0.59693  Biso   1.000  O
  O1215    1.0000 0.51893  0.39686  0.61414  Biso   1.000  O
  O1216    1.0000 0.60436  0.39484  0.61964  Biso   1.000  O
  O1217    1.0000 0.59630  0.37816  0.63692  Biso   1.000  O
  O1218    1.0000 0.56305  0.79847  0.07754  Biso   1.000  O
  O1219    1.0000 0.61096  0.84690  0.12344  Biso   1.000  O
  O1220    1.0000 0.52244  0.31113  0.54695  Biso   1.000  O
  O1221    1.0000 0.53564  0.31183  0.56871  Biso   1.000  O
  O1222    1.0000 0.49084  0.38254  0.57518  Biso   1.000  O
  O1223    1.0000 0.50741  0.37853  0.59417  Biso   1.000  O
  O1224    1.0000 0.16221  0.64226  0.67724  Biso   1.000  O
  O1225    1.0000 0.54836  0.18074  0.47681  Biso   1.000  O
  O1226    1.0000 0.56637  0.16433  0.55264  Biso   1.000  O
  O1227    1.0000 0.52242  0.28495  0.56259  Biso   1.000  O
  O1228    1.0000 0.52368  0.28199  0.53732  Biso   1.000  O
  O1229    1.0000 0.17536  0.42662  0.23489  Biso   1.000  O
  O1230    1.0000 0.18653  0.40558  0.24391  Biso   1.000  O
  O1231    1.0000 0.22409  0.41594  0.14368  Biso   1.000  O
  O1232    1.0000 0.22913  0.39098  0.14470  Biso   1.000  O
  O1233    1.0000 0.14603  0.39343  0.13159  Biso   1.000  O
  O1234    1.0000 0.15325  0.37715  0.11358  Biso   1.000  O
  O1235    1.0000 0.18713  0.79779  0.67268  Biso   1.000  O
  O1236    1.0000 0.14633  0.85354  0.62908  Biso   1.000  O
  O1237    1.0000 0.22760  0.31001  0.20221  Biso   1.000  O
  O1238    1.0000 0.21322  0.31122  0.18126  Biso   1.000  O
  O1239    1.0000 0.24843  0.38651  0.17990  Biso   1.000  O
  O1240    1.0000 0.25191  0.37662  0.15678  Biso   1.000  O
  O1241    1.0000 0.16308  0.14356  0.17654  Biso   1.000  O
  O1242    1.0000 0.55064  0.68234  0.97769  Biso   1.000  O
  O1243    1.0000 0.56883  0.66451  0.05169  Biso   1.000  O
  O1244    1.0000 0.52407  0.78446  0.06569  Biso   1.000  O
  O1245    1.0000 0.52426  0.78101  0.04045  Biso   1.000  O
  O1246    1.0000 0.17107  0.92097  0.72766  Biso   1.000  O
  O1247    1.0000 0.18710  0.91540  0.74657  Biso   1.000  O
  O1248    1.0000 0.22416  0.91650  0.64324  Biso   1.000  O
  O1249    1.0000 0.22958  0.89154  0.64363  Biso   1.000  O
  O1250    1.0000 0.14583  0.89382  0.63053  Biso   1.000  O
  O1251    1.0000 0.15330  0.87724  0.61290  Biso   1.000  O
  O1252    1.0000 0.18780  0.29830  0.17441  Biso   1.000  O
  O1253    1.0000 0.14678  0.35328  0.12970  Biso   1.000  O
  O1254    1.0000 0.22728  0.80981  0.69971  Biso   1.000  O
  O1255    1.0000 0.21236  0.81089  0.67923  Biso   1.000  O
  O1256    1.0000 0.24804  0.88669  0.67898  Biso   1.000  O
  O1257    1.0000 0.25254  0.87730  0.65595  Biso   1.000  O
  O1258    1.0000 0.66290  0.64312  0.17684  Biso   1.000  O
  O1259    1.0000 0.05928  0.17708  0.97134  Biso   1.000  O
  O1260    1.0000 0.06736  0.16458  0.05116  Biso   1.000  O
  O1261    1.0000 0.03028  0.27593  0.06281  Biso   1.000  O
  O1262    1.0000 0.01885  0.28913  0.04444  Biso   1.000  O
  O1263    1.0000 0.67554  0.42704  0.73386  Biso   1.000  O
  O1264    1.0000 0.68673  0.40599  0.74289  Biso   1.000  O
  O1265    1.0000 0.72357  0.41645  0.64232  Biso   1.000  O
  O1266    1.0000 0.72845  0.39144  0.64318  Biso   1.000  O
  O1267    1.0000 0.64521  0.39395  0.63110  Biso   1.000  O
  O1268    1.0000 0.65252  0.37800  0.61284  Biso   1.000  O
  O1269    1.0000 0.68895  0.79805  0.17250  Biso   1.000  O
  O1270    1.0000 0.64153  0.84757  0.12506  Biso   1.000  O
  O1271    1.0000 0.72736  0.30995  0.70054  Biso   1.000  O
  O1272    1.0000 0.71297  0.31098  0.67960  Biso   1.000  O
  O1273    1.0000 0.74785  0.38660  0.67828  Biso   1.000  O
  O1274    1.0000 0.75114  0.37683  0.65507  Biso   1.000  O
  O1275    1.0000 0.66278  0.14648  0.68695  Biso   1.000  O
  O1276    1.0000 0.05078  0.68189  0.47759  Biso   1.000  O
  O1277    1.0000 0.06729  0.66639  0.55291  Biso   1.000  O
  O1278    1.0000 0.02209  0.78494  0.56408  Biso   1.000  O
  O1279    1.0000 0.02285  0.78175  0.53884  Biso   1.000  O
  O1280    1.0000 0.67584  0.92613  0.23476  Biso   1.000  O
  O1281    1.0000 0.68696  0.90520  0.24375  Biso   1.000  O
  O1282    1.0000 0.72164  0.91458  0.15334  Biso   1.000  O
  O1283    1.0000 0.73069  0.89829  0.13626  Biso   1.000  O
  O1284    1.0000 0.64592  0.89708  0.12065  Biso   1.000  O
  O1285    1.0000 0.65498  0.87352  0.12174  Biso   1.000  O
  O1286    1.0000 0.68733  0.29838  0.67308  Biso   1.000  O
  O1287    1.0000 0.64633  0.35388  0.62873  Biso   1.000  O
  O1288    1.0000 0.72847  0.81003  0.20063  Biso   1.000  O
  O1289    1.0000 0.71439  0.81090  0.17944  Biso   1.000  O
  O1290    1.0000 0.75844  0.88309  0.17505  Biso   1.000  O
  O1291    1.0000 0.74112  0.88012  0.15671  Biso   1.000  O
  O1292    1.0000 0.58831  0.60446  0.18737  Biso   1.000  O
  O1293    1.0000 0.19926  0.06962  0.97729  Biso   1.000  O
  O1294    1.0000 0.17381  0.08954  0.05107  Biso   1.000  O
  O1295    1.0000 0.21928  0.97388  0.06153  Biso   1.000  O
  O1296    1.0000 0.23064  0.96225  0.04208  Biso   1.000  O
  O1297    1.0000 0.57880  0.82850  0.72802  Biso   1.000  O
  O1298    1.0000 0.56297  0.83417  0.74716  Biso   1.000  O
  O1299    1.0000 0.52533  0.83362  0.64409  Biso   1.000  O
  O1300    1.0000 0.51984  0.85847  0.64500  Biso   1.000  O
  O1301    1.0000 0.60327  0.85668  0.63136  Biso   1.000  O
  O1302    1.0000 0.59581  0.87275  0.61325  Biso   1.000  O
  O1303    1.0000 0.55722  0.44236  0.17565  Biso   1.000  O
  O1304    1.0000 0.60981  0.40271  0.12619  Biso   1.000  O
  O1305    1.0000 0.52227  0.93950  0.70083  Biso   1.000  O
  O1306    1.0000 0.53715  0.93827  0.68039  Biso   1.000  O
  O1307    1.0000 0.50087  0.86271  0.68005  Biso   1.000  O
  O1308    1.0000 0.49663  0.87245  0.65713  Biso   1.000  O
  O1309    1.0000 0.58960  0.10326  0.68831  Biso   1.000  O
  O1310    1.0000 0.19091  0.57222  0.47156  Biso   1.000  O
  O1311    1.0000 0.17350  0.59108  0.54994  Biso   1.000  O
  O1312    1.0000 0.22530  0.46597  0.56512  Biso   1.000  O
  O1313    1.0000 0.22453  0.46904  0.53993  Biso   1.000  O
  O1314    1.0000 0.57715  0.32975  0.22878  Biso   1.000  O
  O1315    1.0000 0.56193  0.33556  0.24818  Biso   1.000  O
  O1316    1.0000 0.52885  0.33522  0.15331  Biso   1.000  O
  O1317    1.0000 0.52009  0.35173  0.13611  Biso   1.000  O
  O1318    1.0000 0.60403  0.35347  0.12115  Biso   1.000  O
  O1319    1.0000 0.59575  0.37742  0.12215  Biso   1.000  O
  O1320    1.0000 0.56208  0.95177  0.67335  Biso   1.000  O
  O1321    1.0000 0.60260  0.89683  0.62881  Biso   1.000  O
  O1322    1.0000 0.53092  0.43255  0.20487  Biso   1.000  O
  O1323    1.0000 0.52840  0.44335  0.18194  Biso   1.000  O
  O1324    1.0000 0.49203  0.36714  0.17445  Biso   1.000  O
  O1325    1.0000 0.50890  0.37050  0.15567  Biso   1.000  O
  O1326    1.0000 0.08846  0.60269  0.68636  Biso   1.000  O
  O1327    1.0000 0.70033  0.06867  0.47699  Biso   1.000  O
  O1328    1.0000 0.67338  0.08946  0.55022  Biso   1.000  O
  O1329    1.0000 0.72671  0.96536  0.56396  Biso   1.000  O
  O1330    1.0000 0.72625  0.96912  0.53887  Biso   1.000  O
  O1331    1.0000 0.07835  0.82904  0.22741  Biso   1.000  O
  O1332    1.0000 0.06302  0.83448  0.24680  Biso   1.000  O
  O1333    1.0000 0.02949  0.83528  0.15233  Biso   1.000  O
  O1334    1.0000 0.02045  0.85169  0.13516  Biso   1.000  O
  O1335    1.0000 0.10541  0.85558  0.13113  Biso   1.000  O
  O1336    1.0000 0.09769  0.87144  0.11298  Biso   1.000  O
  O1337    1.0000 0.05577  0.44198  0.67692  Biso   1.000  O
  O1338    1.0000 0.10182  0.39576  0.62970  Biso   1.000  O
  O1339    1.0000 0.02286  0.93915  0.20089  Biso   1.000  O
  O1340    1.0000 0.03684  0.93777  0.17965  Biso   1.000  O
  O1341    1.0000 0.99252  0.86693  0.17371  Biso   1.000  O
  O1342    1.0000 0.00916  0.87040  0.15473  Biso   1.000  O
  O1343    1.0000 0.08965  0.10349  0.18745  Biso   1.000  O
  O1344    1.0000 0.69992  0.56752  0.97804  Biso   1.000  O
  O1345    1.0000 0.67491  0.58807  0.05154  Biso   1.000  O
  O1346    1.0000 0.71904  0.47304  0.06373  Biso   1.000  O
  O1347    1.0000 0.73080  0.46048  0.04508  Biso   1.000  O
  O1348    1.0000 0.07696  0.32995  0.72791  Biso   1.000  O
  O1349    1.0000 0.06164  0.33555  0.74728  Biso   1.000  O
  O1350    1.0000 0.02768  0.33633  0.65319  Biso   1.000  O
  O1351    1.0000 0.01870  0.35291  0.63616  Biso   1.000  O
  O1352    1.0000 0.10361  0.35607  0.63218  Biso   1.000  O
  O1353    1.0000 0.09600  0.37168  0.61382  Biso   1.000  O
  O1354    1.0000 0.06218  0.95055  0.17221  Biso   1.000  O
  O1355    1.0000 0.10379  0.89551  0.12874  Biso   1.000  O
  O1356    1.0000 0.02952  0.43272  0.70600  Biso   1.000  O
  O1357    1.0000 0.02697  0.44366  0.68318  Biso   1.000  O
  O1358    1.0000 0.99077  0.36765  0.67481  Biso   1.000  O
  O1359    1.0000 0.00752  0.37136  0.65599  Biso   1.000  O
  O1360    1.0000 0.60262  0.18668  0.58891  Biso   1.000  O
  O1361    1.0000 0.07297  0.97221  0.19033  Biso   1.000  O
  O1362    1.0000 0.08403  0.05260  0.18392  Biso   1.000  O
  O1363    1.0000 0.97435  0.06373  0.21918  Biso   1.000  O
  O1364    1.0000 0.96130  0.04548  0.23080  Biso   1.000  O
  O1365    1.0000 0.82825  0.72815  0.57752  Biso   1.000  O
  O1366    1.0000 0.83299  0.74783  0.56230  Biso   1.000  O
  O1367    1.0000 0.83605  0.65296  0.52861  Biso   1.000  O
  O1368    1.0000 0.85197  0.63596  0.51889  Biso   1.000  O
  O1369    1.0000 0.85476  0.63149  0.60487  Biso   1.000  O
  O1370    1.0000 0.87035  0.61329  0.59662  Biso   1.000  O
  O1371    1.0000 0.45073  0.17403  0.56256  Biso   1.000  O
  O1372    1.0000 0.40236  0.12678  0.60969  Biso   1.000  O
  O1373    1.0000 0.93981  0.70069  0.52111  Biso   1.000  O
  O1374    1.0000 0.93813  0.67981  0.53549  Biso   1.000  O
  O1375    1.0000 0.86605  0.67547  0.49163  Biso   1.000  O
  O1376    1.0000 0.86988  0.65651  0.50817  Biso   1.000  O
  O1377    1.0000 0.60341  0.68640  0.08968  Biso   1.000  O
  O1378    1.0000 0.06629  0.47819  0.70178  Biso   1.000  O
  O1379    1.0000 0.08489  0.55217  0.68209  Biso   1.000  O
  O1380    1.0000 0.96541  0.56472  0.72672  Biso   1.000  O
  O1381    1.0000 0.96888  0.53957  0.72587  Biso   1.000  O
  O1382    1.0000 0.82264  0.23510  0.07295  Biso   1.000  O
  O1383    1.0000 0.84413  0.24372  0.06260  Biso   1.000  O
  O1384    1.0000 0.83762  0.15336  0.02842  Biso   1.000  O
  O1385    1.0000 0.85302  0.13568  0.01906  Biso   1.000  O
  O1386    1.0000 0.85476  0.13108  0.10447  Biso   1.000  O
  O1387    1.0000 0.87083  0.11297  0.09677  Biso   1.000  O
  O1388    1.0000 0.45119  0.67291  0.06200  Biso   1.000  O
  O1389    1.0000 0.39461  0.62873  0.10208  Biso   1.000  O
  O1390    1.0000 0.93250  0.20507  0.02998  Biso   1.000  O
  O1391    1.0000 0.94361  0.18232  0.02734  Biso   1.000  O
  O1392    1.0000 0.86724  0.17454  0.99091  Biso   1.000  O
  O1393    1.0000 0.87118  0.15567  0.00758  Biso   1.000  O
  O1394    1.0000 0.10226  0.18614  0.08914  Biso   1.000  O
  O1395    1.0000 0.57228  0.97307  0.69220  Biso   1.000  O
  O1396    1.0000 0.58438  0.05267  0.68335  Biso   1.000  O
  O1397    1.0000 0.47391  0.06432  0.71955  Biso   1.000  O
  O1398    1.0000 0.46117  0.04586  0.73132  Biso   1.000  O
  O1399    1.0000 0.32259  0.73508  0.07325  Biso   1.000  O
  O1400    1.0000 0.34417  0.74396  0.06334  Biso   1.000  O
  O1401    1.0000 0.33790  0.65401  0.02851  Biso   1.000  O
  O1402    1.0000 0.35386  0.63696  0.01914  Biso   1.000  O
  O1403    1.0000 0.35413  0.63047  0.10486  Biso   1.000  O
  O1404    1.0000 0.37050  0.61286  0.09666  Biso   1.000  O
  O1405    1.0000 0.94206  0.17557  0.05618  Biso   1.000  O
  O1406    1.0000 0.89490  0.12860  0.10250  Biso   1.000  O
  O1407    1.0000 0.44065  0.70178  0.02265  Biso   1.000  O
  O1408    1.0000 0.43902  0.68039  0.03635  Biso   1.000  O
  O1409    1.0000 0.36747  0.67651  0.99139  Biso   1.000  O
  O1410    1.0000 0.37117  0.65803  0.00846  Biso   1.000  O
  O1411    1.0000 0.10220  0.68783  0.59088  Biso   1.000  O
  O1412    1.0000 0.56776  0.47829  0.20083  Biso   1.000  O
  O1413    1.0000 0.58327  0.55370  0.18347  Biso   1.000  O
  O1414    1.0000 0.47364  0.56374  0.21857  Biso   1.000  O
  O1415    1.0000 0.46147  0.54529  0.23100  Biso   1.000  O
  O1416    1.0000 0.32134  0.23561  0.57326  Biso   1.000  O
  O1417    1.0000 0.34253  0.24436  0.56257  Biso   1.000  O
  O1418    1.0000 0.33608  0.15337  0.52905  Biso   1.000  O
  O1419    1.0000 0.35267  0.13642  0.52009  Biso   1.000  O
  O1420    1.0000 0.35324  0.11988  0.60472  Biso   1.000  O
  O1421    1.0000 0.37683  0.12222  0.59603  Biso   1.000  O
  O1422    1.0000 0.95059  0.67285  0.56112  Biso   1.000  O
  O1423    1.0000 0.89466  0.62904  0.60205  Biso   1.000  O
  O1424    1.0000 0.43992  0.20085  0.52166  Biso   1.000  O
  O1425    1.0000 0.43849  0.18033  0.53655  Biso   1.000  O
  O1426    1.0000 0.36706  0.17535  0.49208  Biso   1.000  O
  O1427    1.0000 0.37052  0.15665  0.50897  Biso   1.000  O
  O1428    1.0000 0.64423  0.67498  0.16239  Biso   1.000  O
  O1429    1.0000 0.17615  0.47210  0.55872  Biso   1.000  O
  O1430    1.0000 0.15760  0.55117  0.57528  Biso   1.000  O
  O1431    1.0000 0.27662  0.56381  0.53066  Biso   1.000  O
  O1432    1.0000 0.28875  0.54495  0.51899  Biso   1.000  O
  O1433    1.0000 0.42195  0.22787  0.17190  Biso   1.000  O
  O1434    1.0000 0.41633  0.24688  0.18780  Biso   1.000  O
  O1435    1.0000 0.41529  0.14359  0.22399  Biso   1.000  O
  O1436    1.0000 0.39042  0.14551  0.22930  Biso   1.000  O
  O1437    1.0000 0.39514  0.11961  0.14645  Biso   1.000  O
  O1438    1.0000 0.37120  0.12196  0.15403  Biso   1.000  O
  O1439    1.0000 0.80009  0.67263  0.18950  Biso   1.000  O
  O1440    1.0000 0.84607  0.62537  0.13983  Biso   1.000  O
  O1441    1.0000 0.30968  0.20007  0.22830  Biso   1.000  O
  O1442    1.0000 0.31264  0.18018  0.21296  Biso   1.000  O
  O1443    1.0000 0.38814  0.18070  0.24832  Biso   1.000  O
  O1444    1.0000 0.37696  0.15835  0.25255  Biso   1.000  O
  O1445    1.0000 0.64700  0.18548  0.66036  Biso   1.000  O
  O1446    1.0000 0.18174  0.97750  0.04892  Biso   1.000  O
  O1447    1.0000 0.15964  0.04961  0.07702  Biso   1.000  O
  O1448    1.0000 0.28465  0.06460  0.02206  Biso   1.000  O
  O1449    1.0000 0.28116  0.03945  0.02300  Biso   1.000  O
  O1450    1.0000 0.42737  0.73523  0.67566  Biso   1.000  O
  O1451    1.0000 0.40556  0.74302  0.68605  Biso   1.000  O
  O1452    1.0000 0.41646  0.64315  0.72419  Biso   1.000  O
  O1453    1.0000 0.39160  0.64468  0.72951  Biso   1.000  O
  O1454    1.0000 0.39578  0.61874  0.64674  Biso   1.000  O
  O1455    1.0000 0.37189  0.62120  0.65448  Biso   1.000  O
  O1456    1.0000 0.80031  0.17331  0.68780  Biso   1.000  O
  O1457    1.0000 0.84698  0.12637  0.63935  Biso   1.000  O
  O1458    1.0000 0.31096  0.70269  0.72726  Biso   1.000  O
  O1459    1.0000 0.31301  0.68145  0.71367  Biso   1.000  O
  O1460    1.0000 0.38821  0.68018  0.74842  Biso   1.000  O
  O1461    1.0000 0.37789  0.65738  0.75249  Biso   1.000  O
  O1462    1.0000 0.14353  0.67483  0.66315  Biso   1.000  O
  O1463    1.0000 0.68158  0.47680  0.05013  Biso   1.000  O
  O1464    1.0000 0.65794  0.54936  0.07776  Biso   1.000  O
  O1465    1.0000 0.77563  0.56122  0.03106  Biso   1.000  O
  O1466    1.0000 0.78921  0.54371  0.01899  Biso   1.000  O
  O1467    1.0000 0.92136  0.22850  0.67191  Biso   1.000  O
  O1468    1.0000 0.91573  0.24763  0.68763  Biso   1.000  O
  O1469    1.0000 0.91587  0.14475  0.72384  Biso   1.000  O
  O1470    1.0000 0.89097  0.14660  0.72900  Biso   1.000  O
  O1471    1.0000 0.89586  0.12003  0.64634  Biso   1.000  O
  O1472    1.0000 0.87195  0.12217  0.65408  Biso   1.000  O
  O1473    1.0000 0.29990  0.67278  0.68893  Biso   1.000  O
  O1474    1.0000 0.34691  0.62602  0.63972  Biso   1.000  O
  O1475    1.0000 0.80973  0.20050  0.72842  Biso   1.000  O
  O1476    1.0000 0.81289  0.18053  0.71322  Biso   1.000  O
  O1477    1.0000 0.88844  0.18162  0.74838  Biso   1.000  O
  O1478    1.0000 0.87729  0.15918  0.75227  Biso   1.000  O
  O1479    1.0000 0.14334  0.17506  0.16256  Biso   1.000  O
  O1480    1.0000 0.67740  0.97167  0.55824  Biso   1.000  O
  O1481    1.0000 0.65845  0.04935  0.57581  Biso   1.000  O
  O1482    1.0000 0.78452  0.06460  0.52295  Biso   1.000  O
  O1483    1.0000 0.78140  0.03940  0.52391  Biso   1.000  O
  O1484    1.0000 0.92269  0.72740  0.17088  Biso   1.000  O
  O1485    1.0000 0.91718  0.74627  0.18695  Biso   1.000  O
  O1486    1.0000 0.91673  0.64279  0.22347  Biso   1.000  O
  O1487    1.0000 0.89190  0.64429  0.22906  Biso   1.000  O
  O1488    1.0000 0.89518  0.61933  0.14607  Biso   1.000  O
  O1489    1.0000 0.87141  0.62158  0.15414  Biso   1.000  O
  O1490    1.0000 0.29998  0.17322  0.18753  Biso   1.000  O
  O1491    1.0000 0.34636  0.12617  0.13902  Biso   1.000  O
  O1492    1.0000 0.81074  0.70175  0.22855  Biso   1.000  O
  O1493    1.0000 0.81288  0.68087  0.21455  Biso   1.000  O
  O1494    1.0000 0.88869  0.67949  0.24797  Biso   1.000  O
  O1495    1.0000 0.87839  0.65677  0.25223  Biso   1.000  O
  O1496    1.0000 0.14391  0.07303  0.08860  Biso   1.000  O
  O1497    1.0000 0.67665  0.27751  0.69163  Biso   1.000  O
  O1498    1.0000 0.66477  0.19672  0.68235  Biso   1.000  O
  O1499    1.0000 0.78514  0.18499  0.72641  Biso   1.000  O
  O1500    1.0000 0.78057  0.20998  0.72531  Biso   1.000  O
  O1501    1.0000 0.92229  0.52296  0.07882  Biso   1.000  O
  O1502    1.0000 0.91739  0.50392  0.06264  Biso   1.000  O
  O1503    1.0000 0.91443  0.59861  0.02887  Biso   1.000  O
  O1504    1.0000 0.89732  0.61484  0.01963  Biso   1.000  O
  O1505    1.0000 0.89585  0.62936  0.10401  Biso   1.000  O
  O1506    1.0000 0.87200  0.62823  0.09536  Biso   1.000  O
  O1507    1.0000 0.29911  0.07723  0.06067  Biso   1.000  O
  O1508    1.0000 0.34724  0.12450  0.10897  Biso   1.000  O
  O1509    1.0000 0.81729  0.54396  0.03052  Biso   1.000  O
  O1510    1.0000 0.80587  0.56659  0.02785  Biso   1.000  O
  O1511    1.0000 0.88314  0.57450  0.99393  Biso   1.000  O
  O1512    1.0000 0.87946  0.59383  0.01008  Biso   1.000  O
  O1513    1.0000 0.14325  0.57554  0.58745  Biso   1.000  O
  O1514    1.0000 0.67829  0.77715  0.19088  Biso   1.000  O
  O1515    1.0000 0.65992  0.69874  0.17347  Biso   1.000  O
  O1516    1.0000 0.78529  0.68690  0.22749  Biso   1.000  O
  O1517    1.0000 0.78211  0.71207  0.22554  Biso   1.000  O
  O1518    1.0000 0.92113  0.02322  0.57935  Biso   1.000  O
  O1519    1.0000 0.91642  0.00425  0.56305  Biso   1.000  O
  O1520    1.0000 0.91479  0.09817  0.52883  Biso   1.000  O
  O1521    1.0000 0.89809  0.11472  0.51953  Biso   1.000  O
  O1522    1.0000 0.89694  0.12940  0.60402  Biso   1.000  O
  O1523    1.0000 0.87301  0.12863  0.59536  Biso   1.000  O
  O1524    1.0000 0.30856  0.57441  0.55615  Biso   1.000  O
  O1525    1.0000 0.34777  0.62524  0.60950  Biso   1.000  O
  O1526    1.0000 0.81011  0.05005  0.52165  Biso   1.000  O
  O1527    1.0000 0.81171  0.07036  0.53666  Biso   1.000  O
  O1528    1.0000 0.88391  0.07434  0.49376  Biso   1.000  O
  O1529    1.0000 0.88033  0.09357  0.51002  Biso   1.000  O
  O1530    1.0000 0.64273  0.07306  0.58723  Biso   1.000  O
  O1531    1.0000 0.17726  0.27711  0.19280  Biso   1.000  O
  O1532    1.0000 0.15877  0.19913  0.17361  Biso   1.000  O
  O1533    1.0000 0.28485  0.18495  0.22614  Biso   1.000  O
  O1534    1.0000 0.28074  0.21003  0.22521  Biso   1.000  O
  O1535    1.0000 0.42120  0.52253  0.57882  Biso   1.000  O
  O1536    1.0000 0.41585  0.50365  0.56257  Biso   1.000  O
  O1537    1.0000 0.41474  0.59808  0.52909  Biso   1.000  O
  O1538    1.0000 0.39711  0.61388  0.52003  Biso   1.000  O
  O1539    1.0000 0.39732  0.62932  0.60471  Biso   1.000  O
  O1540    1.0000 0.37348  0.62928  0.59599  Biso   1.000  O
  O1541    1.0000 0.79857  0.07761  0.56160  Biso   1.000  O
  O1542    1.0000 0.84751  0.12476  0.60935  Biso   1.000  O
  O1543    1.0000 0.31704  0.54419  0.53060  Biso   1.000  O
  O1544    1.0000 0.30686  0.56729  0.52754  Biso   1.000  O
  O1545    1.0000 0.38418  0.57386  0.49298  Biso   1.000  O
  O1546    1.0000 0.37987  0.59252  0.50975  Biso   1.000  O
  O1547    1.0000 0.64342  0.57425  0.08869  Biso   1.000  O
  O1548    1.0000 0.17695  0.77676  0.69152  Biso   1.000  O
  O1549    1.0000 0.15943  0.69812  0.67478  Biso   1.000  O
  O1550    1.0000 0.28568  0.68677  0.72724  Biso   1.000  O
  O1551    1.0000 0.28181  0.71181  0.72527  Biso   1.000  O
  O1552    1.0000 0.42134  0.02238  0.08010  Biso   1.000  O
  O1553    1.0000 0.41645  0.00348  0.06369  Biso   1.000  O
  O1554    1.0000 0.41529  0.09748  0.02932  Biso   1.000  O
  O1555    1.0000 0.39844  0.11382  0.01995  Biso   1.000  O
  O1556    1.0000 0.39669  0.12911  0.10422  Biso   1.000  O
  O1557    1.0000 0.37289  0.12834  0.09532  Biso   1.000  O
  O1558    1.0000 0.80726  0.57352  0.05649  Biso   1.000  O
  O1559    1.0000 0.84658  0.62376  0.10921  Biso   1.000  O
  O1560    1.0000 0.31003  0.04970  0.02055  Biso   1.000  O
  O1561    1.0000 0.31198  0.06995  0.03561  Biso   1.000  O
  O1562    1.0000 0.38468  0.07347  0.99386  Biso   1.000  O
  O1563    1.0000 0.38095  0.09239  0.01044  Biso   1.000  O
  O1564    1.0000 0.10242  0.56295  0.65975  Biso   1.000  O
  O1565    1.0000 0.57290  0.77689  0.05928  Biso   1.000  O
  O1566    1.0000 0.58614  0.69700  0.06672  Biso   1.000  O
  O1567    1.0000 0.46634  0.68670  0.02417  Biso   1.000  O
  O1568    1.0000 0.46968  0.71179  0.02595  Biso   1.000  O
  O1569    1.0000 0.32173  0.01541  0.67627  Biso   1.000  O
  O1570    1.0000 0.34310  0.00720  0.68731  Biso   1.000  O
  O1571    1.0000 0.33514  0.09851  0.72113  Biso   1.000  O
  O1572    1.0000 0.35168  0.11509  0.73068  Biso   1.000  O
  O1573    1.0000 0.35337  0.13044  0.64659  Biso   1.000  O
  O1574    1.0000 0.37733  0.12985  0.65487  Biso   1.000  O
  O1575    1.0000 0.95044  0.57705  0.68828  Biso   1.000  O
  O1576    1.0000 0.89542  0.62029  0.64648  Biso   1.000  O
  O1577    1.0000 0.43291  0.04545  0.71966  Biso   1.000  O
  O1578    1.0000 0.44353  0.06841  0.72254  Biso   1.000  O
  O1579    1.0000 0.36634  0.07505  0.75672  Biso   1.000  O
  O1580    1.0000 0.36974  0.09427  0.74033  Biso   1.000  O
  O1581    1.0000 0.10323  0.06281  0.16215  Biso   1.000  O
  O1582    1.0000 0.57130  0.27670  0.55908  Biso   1.000  O
  O1583    1.0000 0.58437  0.19703  0.56654  Biso   1.000  O
  O1584    1.0000 0.46603  0.18638  0.52422  Biso   1.000  O
  O1585    1.0000 0.46844  0.21167  0.52445  Biso   1.000  O
  O1586    1.0000 0.32775  0.52211  0.17191  Biso   1.000  O
  O1587    1.0000 0.33341  0.50354  0.18823  Biso   1.000  O
  O1588    1.0000 0.33353  0.60805  0.22420  Biso   1.000  O
  O1589    1.0000 0.35850  0.60619  0.22900  Biso   1.000  O
  O1590    1.0000 0.35539  0.61930  0.14578  Biso   1.000  O
  O1591    1.0000 0.37143  0.63752  0.15263  Biso   1.000  O
  O1592    1.0000 0.94274  0.07492  0.19331  Biso   1.000  O
  O1593    1.0000 0.89457  0.12118  0.14704  Biso   1.000  O
  O1594    1.0000 0.43299  0.54403  0.21993  Biso   1.000  O
  O1595    1.0000 0.44325  0.56720  0.22215  Biso   1.000  O
  O1596    1.0000 0.36232  0.57158  0.24746  Biso   1.000  O
  O1597    1.0000 0.37273  0.59403  0.25202  Biso   1.000  O
  O1598    1.0000 0.60154  0.56441  0.16110  Biso   1.000  O
  O1599    1.0000 0.07112  0.77751  0.55903  Biso   1.000  O
  O1600    1.0000 0.08483  0.69837  0.56810  Biso   1.000  O
  O1601    1.0000 0.96543  0.68612  0.52294  Biso   1.000  O
  O1602    1.0000 0.96864  0.71127  0.52438  Biso   1.000  O
  O1603    1.0000 0.82204  0.01581  0.17558  Biso   1.000  O
  O1604    1.0000 0.84323  0.00742  0.18700  Biso   1.000  O
  O1605    1.0000 0.83614  0.09783  0.22118  Biso   1.000  O
  O1606    1.0000 0.85305  0.11436  0.23029  Biso   1.000  O
  O1607    1.0000 0.85472  0.11978  0.14511  Biso   1.000  O
  O1608    1.0000 0.87095  0.13763  0.15268  Biso   1.000  O
  O1609    1.0000 0.44108  0.57366  0.19349  Biso   1.000  O
  O1610    1.0000 0.39481  0.62058  0.14663  Biso   1.000  O
  O1611    1.0000 0.93338  0.04460  0.21883  Biso   1.000  O
  O1612    1.0000 0.94378  0.06770  0.22185  Biso   1.000  O
  O1613    1.0000 0.86658  0.07429  0.25695  Biso   1.000  O
  O1614    1.0000 0.87069  0.09313  0.24032  Biso   1.000  O
  O1615    1.0000 0.60283  0.06340  0.66140  Biso   1.000  O
  O1616    1.0000 0.06781  0.27185  0.04995  Biso   1.000  O
  O1617    1.0000 0.08461  0.19635  0.06646  Biso   1.000  O
  O1618    1.0000 0.97398  0.18709  0.03078  Biso   1.000  O
  O1619    1.0000 0.96088  0.20477  0.01844  Biso   1.000  O
  O1620    1.0000 0.82782  0.52215  0.67200  Biso   1.000  O
  O1621    1.0000 0.83249  0.50255  0.68728  Biso   1.000  O
  O1622    1.0000 0.83542  0.59710  0.72100  Biso   1.000  O
  O1623    1.0000 0.85211  0.61365  0.73033  Biso   1.000  O
  O1624    1.0000 0.85546  0.61938  0.64539  Biso   1.000  O
  O1625    1.0000 0.87198  0.63687  0.65312  Biso   1.000  O
  O1626    1.0000 0.44212  0.07560  0.69388  Biso   1.000  O
  O1627    1.0000 0.40256  0.12552  0.64075  Biso   1.000  O
  O1628    1.0000 0.94010  0.54992  0.72891  Biso   1.000  O
  O1629    1.0000 0.93781  0.57000  0.71365  Biso   1.000  O
  O1630    1.0000 0.86585  0.57377  0.75715  Biso   1.000  O
  O1631    1.0000 0.86963  0.59259  0.74045  Biso   1.000  O
  O1632    1.0000 0.68736  0.16057  0.64583  Biso   1.000  O
  O1633    1.0000 0.47681  0.54939  0.18120  Biso   1.000  O
  O1634    1.0000 0.55151  0.56790  0.16569  Biso   1.000  O
  O1635    1.0000 0.56273  0.52342  0.28554  Biso   1.000  O
  O1636    1.0000 0.53766  0.52526  0.28178  Biso   1.000  O
  O1637    1.0000 0.23532  0.17600  0.42773  Biso   1.000  O
  O1638    1.0000 0.24300  0.18675  0.40602  Biso   1.000  O
  O1639    1.0000 0.14323  0.22352  0.41665  Biso   1.000  O
  O1640    1.0000 0.14599  0.22772  0.39175  Biso   1.000  O
  O1641    1.0000 0.11856  0.14647  0.39569  Biso   1.000  O
  O1642    1.0000 0.12031  0.15370  0.37147  Biso   1.000  O
  O1643    1.0000 0.67578  0.19370  0.80813  Biso   1.000  O
  O1644    1.0000 0.62870  0.14739  0.85554  Biso   1.000  O
  O1645    1.0000 0.20733  0.21732  0.31791  Biso   1.000  O
  O1646    1.0000 0.18407  0.22162  0.30845  Biso   1.000  O
  O1647    1.0000 0.18101  0.24815  0.38882  Biso   1.000  O
  O1648    1.0000 0.15846  0.25057  0.37748  Biso   1.000  O
  O1649    1.0000 0.67641  0.66082  0.14382  Biso   1.000  O
  O1650    1.0000 0.47752  0.05059  0.68157  Biso   1.000  O
  O1651    1.0000 0.55268  0.06782  0.66529  Biso   1.000  O
  O1652    1.0000 0.56336  0.02301  0.78486  Biso   1.000  O
  O1653    1.0000 0.53815  0.02409  0.78165  Biso   1.000  O
  O1654    1.0000 0.23522  0.67576  0.92779  Biso   1.000  O
  O1655    1.0000 0.24382  0.68640  0.90639  Biso   1.000  O
  O1656    1.0000 0.15304  0.72081  0.91522  Biso   1.000  O
  O1657    1.0000 0.13587  0.72987  0.89888  Biso   1.000  O
  O1658    1.0000 0.12002  0.64612  0.89703  Biso   1.000  O
  O1659    1.0000 0.12083  0.65452  0.87308  Biso   1.000  O
  O1660    1.0000 0.67553  0.69450  0.30890  Biso   1.000  O
  O1661    1.0000 0.62613  0.64046  0.34714  Biso   1.000  O
  O1662    1.0000 0.20546  0.72000  0.81757  Biso   1.000  O
  O1663    1.0000 0.18256  0.72249  0.80674  Biso   1.000  O
  O1664    1.0000 0.17471  0.75738  0.88382  Biso   1.000  O
  O1665    1.0000 0.15548  0.74106  0.88009  Biso   1.000  O
  O1666    1.0000 0.17560  0.16171  0.14346  Biso   1.000  O
  O1667    1.0000 0.97170  0.55801  0.67769  Biso   1.000  O
  O1668    1.0000 0.05193  0.56580  0.66421  Biso   1.000  O
  O1669    1.0000 0.06344  0.52370  0.78588  Biso   1.000  O
  O1670    1.0000 0.03832  0.52526  0.78235  Biso   1.000  O
  O1671    1.0000 0.73438  0.17565  0.92801  Biso   1.000  O
  O1672    1.0000 0.74280  0.18606  0.90635  Biso   1.000  O
  O1673    1.0000 0.65367  0.22114  0.91415  Biso   1.000  O
  O1674    1.0000 0.63633  0.22970  0.89792  Biso   1.000  O
  O1675    1.0000 0.63012  0.14480  0.89564  Biso   1.000  O
  O1676    1.0000 0.61259  0.15314  0.87927  Biso   1.000  O
  O1677    1.0000 0.17574  0.19325  0.30956  Biso   1.000  O
  O1678    1.0000 0.12543  0.13871  0.34690  Biso   1.000  O
  O1679    1.0000 0.70609  0.21902  0.81719  Biso   1.000  O
  O1680    1.0000 0.68327  0.22208  0.80630  Biso   1.000  O
  O1681    1.0000 0.67545  0.25731  0.88331  Biso   1.000  O
  O1682    1.0000 0.65641  0.24078  0.87942  Biso   1.000  O
  O1683    1.0000 0.17568  0.66059  0.64441  Biso   1.000  O
  O1684    1.0000 0.97795  0.05027  0.18081  Biso   1.000  O
  O1685    1.0000 0.05301  0.06765  0.16479  Biso   1.000  O
  O1686    1.0000 0.06350  0.02998  0.27609  Biso   1.000  O
  O1687    1.0000 0.04518  0.01756  0.28847  Biso   1.000  O
  O1688    1.0000 0.73413  0.67632  0.42714  Biso   1.000  O
  O1689    1.0000 0.74343  0.68767  0.40634  Biso   1.000  O
  O1690    1.0000 0.65324  0.72112  0.41530  Biso   1.000  O
  O1691    1.0000 0.63604  0.72999  0.39891  Biso   1.000  O
  O1692    1.0000 0.62070  0.64625  0.39641  Biso   1.000  O
  O1693    1.0000 0.62199  0.65462  0.37245  Biso   1.000  O
  O1694    1.0000 0.17580  0.69385  0.80843  Biso   1.000  O
  O1695    1.0000 0.12493  0.64050  0.84765  Biso   1.000  O
  O1696    1.0000 0.70539  0.72016  0.31798  Biso   1.000  O
  O1697    1.0000 0.68251  0.72321  0.30735  Biso   1.000  O
  O1698    1.0000 0.67440  0.75834  0.38410  Biso   1.000  O
  O1699    1.0000 0.65582  0.74129  0.38034  Biso   1.000  O
  O1700    1.0000 0.17600  0.58709  0.60595  Biso   1.000  O
  O1701    1.0000 0.97747  0.20080  0.06764  Biso   1.000  O
  O1702    1.0000 0.05224  0.18229  0.08448  Biso   1.000  O
  O1703    1.0000 0.06435  0.22631  0.96447  Biso   1.000  O
  O1704    1.0000 0.03940  0.22512  0.96852  Biso   1.000  O
  O1705    1.0000 0.73449  0.57461  0.82184  Biso   1.000  O
  O1706    1.0000 0.74189  0.56328  0.84327  Biso   1.000  O
  O1707    1.0000 0.65201  0.52806  0.83520  Biso   1.000  O
  O1708    1.0000 0.63540  0.51882  0.85191  Biso   1.000  O
  O1709    1.0000 0.63141  0.60432  0.85471  Biso   1.000  O
  O1710    1.0000 0.61312  0.59618  0.87028  Biso   1.000  O
  O1711    1.0000 0.17332  0.56058  0.44983  Biso   1.000  O
  O1712    1.0000 0.13000  0.60278  0.39443  Biso   1.000  O
  O1713    1.0000 0.70529  0.53028  0.93278  Biso   1.000  O
  O1714    1.0000 0.68242  0.52705  0.94344  Biso   1.000  O
  O1715    1.0000 0.67559  0.49259  0.86614  Biso   1.000  O
  O1716    1.0000 0.65631  0.50889  0.86979  Biso   1.000  O
  O1717    1.0000 0.17629  0.08716  0.10704  Biso   1.000  O
  O1718    1.0000 0.97182  0.69177  0.57214  Biso   1.000  O
  O1719    1.0000 0.05183  0.68396  0.58584  Biso   1.000  O
  O1720    1.0000 0.06461  0.71925  0.47353  Biso   1.000  O
  O1721    1.0000 0.04608  0.73102  0.46093  Biso   1.000  O
  O1722    1.0000 0.73425  0.07518  0.32094  Biso   1.000  O
  O1723    1.0000 0.74221  0.06392  0.34220  Biso   1.000  O
  O1724    1.0000 0.65279  0.02869  0.33430  Biso   1.000  O
  O1725    1.0000 0.63588  0.01965  0.35085  Biso   1.000  O
  O1726    1.0000 0.63175  0.10500  0.35403  Biso   1.000  O
  O1727    1.0000 0.61342  0.09661  0.36938  Biso   1.000  O
  O1728    1.0000 0.17448  0.05761  0.94163  Biso   1.000  O
  O1729    1.0000 0.12537  0.10967  0.90085  Biso   1.000  O
  O1730    1.0000 0.70544  0.03072  0.43224  Biso   1.000  O
  O1731    1.0000 0.68271  0.02759  0.44315  Biso   1.000  O
  O1732    1.0000 0.67568  0.99327  0.36576  Biso   1.000  O
  O1733    1.0000 0.65650  0.00974  0.36914  Biso   1.000  O
  O1734    1.0000 0.67566  0.58645  0.10755  Biso   1.000  O
  O1735    1.0000 0.47150  0.19296  0.57323  Biso   1.000  O
  O1736    1.0000 0.55228  0.18307  0.58540  Biso   1.000  O
  O1737    1.0000 0.56344  0.21756  0.47384  Biso   1.000  O
  O1738    1.0000 0.54570  0.23027  0.46100  Biso   1.000  O
  O1739    1.0000 0.23495  0.57448  0.32206  Biso   1.000  O
  O1740    1.0000 0.24217  0.56369  0.34387  Biso   1.000  O
  O1741    1.0000 0.15354  0.52826  0.33603  Biso   1.000  O
  O1742    1.0000 0.13713  0.51936  0.35319  Biso   1.000  O
  O1743    1.0000 0.13202  0.60496  0.35427  Biso   1.000  O
  O1744    1.0000 0.11417  0.59668  0.37025  Biso   1.000  O
  O1745    1.0000 0.67529  0.55561  0.94212  Biso   1.000  O
  O1746    1.0000 0.62841  0.60207  0.89487  Biso   1.000  O
  O1747    1.0000 0.20235  0.52081  0.44090  Biso   1.000  O
  O1748    1.0000 0.18155  0.53497  0.43805  Biso   1.000  O
  O1749    1.0000 0.17663  0.49155  0.36651  Biso   1.000  O
  O1750    1.0000 0.15773  0.50813  0.37069  Biso   1.000  O
  O1751    1.0000 0.67500  0.08695  0.60601  Biso   1.000  O
  O1752    1.0000 0.47232  0.69107  0.07355  Biso   1.000  O
  O1753    1.0000 0.55336  0.68257  0.08397  Biso   1.000  O
  O1754    1.0000 0.56456  0.71933  0.97324  Biso   1.000  O
  O1755    1.0000 0.54585  0.73115  0.96086  Biso   1.000  O
  O1756    1.0000 0.23510  0.07456  0.82120  Biso   1.000  O
  O1757    1.0000 0.24249  0.06299  0.84247  Biso   1.000  O
  O1758    1.0000 0.14250  0.02564  0.83112  Biso   1.000  O
  O1759    1.0000 0.14321  0.02148  0.85629  Biso   1.000  O
  O1760    1.0000 0.12019  0.10463  0.85142  Biso   1.000  O
  O1761    1.0000 0.12196  0.09602  0.87513  Biso   1.000  O
  O1762    1.0000 0.67565  0.05619  0.44120  Biso   1.000  O
  O1763    1.0000 0.62871  0.10247  0.39395  Biso   1.000  O
  O1764    1.0000 0.20461  0.03212  0.93231  Biso   1.000  O
  O1765    1.0000 0.18157  0.02918  0.94273  Biso   1.000  O
  O1766    1.0000 0.17820  0.00354  0.86192  Biso   1.000  O
  O1767    1.0000 0.56312  0.66003  0.10185  Biso   1.000  O
  O1768    1.0000 0.77728  0.05849  0.57205  Biso   1.000  O
  O1769    1.0000 0.69858  0.07497  0.59055  Biso   1.000  O
  O1770    1.0000 0.68699  0.03127  0.47344  Biso   1.000  O
  O1771    1.0000 0.70539  0.01924  0.46076  Biso   1.000  O
  O1772    1.0000 0.01577  0.67457  0.32129  Biso   1.000  O
  O1773    1.0000 0.00889  0.68597  0.34287  Biso   1.000  O
  O1774    1.0000 0.10781  0.72408  0.33329  Biso   1.000  O
  O1775    1.0000 0.10570  0.72857  0.35831  Biso   1.000  O
  O1776    1.0000 0.11983  0.64532  0.35417  Biso   1.000  O
  O1777    1.0000 0.13750  0.65335  0.37051  Biso   1.000  O
  O1778    1.0000 0.57448  0.69359  0.94120  Biso   1.000  O
  O1779    1.0000 0.62057  0.64655  0.89443  Biso   1.000  O
  O1780    1.0000 0.04491  0.71901  0.43283  Biso   1.000  O
  O1781    1.0000 0.06806  0.72216  0.44290  Biso   1.000  O
  O1782    1.0000 0.07081  0.74806  0.36192  Biso   1.000  O
  O1783    1.0000 0.09353  0.75150  0.37252  Biso   1.000  O
  O1784    1.0000 0.56277  0.16086  0.60335  Biso   1.000  O
  O1785    1.0000 0.77298  0.54721  0.06892  Biso   1.000  O
  O1786    1.0000 0.69892  0.57341  0.09257  Biso   1.000  O
  O1787    1.0000 0.68641  0.52987  0.97375  Biso   1.000  O
  O1788    1.0000 0.70517  0.51838  0.96109  Biso   1.000  O
  O1789    1.0000 0.01524  0.17598  0.82283  Biso   1.000  O
  O1790    1.0000 0.00649  0.18644  0.84432  Biso   1.000  O
  O1791    1.0000 0.09604  0.22152  0.83467  Biso   1.000  O
  O1792    1.0000 0.11335  0.23050  0.85090  Biso   1.000  O
  O1793    1.0000 0.12993  0.14684  0.85220  Biso   1.000  O
  O1794    1.0000 0.12830  0.15470  0.87624  Biso   1.000  O
  O1795    1.0000 0.57373  0.19239  0.44148  Biso   1.000  O
  O1796    1.0000 0.62012  0.14682  0.39397  Biso   1.000  O
  O1797    1.0000 0.04852  0.22769  0.93905  Biso   1.000  O
  O1798    1.0000 0.06954  0.21350  0.93715  Biso   1.000  O
  O1799    1.0000 0.07486  0.25834  0.86645  Biso   1.000  O
  O1800    1.0000 0.09402  0.24191  0.86983  Biso   1.000  O
  O1801    1.0000 0.06219  0.66128  0.60343  Biso   1.000  O
  O1802    1.0000 0.27774  0.05850  0.07116  Biso   1.000  O
  O1803    1.0000 0.19970  0.07543  0.09119  Biso   1.000  O
  O1804    1.0000 0.18546  0.03169  0.97315  Biso   1.000  O
  O1805    1.0000 0.20415  0.02015  0.96047  Biso   1.000  O
  O1806    1.0000 0.51570  0.67494  0.82111  Biso   1.000  O
  O1807    1.0000 0.50898  0.68597  0.84294  Biso   1.000  O
  O1808    1.0000 0.60821  0.72326  0.83315  Biso   1.000  O
  O1809    1.0000 0.60624  0.72788  0.85817  Biso   1.000  O
  O1810    1.0000 0.61984  0.64479  0.85458  Biso   1.000  O
  O1811    1.0000 0.63740  0.65250  0.87119  Biso   1.000  O
  O1812    1.0000 0.07498  0.69354  0.44153  Biso   1.000  O
  O1813    1.0000 0.12138  0.64719  0.39419  Biso   1.000  O
  O1814    1.0000 0.54473  0.71901  0.93261  Biso   1.000  O
  O1815    1.0000 0.56781  0.72227  0.94273  Biso   1.000  O
  O1816    1.0000 0.57138  0.74745  0.86170  Biso   1.000  O
  O1817    1.0000 0.59411  0.75074  0.87237  Biso   1.000  O
  O1818    1.0000 0.06242  0.15965  0.10187  Biso   1.000  O
  O1819    1.0000 0.27227  0.55057  0.56820  Biso   1.000  O
  O1820    1.0000 0.19886  0.57510  0.58955  Biso   1.000  O
  O1821    1.0000 0.18667  0.52297  0.46599  Biso   1.000  O
  O1822    1.0000 0.21175  0.52434  0.46994  Biso   1.000  O
  O1823    1.0000 0.51588  0.17609  0.32146  Biso   1.000  O
  O1824    1.0000 0.50714  0.18654  0.34295  Biso   1.000  O
  O1825    1.0000 0.59716  0.22161  0.33546  Biso   1.000  O
  O1826    1.0000 0.61460  0.23021  0.35165  Biso   1.000  O
  O1827    1.0000 0.61947  0.14521  0.35388  Biso   1.000  O
  O1828    1.0000 0.63669  0.15330  0.37071  Biso   1.000  O
  O1829    1.0000 0.07697  0.18800  0.94965  Biso   1.000  O
  O1830    1.0000 0.12373  0.14022  0.90115  Biso   1.000  O
  O1831    1.0000 0.54489  0.21915  0.43252  Biso   1.000  O
  O1832    1.0000 0.56782  0.22112  0.44343  Biso   1.000  O
  O1833    1.0000 0.57560  0.25739  0.36700  Biso   1.000  O
  O1834    1.0000 0.59486  0.24109  0.37052  Biso   1.000  O
  O1835    1.0000 0.06412  0.08973  0.14740  Biso   1.000  O
  O1836    1.0000 0.27748  0.68999  0.67809  Biso   1.000  O
  O1837    1.0000 0.19929  0.67220  0.66001  Biso   1.000  O
  O1838    1.0000 0.18690  0.71899  0.77630  Biso   1.000  O
  O1839    1.0000 0.20477  0.73150  0.78917  Biso   1.000  O
  O1840    1.0000 0.52261  0.07766  0.92197  Biso   1.000  O
  O1841    1.0000 0.50364  0.06151  0.91709  Biso   1.000  O
  O1842    1.0000 0.59647  0.02830  0.91349  Biso   1.000  O
  O1843    1.0000 0.61383  0.01920  0.89734  Biso   1.000  O
  O1844    1.0000 0.61810  0.10443  0.89487  Biso   1.000  O
  O1845    1.0000 0.63641  0.09688  0.87907  Biso   1.000  O
  O1846    1.0000 0.07444  0.05502  0.30825  Biso   1.000  O
  O1847    1.0000 0.12493  0.10825  0.34817  Biso   1.000  O
  O1848    1.0000 0.54828  0.02097  0.81050  Biso   1.000  O
  O1849    1.0000 0.56925  0.03516  0.81247  Biso   1.000  O
  O1850    1.0000 0.57508  0.99090  0.88317  Biso   1.000  O
  O1851    1.0000 0.59420  0.00726  0.87897  Biso   1.000  O
  O1852    1.0000 0.06190  0.58849  0.64660  Biso   1.000  O
  O1853    1.0000 0.27797  0.19170  0.17718  Biso   1.000  O
  O1854    1.0000 0.19921  0.17419  0.15853  Biso   1.000  O
  O1855    1.0000 0.18649  0.21886  0.27774  Biso   1.000  O
  O1856    1.0000 0.20553  0.23011  0.28996  Biso   1.000  O
  O1857    1.0000 0.51552  0.57489  0.42757  Biso   1.000  O
  O1858    1.0000 0.50647  0.56428  0.40628  Biso   1.000  O
  O1859    1.0000 0.60593  0.52657  0.41608  Biso   1.000  O
  O1860    1.0000 0.60439  0.52111  0.39122  Biso   1.000  O
  O1861    1.0000 0.63013  0.60398  0.39605  Biso   1.000  O
  O1862    1.0000 0.62835  0.59601  0.37216  Biso   1.000  O
  O1863    1.0000 0.07672  0.56236  0.79943  Biso   1.000  O
  O1864    1.0000 0.12390  0.61032  0.84751  Biso   1.000  O
  O1865    1.0000 0.54731  0.52249  0.31081  Biso   1.000  O
  O1866    1.0000 0.56827  0.53644  0.31304  Biso   1.000  O
  O1867    1.0000 0.56989  0.50047  0.38814  Biso   1.000  O
  O1868    1.0000 0.59277  0.49735  0.37774  Biso   1.000  O
  O1869    1.0000 0.56336  0.09044  0.64834  Biso   1.000  O
  O1870    1.0000 0.77813  0.69109  0.17826  Biso   1.000  O
  O1871    1.0000 0.69999  0.67285  0.15922  Biso   1.000  O
  O1872    1.0000 0.68632  0.71991  0.27698  Biso   1.000  O
  O1873    1.0000 0.70458  0.73205  0.28960  Biso   1.000  O
  O1874    1.0000 0.01495  0.07337  0.42785  Biso   1.000  O
  O1875    1.0000 0.00654  0.06221  0.40655  Biso   1.000  O
  O1876    1.0000 0.09703  0.02939  0.41486  Biso   1.000  O
  O1877    1.0000 0.11426  0.02023  0.39859  Biso   1.000  O
  O1878    1.0000 0.12957  0.10466  0.39789  Biso   1.000  O
  O1879    1.0000 0.12924  0.09551  0.37420  Biso   1.000  O
  O1880    1.0000 0.57665  0.06089  0.80034  Biso   1.000  O
  O1881    1.0000 0.62096  0.10293  0.85474  Biso   1.000  O
  O1882    1.0000 0.04474  0.02858  0.31708  Biso   1.000  O
  O1883    1.0000 0.06776  0.02640  0.30638  Biso   1.000  O
  O1884    1.0000 0.07571  0.99223  0.38377  Biso   1.000  O
  O1885    1.0000 0.09479  0.00869  0.37980  Biso   1.000  O
  O1886    1.0000 0.56145  0.59047  0.14808  Biso   1.000  O
  O1887    1.0000 0.77840  0.19134  0.67736  Biso   1.000  O
  O1888    1.0000 0.69802  0.18339  0.66361  Biso   1.000  O
  O1889    1.0000 0.68747  0.21834  0.77584  Biso   1.000  O
  O1890    1.0000 0.70556  0.23048  0.78867  Biso   1.000  O
  O1891    1.0000 0.01530  0.57474  0.92874  Biso   1.000  O
  O1892    1.0000 0.00675  0.56359  0.90751  Biso   1.000  O
  O1893    1.0000 0.10682  0.52673  0.91746  Biso   1.000  O
  O1894    1.0000 0.10566  0.52150  0.89242  Biso   1.000  O
  O1895    1.0000 0.13058  0.60416  0.89664  Biso   1.000  O
  O1896    1.0000 0.12830  0.59605  0.87283  Biso   1.000  O
  O1897    1.0000 0.57641  0.56158  0.30015  Biso   1.000  O
  O1898    1.0000 0.62449  0.61028  0.34695  Biso   1.000  O
  O1899    1.0000 0.04852  0.52301  0.81119  Biso   1.000  O
  O1900    1.0000 0.06911  0.53746  0.81311  Biso   1.000  O
  O1901    1.0000 0.07041  0.50241  0.88906  Biso   1.000  O
  O1902    1.0000 0.09316  0.49847  0.87863  Biso   1.000  O
  O1903    1.0000 0.14690  0.08816  0.06384  Biso   1.000  O
  O1904    1.0000 0.67657  0.69228  0.27852  Biso   1.000  O
  O1905    1.0000 0.66558  0.68295  0.19738  Biso   1.000  O
  O1906    1.0000 0.77748  0.71904  0.18684  Biso   1.000  O
  O1907    1.0000 0.79058  0.73101  0.20485  Biso   1.000  O
  O1908    1.0000 0.92854  0.07545  0.51573  Biso   1.000  O
  O1909    1.0000 0.90713  0.06407  0.50837  Biso   1.000  O
  O1910    1.0000 0.91650  0.02573  0.60828  Biso   1.000  O
  O1911    1.0000 0.89162  0.02099  0.60643  Biso   1.000  O
  O1912    1.0000 0.89511  0.10444  0.61940  Biso   1.000  O
  O1913    1.0000 0.87840  0.09689  0.63700  Biso   1.000  O
  O1914    1.0000 0.30845  0.05682  0.07255  Biso   1.000  O
  O1915    1.0000 0.35450  0.10294  0.12019  Biso   1.000  O
  O1916    1.0000 0.81769  0.03212  0.54335  Biso   1.000  O
  O1917    1.0000 0.80789  0.02892  0.56648  Biso   1.000  O
  O1918    1.0000 0.88823  0.00165  0.57075  Biso   1.000  O
  O1919    1.0000 0.87742  0.99845  0.59354  Biso   1.000  O
  O1920    1.0000 0.14647  0.59042  0.56263  Biso   1.000  O
  O1921    1.0000 0.67756  0.19081  0.77753  Biso   1.000  O
  O1922    1.0000 0.66035  0.17309  0.69902  Biso   1.000  O
  O1923    1.0000 0.77657  0.21892  0.68710  Biso   1.000  O
  O1924    1.0000 0.78875  0.23044  0.70606  Biso   1.000  O
  O1925    1.0000 0.92802  0.57582  0.01562  Biso   1.000  O
  O1926    1.0000 0.90650  0.56430  0.00867  Biso   1.000  O
  O1927    1.0000 0.91650  0.52614  0.10739  Biso   1.000  O
  O1928    1.0000 0.89167  0.52095  0.10512  Biso   1.000  O
  O1929    1.0000 0.89420  0.60418  0.11900  Biso   1.000  O
  O1930    1.0000 0.87786  0.59636  0.13686  Biso   1.000  O
  O1931    1.0000 0.29950  0.56237  0.57666  Biso   1.000  O
  O1932    1.0000 0.35463  0.60327  0.62031  Biso   1.000  O
  O1933    1.0000 0.81114  0.52133  0.04798  Biso   1.000  O
  O1934    1.0000 0.81323  0.53568  0.06870  Biso   1.000  O
  O1935    1.0000 0.88901  0.50105  0.07005  Biso   1.000  O
  O1936    1.0000 0.87843  0.49745  0.09281  Biso   1.000  O
  O1937    1.0000 0.64628  0.08826  0.56262  Biso   1.000  O
  O1938    1.0000 0.17784  0.69116  0.77797  Biso   1.000  O
  O1939    1.0000 0.16492  0.68179  0.69842  Biso   1.000  O
  O1940    1.0000 0.27567  0.71816  0.68629  Biso   1.000  O
  O1941    1.0000 0.28871  0.73075  0.70404  Biso   1.000  O
  O1942    1.0000 0.42912  0.07478  0.01632  Biso   1.000  O
  O1943    1.0000 0.40787  0.06324  0.00867  Biso   1.000  O
  O1944    1.0000 0.41479  0.02528  0.10859  Biso   1.000  O
  O1945    1.0000 0.38992  0.02087  0.10535  Biso   1.000  O
  O1946    1.0000 0.39449  0.10413  0.11944  Biso   1.000  O
  O1947    1.0000 0.37771  0.09667  0.13702  Biso   1.000  O
  O1948    1.0000 0.80810  0.05738  0.57360  Biso   1.000  O
  O1949    1.0000 0.85497  0.10317  0.62038  Biso   1.000  O
  O1950    1.0000 0.31747  0.03158  0.04204  Biso   1.000  O
  O1951    1.0000 0.30765  0.02834  0.06515  Biso   1.000  O
  O1952    1.0000 0.38796  0.00092  0.07027  Biso   1.000  O
  O1953    1.0000 0.37641  0.99765  0.09260  Biso   1.000  O
  O1954    1.0000 0.64758  0.58831  0.06355  Biso   1.000  O
  O1955    1.0000 0.17587  0.19159  0.27899  Biso   1.000  O
  O1956    1.0000 0.16501  0.18329  0.19737  Biso   1.000  O
  O1957    1.0000 0.27670  0.21917  0.18720  Biso   1.000  O
  O1958    1.0000 0.28925  0.23043  0.20607  Biso   1.000  O
  O1959    1.0000 0.42861  0.57554  0.51564  Biso   1.000  O
  O1960    1.0000 0.40742  0.56387  0.50802  Biso   1.000  O
  O1961    1.0000 0.41559  0.52561  0.60743  Biso   1.000  O
  O1962    1.0000 0.39065  0.52067  0.60544  Biso   1.000  O
  O1963    1.0000 0.39483  0.60402  0.61937  Biso   1.000  O
  O1964    1.0000 0.37798  0.59631  0.63678  Biso   1.000  O
  O1965    1.0000 0.79953  0.56033  0.07683  Biso   1.000  O
  O1966    1.0000 0.85391  0.60232  0.12088  Biso   1.000  O
  O1967    1.0000 0.30972  0.52238  0.54865  Biso   1.000  O
  O1968    1.0000 0.31200  0.53683  0.56930  Biso   1.000  O
  O1969    1.0000 0.38748  0.50103  0.57030  Biso   1.000  O
  O1970    1.0000 0.37711  0.49732  0.59314  Biso   1.000  O
  O1971    1.0000 0.10583  0.66312  0.57581  Biso   1.000  O
  O1972    1.0000 0.56797  0.04931  0.77327  Biso   1.000  O
  O1973    1.0000 0.59071  0.07585  0.70033  Biso   1.000  O
  O1974    1.0000 0.46500  0.02449  0.68642  Biso   1.000  O
  O1975    1.0000 0.46893  0.02583  0.71151  Biso   1.000  O
  O1976    1.0000 0.32372  0.67633  0.01540  Biso   1.000  O
  O1977    1.0000 0.34451  0.68756  0.00600  Biso   1.000  O
  O1978    1.0000 0.33561  0.72093  0.09590  Biso   1.000  O
  O1979    1.0000 0.35161  0.72961  0.11354  Biso   1.000  O
  O1980    1.0000 0.35389  0.64617  0.12954  Biso   1.000  O
  O1981    1.0000 0.37795  0.65418  0.12756  Biso   1.000  O
  O1982    1.0000 0.94118  0.69307  0.57345  Biso   1.000  O
  O1983    1.0000 0.90325  0.63969  0.62352  Biso   1.000  O
  O1984    1.0000 0.43282  0.71920  0.04484  Biso   1.000  O
  O1985    1.0000 0.44307  0.72177  0.06805  Biso   1.000  O
  O1986    1.0000 0.36681  0.75807  0.07533  Biso   1.000  O
  O1987    1.0000 0.37030  0.74110  0.09405  Biso   1.000  O
  O1988    1.0000 0.10586  0.16123  0.07431  Biso   1.000  O
  O1989    1.0000 0.56803  0.54950  0.27313  Biso   1.000  O
  O1990    1.0000 0.58966  0.57688  0.20013  Biso   1.000  O
  O1991    1.0000 0.46503  0.52319  0.18656  Biso   1.000  O
  O1992    1.0000 0.46919  0.52464  0.21163  Biso   1.000  O
  O1993    1.0000 0.32275  0.17605  0.51530  Biso   1.000  O
  O1994    1.0000 0.34421  0.18652  0.50663  Biso   1.000  O
  O1995    1.0000 0.33511  0.22179  0.59548  Biso   1.000  O
  O1996    1.0000 0.35128  0.23030  0.61287  Biso   1.000  O
  O1997    1.0000 0.35405  0.14530  0.61938  Biso   1.000  O
  O1998    1.0000 0.37050  0.15412  0.63667  Biso   1.000  O
  O1999    1.0000 0.95055  0.18848  0.07638  Biso   1.000  O
  O2000    1.0000 0.90294  0.13990  0.12378  Biso   1.000  O
  O2001    1.0000 0.43156  0.21902  0.54326  Biso   1.000  O
  O2002    1.0000 0.44204  0.22304  0.56610  Biso   1.000  O
  O2003    1.0000 0.36555  0.25849  0.57391  Biso   1.000  O
  O2004    1.0000 0.36953  0.24169  0.59271  Biso   1.000  O
  O2005    1.0000 0.60727  0.66172  0.07462  Biso   1.000  O
  O2006    1.0000 0.07221  0.05795  0.27766  Biso   1.000  O
  O2007    1.0000 0.09016  0.07605  0.20051  Biso   1.000  O
  O2008    1.0000 0.96598  0.02403  0.18601  Biso   1.000  O
  O2009    1.0000 0.96972  0.02546  0.21116  Biso   1.000  O
  O2010    1.0000 0.82241  0.67587  0.51575  Biso   1.000  O
  O2011    1.0000 0.84343  0.68689  0.50654  Biso   1.000  O
  O2012    1.0000 0.83354  0.72394  0.60621  Biso   1.000  O
  O2013    1.0000 0.85836  0.72864  0.60384  Biso   1.000  O
  O2014    1.0000 0.85435  0.64664  0.62989  Biso   1.000  O
  O2015    1.0000 0.87848  0.65445  0.62850  Biso   1.000  O
  O2016    1.0000 0.44188  0.69301  0.07464  Biso   1.000  O
  O2017    1.0000 0.40300  0.63946  0.12352  Biso   1.000  O
  O2018    1.0000 0.93164  0.71824  0.54292  Biso   1.000  O
  O2019    1.0000 0.94162  0.72170  0.56614  Biso   1.000  O
  O2020    1.0000 0.86152  0.74961  0.56965  Biso   1.000  O
  O2021    1.0000 0.87251  0.75197  0.59233  Biso   1.000  O
  O2022    1.0000 0.60571  0.16177  0.57413  Biso   1.000  O
  O2023    1.0000 0.06814  0.54953  0.77293  Biso   1.000  O
  O2024    1.0000 0.09042  0.57561  0.69868  Biso   1.000  O
  O2025    1.0000 0.97213  0.53043  0.68725  Biso   1.000  O
  O2026    1.0000 0.96027  0.51926  0.70665  Biso   1.000  O
  O2027    1.0000 0.82358  0.17583  0.01505  Biso   1.000  O
  O2028    1.0000 0.84493  0.18607  0.00595  Biso   1.000  O
  O2029    1.0000 0.83568  0.22114  0.09566  Biso   1.000  O
  O2030    1.0000 0.85194  0.23014  0.11294  Biso   1.000  O
  O2031    1.0000 0.85381  0.14662  0.12927  Biso   1.000  O
  O2032    1.0000 0.87785  0.15455  0.12761  Biso   1.000  O
  O2033    1.0000 0.44092  0.19461  0.57376  Biso   1.000  O
  O2034    1.0000 0.39460  0.14812  0.62113  Biso   1.000  O
  O2035    1.0000 0.93900  0.22753  0.04740  Biso   1.000  O
  O2036    1.0000 0.93775  0.21377  0.06878  Biso   1.000  O
  O2037    1.0000 0.86680  0.25839  0.07439  Biso   1.000  O
  O2038    1.0000 0.87053  0.24183  0.09345  Biso   1.000  O
  O2039    1.0000 0.60528  0.58861  0.17683  Biso   1.000  O
  O2040    1.0000 0.06874  0.20008  0.97663  Biso   1.000  O
  O2041    1.0000 0.09128  0.17287  0.05013  Biso   1.000  O
  O2042    1.0000 0.96488  0.22673  0.06297  Biso   1.000  O
  O2043    1.0000 0.96814  0.22563  0.03776  Biso   1.000  O
  O2044    1.0000 0.82173  0.57438  0.73400  Biso   1.000  O
  O2045    1.0000 0.84271  0.56299  0.74290  Biso   1.000  O
  O2046    1.0000 0.83340  0.52614  0.64334  Biso   1.000  O
  O2047    1.0000 0.85833  0.52133  0.64566  Biso   1.000  O
  O2048    1.0000 0.85350  0.60432  0.62040  Biso   1.000  O
  O2049    1.0000 0.87728  0.59584  0.62124  Biso   1.000  O
  O2050    1.0000 0.44953  0.56092  0.17315  Biso   1.000  O
  O2051    1.0000 0.40261  0.60964  0.12518  Biso   1.000  O
  O2052    1.0000 0.93217  0.53140  0.70777  Biso   1.000  O
  O2053    1.0000 0.94146  0.52828  0.68438  Biso   1.000  O
  O2054    1.0000 0.86104  0.50139  0.67998  Biso   1.000  O
  O2055    1.0000 0.87226  0.49796  0.65756  Biso   1.000  O
  O2056    1.0000 0.60645  0.08771  0.67723  Biso   1.000  O
  O2057    1.0000 0.07377  0.69132  0.47231  Biso   1.000  O
  O2058    1.0000 0.09110  0.67510  0.55159  Biso   1.000  O
  O2059    1.0000 0.97230  0.71948  0.56277  Biso   1.000  O
  O2060    1.0000 0.95957  0.73090  0.54416  Biso   1.000  O
  O2061    1.0000 0.82208  0.07541  0.23444  Biso   1.000  O
  O2062    1.0000 0.84344  0.06411  0.24205  Biso   1.000  O
  O2063    1.0000 0.83542  0.02886  0.15273  Biso   1.000  O
  O2064    1.0000 0.85213  0.01949  0.13613  Biso   1.000  O
  O2065    1.0000 0.85326  0.10434  0.12014  Biso   1.000  O
  O2066    1.0000 0.87694  0.09565  0.12196  Biso   1.000  O
  O2067    1.0000 0.45078  0.06309  0.67350  Biso   1.000  O
  O2068    1.0000 0.39536  0.10394  0.62930  Biso   1.000  O
  O2069    1.0000 0.94087  0.02237  0.20129  Biso   1.000  O
  O2070    1.0000 0.93827  0.03691  0.18083  Biso   1.000  O
  O2071    1.0000 0.86649  0.99310  0.17622  Biso   1.000  O
  O2072    1.0000 0.87023  0.00915  0.15672  Biso   1.000  O
  O2073    1.0000 0.10542  0.58770  0.67488  Biso   1.000  O
  O2074    1.0000 0.57176  0.18938  0.47203  Biso   1.000  O
  O2075    1.0000 0.59002  0.17325  0.55032  Biso   1.000  O
  O2076    1.0000 0.47238  0.22045  0.56282  Biso   1.000  O
  O2077    1.0000 0.45961  0.23159  0.54398  Biso   1.000  O
  O2078    1.0000 0.32821  0.57956  0.22759  Biso   1.000  O
  O2079    1.0000 0.33404  0.56325  0.24617  Biso   1.000  O
  O2080    1.0000 0.33358  0.52540  0.14336  Biso   1.000  O
  O2081    1.0000 0.35851  0.52059  0.14567  Biso   1.000  O
  O2082    1.0000 0.35342  0.60371  0.12089  Biso   1.000  O
  O2083    1.0000 0.37729  0.59545  0.12140  Biso   1.000  O
  O2084    1.0000 0.94090  0.55661  0.67662  Biso   1.000  O
  O2085    1.0000 0.90286  0.60969  0.62470  Biso   1.000  O
  O2086    1.0000 0.44004  0.52169  0.20250  Biso   1.000  O
  O2087    1.0000 0.43728  0.53573  0.18164  Biso   1.000  O
  O2088    1.0000 0.36185  0.50150  0.18063  Biso   1.000  O
  O2089    1.0000 0.37231  0.49737  0.15796  Biso   1.000  O
  O2090    1.0000 0.10675  0.08732  0.17771  Biso   1.000  O
  O2091    1.0000 0.57367  0.69139  0.97193  Biso   1.000  O
  O2092    1.0000 0.59254  0.67354  0.05039  Biso   1.000  O
  O2093    1.0000 0.47354  0.71906  0.06456  Biso   1.000  O
  O2094    1.0000 0.46097  0.73109  0.04622  Biso   1.000  O
  O2095    1.0000 0.32204  0.07534  0.73378  Biso   1.000  O
  O2096    1.0000 0.34303  0.06388  0.74274  Biso   1.000  O
  O2097    1.0000 0.33529  0.02901  0.65365  Biso   1.000  O
  O2098    1.0000 0.35211  0.02017  0.63691  Biso   1.000  O
  O2099    1.0000 0.35524  0.10507  0.63210  Biso   1.000  O
  O2100    1.0000 0.37111  0.09735  0.61392  Biso   1.000  O
  O2101    1.0000 0.95083  0.06210  0.17284  Biso   1.000  O
  O2102    1.0000 0.90260  0.10961  0.12594  Biso   1.000  O
  O2103    1.0000 0.43987  0.02337  0.70171  Biso   1.000  O
  O2104    1.0000 0.43758  0.03825  0.68138  Biso   1.000  O
  O2105    1.0000 0.36650  0.99335  0.67644  Biso   1.000  O
  O2106    1.0000 0.36999  0.01019  0.65772  Biso   1.000  O
  O2107    1.0000 0.64497  0.16048  0.67557  Biso   1.000  O
  O2108    1.0000 0.18175  0.54937  0.47740  Biso   1.000  O
  O2109    1.0000 0.16348  0.56770  0.55176  Biso   1.000  O
  O2110    1.0000 0.28426  0.52420  0.56408  Biso   1.000  O
  O2111    1.0000 0.28085  0.52491  0.53886  Biso   1.000  O
  O2112    1.0000 0.42136  0.17215  0.22740  Biso   1.000  O
  O2113    1.0000 0.41640  0.18816  0.24655  Biso   1.000  O
  O2114    1.0000 0.41641  0.22369  0.14341  Biso   1.000  O
  O2115    1.0000 0.39141  0.22806  0.14534  Biso   1.000  O
  O2116    1.0000 0.39498  0.14472  0.13116  Biso   1.000  O
  O2117    1.0000 0.37937  0.15292  0.11288  Biso   1.000  O
  O2118    1.0000 0.80901  0.19416  0.67633  Biso   1.000  O
  O2119    1.0000 0.85579  0.14760  0.62868  Biso   1.000  O
  O2120    1.0000 0.31743  0.21849  0.20696  Biso   1.000  O
  O2121    1.0000 0.30730  0.22232  0.18388  Biso   1.000  O
  O2122    1.0000 0.38785  0.24847  0.18010  Biso   1.000  O
  O2123    1.0000 0.37707  0.25108  0.15732  Biso   1.000  O
  O2124    1.0000 0.64756  0.66034  0.18748  Biso   1.000  O
  O2125    1.0000 0.17636  0.05956  0.97244  Biso   1.000  O
  O2126    1.0000 0.16495  0.06581  0.05314  Biso   1.000  O
  O2127    1.0000 0.27698  0.03098  0.06163  Biso   1.000  O
  O2128    1.0000 0.28935  0.01935  0.04285  Biso   1.000  O
  O2129    1.0000 0.42169  0.67202  0.72705  Biso   1.000  O
  O2130    1.0000 0.41644  0.68810  0.74609  Biso   1.000  O
  O2131    1.0000 0.41425  0.72160  0.65305  Biso   1.000  O
  O2132    1.0000 0.39836  0.73026  0.63532  Biso   1.000  O
  O2133    1.0000 0.39584  0.64431  0.63217  Biso   1.000  O
  O2134    1.0000 0.38027  0.65313  0.61427  Biso   1.000  O
  O2135    1.0000 0.80870  0.69273  0.17647  Biso   1.000  O
  O2136    1.0000 0.85426  0.64662  0.12878  Biso   1.000  O
  O2137    1.0000 0.31709  0.71962  0.70421  Biso   1.000  O
  O2138    1.0000 0.30587  0.72180  0.68151  Biso   1.000  O
  O2139    1.0000 0.38269  0.75727  0.67439  Biso   1.000  O
  O2140    1.0000 0.37961  0.74077  0.65522  Biso   1.000  O
  O2141    1.0000 0.14743  0.16032  0.18746  Biso   1.000  O
  O2142    1.0000 0.67702  0.55763  0.97302  Biso   1.000  O
  O2143    1.0000 0.66452  0.56490  0.05371  Biso   1.000  O
  O2144    1.0000 0.78602  0.52171  0.06366  Biso   1.000  O
  O2145    1.0000 0.78205  0.52293  0.03855  Biso   1.000  O
  O2146    1.0000 0.92185  0.17328  0.72758  Biso   1.000  O
  O2147    1.0000 0.91670  0.18913  0.74681  Biso   1.000  O
  O2148    1.0000 0.91599  0.22412  0.64339  Biso   1.000  O
  O2149    1.0000 0.89098  0.22842  0.64521  Biso   1.000  O
  O2150    1.0000 0.89539  0.14509  0.63100  Biso   1.000  O
  O2151    1.0000 0.87965  0.15317  0.61282  Biso   1.000  O
  O2152    1.0000 0.30866  0.19403  0.17599  Biso   1.000  O
  O2153    1.0000 0.35528  0.14738  0.12838  Biso   1.000  O
  O2154    1.0000 0.81715  0.21902  0.70708  Biso   1.000  O
  O2155    1.0000 0.80707  0.22251  0.68394  Biso   1.000  O
  O2156    1.0000 0.88729  0.24910  0.67985  Biso   1.000  O
  O2157    1.0000 0.87653  0.25144  0.65703  Biso   1.000  O
  O2158    1.0000 0.14673  0.65959  0.68775  Biso   1.000  O
  O2159    1.0000 0.67741  0.05886  0.47194  Biso   1.000  O
  O2160    1.0000 0.66431  0.06576  0.55209  Biso   1.000  O
  O2161    1.0000 0.77730  0.03075  0.56295  Biso   1.000  O
  O2162    1.0000 0.78973  0.01955  0.54389  Biso   1.000  O
  O2163    1.0000 0.92261  0.67141  0.22672  Biso   1.000  O
  O2164    1.0000 0.91686  0.68754  0.24554  Biso   1.000  O
  O2165    1.0000 0.91677  0.72343  0.14243  Biso   1.000  O
  O2166    1.0000 0.89183  0.72803  0.14464  Biso   1.000  O
  O2167    1.0000 0.89431  0.64463  0.13106  Biso   1.000  O
  O2168    1.0000 0.87821  0.65278  0.11317  Biso   1.000  O
  O2169    1.0000 0.30799  0.69302  0.67585  Biso   1.000  O
  O2170    1.0000 0.35605  0.64747  0.62978  Biso   1.000  O
  O2171    1.0000 0.81843  0.71836  0.20592  Biso   1.000  O
  O2172    1.0000 0.80806  0.72145  0.18287  Biso   1.000  O
  O2173    1.0000 0.88871  0.74799  0.17933  Biso   1.000  O
  O2174    1.0000 0.87779  0.75119  0.15670  Biso   1.000  O
  O2175    1.0000 0.07325  0.14261  0.08653  Biso   1.000  O
  O2176    1.0000 0.27296  0.68090  0.70144  Biso   1.000  O
  O2177    1.0000 0.19729  0.66415  0.68388  Biso   1.000  O
  O2178    1.0000 0.18675  0.77633  0.71924  Biso   1.000  O
  O2179    1.0000 0.20561  0.78904  0.73032  Biso   1.000  O
  O2180    1.0000 0.52327  0.92218  0.07799  Biso   1.000  O
  O2181    1.0000 0.50421  0.91685  0.06205  Biso   1.000  O
  O2182    1.0000 0.59693  0.91347  0.02858  Biso   1.000  O
  O2183    1.0000 0.61340  0.89622  0.02005  Biso   1.000  O
  O2184    1.0000 0.61870  0.89537  0.10572  Biso   1.000  O
  O2185    1.0000 0.63715  0.88029  0.09710  Biso   1.000  O
  O2186    1.0000 0.07634  0.29852  0.06260  Biso   1.000  O
  O2187    1.0000 0.12373  0.34605  0.11059  Biso   1.000  O
  O2188    1.0000 0.54452  0.81657  0.03178  Biso   1.000  O
  O2189    1.0000 0.56715  0.80563  0.02817  Biso   1.000  O
  O2190    1.0000 0.57433  0.88250  0.99192  Biso   1.000  O
  O2191    1.0000 0.59255  0.87862  0.00926  Biso   1.000  O
  O2192    1.0000 0.07331  0.64443  0.58805  Biso   1.000  O
  O2193    1.0000 0.27296  0.18083  0.19971  Biso   1.000  O
  O2194    1.0000 0.19772  0.16630  0.18253  Biso   1.000  O
  O2195    1.0000 0.18689  0.27621  0.22066  Biso   1.000  O
  O2196    1.0000 0.20550  0.28887  0.23216  Biso   1.000  O
  O2197    1.0000 0.51469  0.42639  0.57427  Biso   1.000  O
  O2198    1.0000 0.50574  0.40510  0.56350  Biso   1.000  O
  O2199    1.0000 0.59641  0.41399  0.52930  Biso   1.000  O
  O2200    1.0000 0.61404  0.39849  0.51982  Biso   1.000  O
  O2201    1.0000 0.62932  0.39599  0.60419  Biso   1.000  O
  O2202    1.0000 0.62772  0.37216  0.59563  Biso   1.000  O
  O2203    1.0000 0.07299  0.80799  0.55650  Biso   1.000  O
  O2204    1.0000 0.12337  0.84640  0.60942  Biso   1.000  O
  O2205    1.0000 0.54560  0.31713  0.53012  Biso   1.000  O
  O2206    1.0000 0.56772  0.30508  0.52746  Biso   1.000  O
  O2207    1.0000 0.57496  0.38310  0.49269  Biso   1.000  O
  O2208    1.0000 0.59437  0.37984  0.50890  Biso   1.000  O
  O2209    1.0000 0.57351  0.14351  0.58829  Biso   1.000  O
  O2210    1.0000 0.77316  0.68143  0.20136  Biso   1.000  O
  O2211    1.0000 0.69801  0.66508  0.18321  Biso   1.000  O
  O2212    1.0000 0.68754  0.77631  0.21887  Biso   1.000  O
  O2213    1.0000 0.70622  0.78889  0.23049  Biso   1.000  O
  O2214    1.0000 0.02294  0.92211  0.57860  Biso   1.000  O
  O2215    1.0000 0.00391  0.91693  0.56259  Biso   1.000  O
  O2216    1.0000 0.09717  0.91324  0.52869  Biso   1.000  O
  O2217    1.0000 0.11397  0.89682  0.51921  Biso   1.000  O
  O2218    1.0000 0.13031  0.89543  0.60339  Biso   1.000  O
  O2219    1.0000 0.12860  0.87145  0.59514  Biso   1.000  O
  O2220    1.0000 0.57384  0.30686  0.55641  Biso   1.000  O
  O2221    1.0000 0.62348  0.34657  0.60945  Biso   1.000  O
  O2222    1.0000 0.04352  0.81733  0.53086  Biso   1.000  O
  O2223    1.0000 0.06611  0.80618  0.52777  Biso   1.000  O
  O2224    1.0000 0.07440  0.88267  0.49208  Biso   1.000  O
  O2225    1.0000 0.09360  0.87854  0.50843  Biso   1.000  O
  O2226    1.0000 0.57466  0.64296  0.08714  Biso   1.000  O
  O2227    1.0000 0.77316  0.18087  0.70000  Biso   1.000  O
  O2228    1.0000 0.70064  0.15985  0.67269  Biso   1.000  O
  O2229    1.0000 0.68656  0.27653  0.71942  Biso   1.000  O
  O2230    1.0000 0.70532  0.28912  0.73077  Biso   1.000  O
  O2231    1.0000 0.01610  0.42679  0.07517  Biso   1.000  O
  O2232    1.0000 0.00715  0.40572  0.06401  Biso   1.000  O
  O2233    1.0000 0.09852  0.41423  0.02951  Biso   1.000  O
  O2234    1.0000 0.11500  0.39736  0.02019  Biso   1.000  O
  O2235    1.0000 0.13008  0.39525  0.10470  Biso   1.000  O
  O2236    1.0000 0.12831  0.37135  0.09633  Biso   1.000  O
  O2237    1.0000 0.57448  0.80754  0.05670  Biso   1.000  O
  O2238    1.0000 0.62197  0.85562  0.10231  Biso   1.000  O
  O2239    1.0000 0.04894  0.31029  0.02253  Biso   1.000  O
  O2240    1.0000 0.06952  0.31152  0.03730  Biso   1.000  O
  O2241    1.0000 0.07533  0.38288  0.99350  Biso   1.000  O
  O2242    1.0000 0.09448  0.37922  0.00987  Biso   1.000  O
  O2243    1.0000 0.57434  0.10731  0.66368  Biso   1.000  O
  O2244    1.0000 0.77679  0.57036  0.05904  Biso   1.000  O
  O2245    1.0000 0.69787  0.58168  0.06857  Biso   1.000  O
  O2246    1.0000 0.68590  0.46413  0.02401  Biso   1.000  O
  O2247    1.0000 0.71091  0.46800  0.02474  Biso   1.000  O
  O2248    1.0000 0.01418  0.32357  0.67616  Biso   1.000  O
  O2249    1.0000 0.00582  0.34529  0.68648  Biso   1.000  O
  O2250    1.0000 0.10592  0.33355  0.72433  Biso   1.000  O
  O2251    1.0000 0.10561  0.35840  0.72987  Biso   1.000  O
  O2252    1.0000 0.12883  0.35454  0.64721  Biso   1.000  O
  O2253    1.0000 0.12752  0.37855  0.65507  Biso   1.000  O
  O2254    1.0000 0.57425  0.94224  0.69351  Biso   1.000  O
  O2255    1.0000 0.62431  0.90435  0.63966  Biso   1.000  O
  O2256    1.0000 0.04744  0.43910  0.72808  Biso   1.000  O
  O2257    1.0000 0.06862  0.43849  0.71395  Biso   1.000  O
  O2258    1.0000 0.07117  0.36342  0.74910  Biso   1.000  O
  O2259    1.0000 0.09421  0.37282  0.75318  Biso   1.000  O
  O2260    1.0000 0.57263  0.60764  0.16292  Biso   1.000  O
  O2261    1.0000 0.77203  0.06865  0.54920  Biso   1.000  O
  O2262    1.0000 0.69673  0.08335  0.56673  Biso   1.000  O
  O2263    1.0000 0.68732  0.97367  0.53078  Biso   1.000  O
  O2264    1.0000 0.70615  0.96180  0.51878  Biso   1.000  O
  O2265    1.0000 0.01589  0.82271  0.17544  Biso   1.000  O
  O2266    1.0000 0.00753  0.84452  0.18560  Biso   1.000  O
  O2267    1.0000 0.10718  0.83342  0.22368  Biso   1.000  O
  O2268    1.0000 0.10634  0.85833  0.22898  Biso   1.000  O
  O2269    1.0000 0.13046  0.85430  0.14641  Biso   1.000  O
  O2270    1.0000 0.12912  0.87837  0.15411  Biso   1.000  O
  O2271    1.0000 0.57706  0.45177  0.18838  Biso   1.000  O
  O2272    1.0000 0.62110  0.39522  0.14776  Biso   1.000  O
  O2273    1.0000 0.04496  0.93228  0.21855  Biso   1.000  O
  O2274    1.0000 0.06798  0.94286  0.22103  Biso   1.000  O
  O2275    1.0000 0.07191  0.86257  0.24824  Biso   1.000  O
  O2276    1.0000 0.09465  0.87259  0.25223  Biso   1.000  O
  O2277    1.0000 0.07500  0.10691  0.16239  Biso   1.000  O
  O2278    1.0000 0.27810  0.57326  0.55854  Biso   1.000  O
  O2279    1.0000 0.19697  0.58482  0.56616  Biso   1.000  O
  O2280    1.0000 0.18598  0.47274  0.53117  Biso   1.000  O
  O2281    1.0000 0.20495  0.46027  0.51997  Biso   1.000  O
  O2282    1.0000 0.51513  0.32290  0.17647  Biso   1.000  O
  O2283    1.0000 0.50676  0.34476  0.18650  Biso   1.000  O
  O2284    1.0000 0.60599  0.33376  0.22471  Biso   1.000  O
  O2285    1.0000 0.60532  0.35868  0.22970  Biso   1.000  O
  O2286    1.0000 0.61911  0.35492  0.14624  Biso   1.000  O
  O2287    1.0000 0.63684  0.37129  0.15418  Biso   1.000  O
  O2288    1.0000 0.07479  0.94163  0.19245  Biso   1.000  O
  O2289    1.0000 0.12530  0.90345  0.13969  Biso   1.000  O
  O2290    1.0000 0.54821  0.43937  0.22734  Biso   1.000  O
  O2291    1.0000 0.56939  0.43857  0.21340  Biso   1.000  O
  O2292    1.0000 0.57124  0.36356  0.24972  Biso   1.000  O
  O2293    1.0000 0.59428  0.37307  0.25329  Biso   1.000  O
  O2294    1.0000 0.07311  0.60562  0.66144  Biso   1.000  O
  O2295    1.0000 0.27233  0.06869  0.04838  Biso   1.000  O
  O2296    1.0000 0.19736  0.08358  0.06732  Biso   1.000  O
  O2297    1.0000 0.18494  0.96478  0.02263  Biso   1.000  O
  O2298    1.0000 0.20985  0.96915  0.02264  Biso   1.000  O
  O2299    1.0000 0.52182  0.82912  0.67283  Biso   1.000  O
  O2300    1.0000 0.50285  0.83451  0.68875  Biso   1.000  O
  O2301    1.0000 0.60739  0.83416  0.72435  Biso   1.000  O
  O2302    1.0000 0.60547  0.85908  0.72935  Biso   1.000  O
  O2303    1.0000 0.62849  0.85511  0.64665  Biso   1.000  O
  O2304    1.0000 0.62777  0.87928  0.65421  Biso   1.000  O
  O2305    1.0000 0.07580  0.45177  0.68895  Biso   1.000  O
  O2306    1.0000 0.12324  0.40364  0.64091  Biso   1.000  O
  O2307    1.0000 0.54406  0.93226  0.71861  Biso   1.000  O
  O2308    1.0000 0.56700  0.94271  0.72215  Biso   1.000  O
  O2309    1.0000 0.57063  0.86243  0.74955  Biso   1.000  O
  O2310    1.0000 0.59339  0.87313  0.75243  Biso   1.000  O
  O2311    1.0000 0.18685  0.60261  0.58893  Biso   1.000  O
  O2312    1.0000 0.97328  0.07304  0.19134  Biso   1.000  O
  O2313    1.0000 0.05091  0.09137  0.17390  Biso   1.000  O
  O2314    1.0000 0.06372  0.97322  0.21794  Biso   1.000  O
  O2315    1.0000 0.04567  0.96061  0.23028  Biso   1.000  O
  O2316    1.0000 0.73419  0.82324  0.57549  Biso   1.000  O
  O2317    1.0000 0.74312  0.84460  0.56489  Biso   1.000  O
  O2318    1.0000 0.65369  0.83599  0.52979  Biso   1.000  O
  O2319    1.0000 0.63663  0.85231  0.52058  Biso   1.000  O
  O2320    1.0000 0.61892  0.85463  0.60423  Biso   1.000  O
  O2321    1.0000 0.62068  0.87843  0.59562  Biso   1.000  O
  O2322    1.0000 0.17519  0.44138  0.55731  Biso   1.000  O
  O2323    1.0000 0.12463  0.40360  0.61048  Biso   1.000  O
  O2324    1.0000 0.70678  0.93296  0.52965  Biso   1.000  O
  O2325    1.0000 0.68379  0.94343  0.52681  Biso   1.000  O
  O2326    1.0000 0.67556  0.86649  0.49244  Biso   1.000  O
  O2327    1.0000 0.65675  0.87056  0.50918  Biso   1.000  O
  O2328    1.0000 0.18720  0.10212  0.08961  Biso   1.000  O
  O2329    1.0000 0.97725  0.56840  0.70033  Biso   1.000  O
  O2330    1.0000 0.04985  0.58947  0.67353  Biso   1.000  O
  O2331    1.0000 0.06262  0.46504  0.72758  Biso   1.000  O
  O2332    1.0000 0.03757  0.46839  0.72655  Biso   1.000  O
  O2333    1.0000 0.73424  0.32229  0.07354  Biso   1.000  O
  O2334    1.0000 0.74278  0.34419  0.06397  Biso   1.000  O
  O2335    1.0000 0.65310  0.33563  0.02927  Biso   1.000  O
  O2336    1.0000 0.63563  0.35168  0.02057  Biso   1.000  O
  O2337    1.0000 0.63125  0.35466  0.10583  Biso   1.000  O
  O2338    1.0000 0.61336  0.37060  0.09752  Biso   1.000  O
  O2339    1.0000 0.17389  0.95083  0.06167  Biso   1.000  O
  O2340    1.0000 0.12675  0.90311  0.10948  Biso   1.000  O
  O2341    1.0000 0.70146  0.43862  0.02284  Biso   1.000  O
  O2342    1.0000 0.68050  0.43709  0.03716  Biso   1.000  O
  O2343    1.0000 0.67412  0.36647  0.99218  Biso   1.000  O
  O2344    1.0000 0.65520  0.37016  0.00885  Biso   1.000  O
  O2345    1.0000 0.68768  0.60077  0.09030  Biso   1.000  O
  O2346    1.0000 0.47281  0.07352  0.69176  Biso   1.000  O
  O2347    1.0000 0.55066  0.09124  0.67516  Biso   1.000  O
  O2348    1.0000 0.56291  0.97311  0.71993  Biso   1.000  O
  O2349    1.0000 0.54415  0.96029  0.73120  Biso   1.000  O
  O2350    1.0000 0.23557  0.82316  0.07508  Biso   1.000  O
  O2351    1.0000 0.24421  0.84398  0.06329  Biso   1.000  O
  O2352    1.0000 0.14382  0.83291  0.02608  Biso   1.000  O
  O2353    1.0000 0.14543  0.85773  0.02113  Biso   1.000  O
  O2354    1.0000 0.12102  0.85391  0.10388  Biso   1.000  O
  O2355    1.0000 0.12235  0.87784  0.09547  Biso   1.000  O
  O2356    1.0000 0.67323  0.45002  0.06248  Biso   1.000  O
  O2357    1.0000 0.62923  0.39476  0.10341  Biso   1.000  O
  O2358    1.0000 0.20076  0.93955  0.02108  Biso   1.000  O
  O2359    1.0000 0.18051  0.93776  0.03636  Biso   1.000  O
  O2360    1.0000 0.17999  0.86172  0.00109  Biso   1.000  O
  O2361    1.0000 0.15709  0.87199  0.99793  Biso   1.000  O
  O2362    1.0000 0.68646  0.10188  0.58900  Biso   1.000  O
  O2363    1.0000 0.47155  0.57247  0.19055  Biso   1.000  O
  O2364    1.0000 0.54932  0.59151  0.17519  Biso   1.000  O
  O2365    1.0000 0.56322  0.46540  0.22670  Biso   1.000  O
  O2366    1.0000 0.53810  0.46839  0.22545  Biso   1.000  O
  O2367    1.0000 0.23404  0.32283  0.57552  Biso   1.000  O
  O2368    1.0000 0.24201  0.34457  0.56519  Biso   1.000  O
  O2369    1.0000 0.14201  0.33286  0.52723  Biso   1.000  O
  O2370    1.0000 0.14428  0.35773  0.52280  Biso   1.000  O
  O2371    1.0000 0.11902  0.35437  0.60486  Biso   1.000  O
  O2372    1.0000 0.12061  0.37828  0.59645  Biso   1.000  O
  O2373    1.0000 0.67634  0.94111  0.55547  Biso   1.000  O
  O2374    1.0000 0.62549  0.90374  0.60925  Biso   1.000  O
  O2375    1.0000 0.20590  0.43222  0.53254  Biso   1.000  O
  O2376    1.0000 0.18279  0.44218  0.52876  Biso   1.000  O
  O2377    1.0000 0.17921  0.36150  0.50313  Biso   1.000  O
  O2378    1.0000 0.15649  0.37226  0.50016  Biso   1.000  O
  O2379    1.0000 0.68755  0.64617  0.16137  Biso   1.000  O
  O2380    1.0000 0.47778  0.18307  0.55076  Biso   1.000  O
  O2381    1.0000 0.54997  0.15933  0.57639  Biso   1.000  O
  O2382    1.0000 0.56220  0.27501  0.53124  Biso   1.000  O
  O2383    1.0000 0.54518  0.28860  0.51846  Biso   1.000  O
  O2384    1.0000 0.22740  0.42061  0.17255  Biso   1.000  O
  O2385    1.0000 0.24647  0.41469  0.18834  Biso   1.000  O
  O2386    1.0000 0.15249  0.41301  0.22198  Biso   1.000  O
  O2387    1.0000 0.13586  0.39649  0.23164  Biso   1.000  O
  O2388    1.0000 0.12110  0.39509  0.14714  Biso   1.000  O
  O2389    1.0000 0.12160  0.37100  0.15525  Biso   1.000  O
  O2390    1.0000 0.67716  0.80788  0.19277  Biso   1.000  O
  O2391    1.0000 0.63000  0.85414  0.14670  Biso   1.000  O
  O2392    1.0000 0.20570  0.31713  0.22014  Biso   1.000  O
  O2393    1.0000 0.18287  0.30644  0.22339  Biso   1.000  O
  O2394    1.0000 0.17547  0.38295  0.25892  Biso   1.000  O
  O2395    1.0000 0.15629  0.37850  0.24267  Biso   1.000  O
  O2396    1.0000 0.67765  0.14337  0.66189  Biso   1.000  O
  O2397    1.0000 0.47836  0.68227  0.05056  Biso   1.000  O
  O2398    1.0000 0.55147  0.65893  0.07457  Biso   1.000  O
  O2399    1.0000 0.56285  0.77536  0.03172  Biso   1.000  O
  O2400    1.0000 0.54430  0.78813  0.02021  Biso   1.000  O
  O2401    1.0000 0.22755  0.92135  0.67205  Biso   1.000  O
  O2402    1.0000 0.24620  0.91473  0.68809  Biso   1.000  O
  O2403    1.0000 0.14244  0.91564  0.72417  Biso   1.000  O
  O2404    1.0000 0.14426  0.89062  0.72880  Biso   1.000  O
  O2405    1.0000 0.12050  0.89571  0.64558  Biso   1.000  O
  O2406    1.0000 0.12150  0.87187  0.65381  Biso   1.000  O
  O2407    1.0000 0.67545  0.30806  0.69342  Biso   1.000  O
  O2408    1.0000 0.62486  0.34606  0.63982  Biso   1.000  O
  O2409    1.0000 0.20568  0.81712  0.71765  Biso   1.000  O
  O2410    1.0000 0.18288  0.80665  0.72167  Biso   1.000  O
  O2411    1.0000 0.17932  0.88699  0.74824  Biso   1.000  O
  O2412    1.0000 0.15660  0.87626  0.75152  Biso   1.000  O
  O2413    1.0000 0.18677  0.64555  0.66166  Biso   1.000  O
  O2414    1.0000 0.97245  0.17765  0.05860  Biso   1.000  O
  O2415    1.0000 0.05020  0.15894  0.07429  Biso   1.000  O
  O2416    1.0000 0.06396  0.28433  0.02395  Biso   1.000  O
  O2417    1.0000 0.03868  0.28149  0.02426  Biso   1.000  O
  O2418    1.0000 0.72701  0.42089  0.67120  Biso   1.000  O
  O2419    1.0000 0.74612  0.41479  0.68687  Biso   1.000  O
  O2420    1.0000 0.65256  0.41353  0.72090  Biso   1.000  O
  O2421    1.0000 0.63591  0.39709  0.73067  Biso   1.000  O
  O2422    1.0000 0.62018  0.39529  0.64651  Biso   1.000  O
  O2423    1.0000 0.62084  0.37118  0.65443  Biso   1.000  O
  O2424    1.0000 0.17537  0.80739  0.69308  Biso   1.000  O
  O2425    1.0000 0.12454  0.84632  0.63969  Biso   1.000  O
  O2426    1.0000 0.70559  0.31738  0.71852  Biso   1.000  O
  O2427    1.0000 0.68280  0.30676  0.72211  Biso   1.000  O
  O2428    1.0000 0.67561  0.38328  0.75768  Biso   1.000  O
  O2429    1.0000 0.65636  0.37895  0.74146  Biso   1.000  O
  O2430    1.0000 0.18737  0.14728  0.16076  Biso   1.000  O
  O2431    1.0000 0.97742  0.68210  0.54927  Biso   1.000  O
  O2432    1.0000 0.05017  0.66048  0.57601  Biso   1.000  O
  O2433    1.0000 0.06160  0.77596  0.53135  Biso   1.000  O
  O2434    1.0000 0.04348  0.78882  0.51924  Biso   1.000  O
  O2435    1.0000 0.73506  0.92724  0.17651  Biso   1.000  O
  O2436    1.0000 0.74402  0.90575  0.18678  Biso   1.000  O
  O2437    1.0000 0.65329  0.91188  0.22202  Biso   1.000  O
  O2438    1.0000 0.63587  0.89622  0.23153  Biso   1.000  O
  O2439    1.0000 0.63133  0.89441  0.14608  Biso   1.000  O
  O2440    1.0000 0.61383  0.87767  0.15363  Biso   1.000  O
  O2441    1.0000 0.17563  0.30771  0.19467  Biso   1.000  O
  O2442    1.0000 0.12523  0.34576  0.14081  Biso   1.000  O
  O2443    1.0000 0.70644  0.81722  0.21838  Biso   1.000  O
  O2444    1.0000 0.68368  0.80645  0.22152  Biso   1.000  O
  O2445    1.0000 0.67592  0.88231  0.25838  Biso   1.000  O
  O2446    1.0000 0.65657  0.87811  0.24224  Biso   1.000  O
  O2447    1.0000 0.08904  0.07479  0.14489  Biso   1.000  O
  O2448    1.0000 0.69936  0.27142  0.68219  Biso   1.000  O
  O2449    1.0000 0.67384  0.19907  0.65866  Biso   1.000  O
  O2450    1.0000 0.72633  0.18525  0.78497  Biso   1.000  O
  O2451    1.0000 0.72550  0.21032  0.78096  Biso   1.000  O
  O2452    1.0000 0.07831  0.52304  0.92333  Biso   1.000  O
  O2453    1.0000 0.06247  0.50405  0.91746  Biso   1.000  O
  O2454    1.0000 0.02877  0.59742  0.91539  Biso   1.000  O
  O2455    1.0000 0.01989  0.61371  0.89812  Biso   1.000  O
  O2456    1.0000 0.10503  0.61886  0.89582  Biso   1.000  O
  O2457    1.0000 0.09648  0.63668  0.87992  Biso   1.000  O
  O2458    1.0000 0.06163  0.07536  0.30007  Biso   1.000  O
  O2459    1.0000 0.10294  0.11899  0.35496  Biso   1.000  O
  O2460    1.0000 0.03103  0.54529  0.81821  Biso   1.000  O
  O2461    1.0000 0.02785  0.56810  0.80728  Biso   1.000  O
  O2462    1.0000 0.99203  0.57455  0.88448  Biso   1.000  O
  O2463    1.0000 0.00913  0.59293  0.88061  Biso   1.000  O
  O2464    1.0000 0.08708  0.57408  0.64302  Biso   1.000  O
  O2465    1.0000 0.70126  0.77133  0.18197  Biso   1.000  O
  O2466    1.0000 0.68356  0.69661  0.16428  Biso   1.000  O
  O2467    1.0000 0.72579  0.68724  0.28417  Biso   1.000  O
  O2468    1.0000 0.72499  0.71253  0.28162  Biso   1.000  O
  O2469    1.0000 0.07422  0.01555  0.42798  Biso   1.000  O
  O2470    1.0000 0.06401  0.00689  0.40638  Biso   1.000  O
  O2471    1.0000 0.02813  0.09599  0.41445  Biso   1.000  O
  O2472    1.0000 0.01931  0.11281  0.39778  Biso   1.000  O
  O2473    1.0000 0.10415  0.11896  0.39547  Biso   1.000  O
  O2474    1.0000 0.09583  0.13563  0.37817  Biso   1.000  O
  O2475    1.0000 0.05638  0.57488  0.80815  Biso   1.000  O
  O2476    1.0000 0.10241  0.62088  0.85578  Biso   1.000  O
  O2477    1.0000 0.02235  0.04625  0.31049  Biso   1.000  O
  O2478    1.0000 0.03676  0.06689  0.31307  Biso   1.000  O
  O2479    1.0000 0.99208  0.07314  0.38352  Biso   1.000  O
  O2480    1.0000 0.00876  0.09207  0.37982  Biso   1.000  O
  O2481    1.0000 0.58825  0.07571  0.64477  Biso   1.000  O
  O2482    1.0000 0.20018  0.27154  0.18353  Biso   1.000  O
  O2483    1.0000 0.18232  0.19751  0.16400  Biso   1.000  O
  O2484    1.0000 0.22497  0.18466  0.28327  Biso   1.000  O
  O2485    1.0000 0.22455  0.20988  0.28036  Biso   1.000  O
  O2486    1.0000 0.57722  0.52272  0.42105  Biso   1.000  O
  O2487    1.0000 0.56197  0.50298  0.41651  Biso   1.000  O
  O2488    1.0000 0.52900  0.59745  0.41408  Biso   1.000  O
  O2489    1.0000 0.51990  0.61494  0.39818  Biso   1.000  O
  O2490    1.0000 0.60508  0.61928  0.39500  Biso   1.000  O
  O2491    1.0000 0.59728  0.63723  0.37899  Biso   1.000  O
  O2492    1.0000 0.55643  0.07350  0.80925  Biso   1.000  O
  O2493    1.0000 0.60952  0.12438  0.84718  Biso   1.000  O
  O2494    1.0000 0.53007  0.54504  0.31792  Biso   1.000  O
  O2495    1.0000 0.52739  0.56785  0.30701  Biso   1.000  O
  O2496    1.0000 0.49204  0.57601  0.38359  Biso   1.000  O
  O2497    1.0000 0.50863  0.59502  0.37967  Biso   1.000  O
  O2498    1.0000 0.58641  0.57586  0.14424  Biso   1.000  O
  O2499    1.0000 0.19974  0.77120  0.68189  Biso   1.000  O
  O2500    1.0000 0.18302  0.69601  0.66545  Biso   1.000  O
  O2501    1.0000 0.22684  0.68687  0.78523  Biso   1.000  O
  O2502    1.0000 0.22550  0.71205  0.78159  Biso   1.000  O
  O2503    1.0000 0.57420  0.01447  0.92725  Biso   1.000  O
  O2504    1.0000 0.56352  0.00598  0.90581  Biso   1.000  O
  O2505    1.0000 0.52556  0.10630  0.91647  Biso   1.000  O
  O2506    1.0000 0.52052  0.10406  0.89157  Biso   1.000  O
  O2507    1.0000 0.60309  0.12971  0.89621  Biso   1.000  O
  O2508    1.0000 0.59513  0.12817  0.87232  Biso   1.000  O
  O2509    1.0000 0.55613  0.57423  0.30891  Biso   1.000  O
  O2510    1.0000 0.60313  0.62123  0.35499  Biso   1.000  O
  O2511    1.0000 0.53105  0.04302  0.81832  Biso   1.000  O
  O2512    1.0000 0.52793  0.06617  0.80824  Biso   1.000  O
  O2513    1.0000 0.50166  0.06911  0.88884  Biso   1.000  O
  O2514    1.0000 0.49742  0.09150  0.87782  Biso   1.000  O
  O2515    1.0000 0.65940  0.56231  0.10429  Biso   1.000  O
  O2516    1.0000 0.04809  0.77224  0.56847  Biso   1.000  O
  O2517    1.0000 0.07552  0.70009  0.59172  Biso   1.000  O
  O2518    1.0000 0.02469  0.68641  0.46576  Biso   1.000  O
  O2519    1.0000 0.02603  0.71149  0.46943  Biso   1.000  O
  O2520    1.0000 0.67563  0.01553  0.32112  Biso   1.000  O
  O2521    1.0000 0.68687  0.00714  0.34240  Biso   1.000  O
  O2522    1.0000 0.72099  0.09767  0.33500  Biso   1.000  O
  O2523    1.0000 0.73033  0.11427  0.35163  Biso   1.000  O
  O2524    1.0000 0.64655  0.13014  0.35320  Biso   1.000  O
  O2525    1.0000 0.65435  0.12862  0.37732  Biso   1.000  O
  O2526    1.0000 0.68702  0.57607  0.95150  Biso   1.000  O
  O2527    1.0000 0.63938  0.62344  0.90298  Biso   1.000  O
  O2528    1.0000 0.72729  0.04897  0.43888  Biso   1.000  O
  O2529    1.0000 0.71229  0.06930  0.43688  Biso   1.000  O
  O2530    1.0000 0.75657  0.07410  0.36550  Biso   1.000  O
  O2531    1.0000 0.74009  0.09308  0.36921  Biso   1.000  O
  O2532    1.0000 0.65973  0.06235  0.60273  Biso   1.000  O
  O2533    1.0000 0.05784  0.27666  0.07277  Biso   1.000  O
  O2534    1.0000 0.07598  0.19840  0.09027  Biso   1.000  O
  O2535    1.0000 0.03148  0.18624  0.97315  Biso   1.000  O
  O2536    1.0000 0.01953  0.20505  0.96105  Biso   1.000  O
  O2537    1.0000 0.67485  0.51531  0.82170  Biso   1.000  O
  O2538    1.0000 0.68637  0.50670  0.84274  Biso   1.000  O
  O2539    1.0000 0.72136  0.59732  0.83562  Biso   1.000  O
  O2540    1.0000 0.73065  0.61374  0.85249  Biso   1.000  O
  O2541    1.0000 0.64670  0.62919  0.85390  Biso   1.000  O
  O2542    1.0000 0.65445  0.62754  0.87803  Biso   1.000  O
  O2543    1.0000 0.68739  0.07677  0.45030  Biso   1.000  O
  O2544    1.0000 0.63942  0.12394  0.40221  Biso   1.000  O
  O2545    1.0000 0.72703  0.54851  0.93992  Biso   1.000  O
  O2546    1.0000 0.71197  0.56877  0.93803  Biso   1.000  O
  O2547    1.0000 0.75636  0.57334  0.86664  Biso   1.000  O
  O2548    1.0000 0.74006  0.59251  0.87023  Biso   1.000  O
  O2549    1.0000 0.15980  0.56301  0.60198  Biso   1.000  O
  O2550    1.0000 0.55016  0.77172  0.06950  Biso   1.000  O
  O2551    1.0000 0.57689  0.69867  0.09031  Biso   1.000  O
  O2552    1.0000 0.52444  0.68664  0.96590  Biso   1.000  O
  O2553    1.0000 0.52570  0.71177  0.96919  Biso   1.000  O
  O2554    1.0000 0.17133  0.02233  0.82703  Biso   1.000  O
  O2555    1.0000 0.18734  0.00385  0.83392  Biso   1.000  O
  O2556    1.0000 0.22156  0.09678  0.83537  Biso   1.000  O
  O2557    1.0000 0.23045  0.11355  0.85204  Biso   1.000  O
  O2558    1.0000 0.14532  0.11977  0.85304  Biso   1.000  O
  O2559    1.0000 0.15313  0.13719  0.86971  Biso   1.000  O
  O2560    1.0000 0.19368  0.57308  0.44112  Biso   1.000  O
  O2561    1.0000 0.14088  0.62435  0.40222  Biso   1.000  O
  O2562    1.0000 0.22649  0.05005  0.93963  Biso   1.000  O
  O2563    1.0000 0.21147  0.07024  0.93722  Biso   1.000  O
  O2564    1.0000 0.25658  0.07321  0.86603  Biso   1.000  O
  O2565    1.0000 0.24000  0.09219  0.86956  Biso   1.000  O
  O2566    1.0000 0.16114  0.06240  0.10395  Biso   1.000  O
  O2567    1.0000 0.54801  0.27189  0.56792  Biso   1.000  O
  O2568    1.0000 0.57609  0.19919  0.59045  Biso   1.000  O
  O2569    1.0000 0.52261  0.18630  0.46422  Biso   1.000  O
  O2570    1.0000 0.52492  0.21121  0.46853  Biso   1.000  O
  O2571    1.0000 0.17597  0.51490  0.32233  Biso   1.000  O
  O2572    1.0000 0.18734  0.50619  0.34338  Biso   1.000  O
  O2573    1.0000 0.22171  0.59767  0.33501  Biso   1.000  O
  O2574    1.0000 0.23089  0.61438  0.35168  Biso   1.000  O
  O2575    1.0000 0.14687  0.63008  0.35289  Biso   1.000  O
  O2576    1.0000 0.15508  0.62877  0.37686  Biso   1.000  O
  O2577    1.0000 0.18662  0.07795  0.95065  Biso   1.000  O
  O2578    1.0000 0.14688  0.12111  0.89360  Biso   1.000  O
  O2579    1.0000 0.21993  0.54293  0.43319  Biso   1.000  O
  O2580    1.0000 0.22218  0.56634  0.44308  Biso   1.000  O
  O2581    1.0000 0.25630  0.57443  0.36709  Biso   1.000  O
  O2582    1.0000 0.24006  0.59370  0.37021  Biso   1.000  O
  O2583    1.0000 0.58772  0.17566  0.60627  Biso   1.000  O
  O2584    1.0000 0.19189  0.97208  0.07160  Biso   1.000  O
  O2585    1.0000 0.18338  0.05169  0.08599  Biso   1.000  O
  O2586    1.0000 0.22518  0.06524  0.96470  Biso   1.000  O
  O2587    1.0000 0.22420  0.04005  0.96840  Biso   1.000  O
  O2588    1.0000 0.57970  0.72685  0.82744  Biso   1.000  O
  O2589    1.0000 0.56363  0.74566  0.83336  Biso   1.000  O
  O2590    1.0000 0.52897  0.65191  0.83436  Biso   1.000  O
  O2591    1.0000 0.51977  0.63527  0.85117  Biso   1.000  O
  O2592    1.0000 0.60457  0.61981  0.85275  Biso   1.000  O
  O2593    1.0000 0.59552  0.62116  0.87637  Biso   1.000  O
  O2594    1.0000 0.56073  0.17221  0.44974  Biso   1.000  O
  O2595    1.0000 0.60915  0.12522  0.40161  Biso   1.000  O
  O2596    1.0000 0.52264  0.70146  0.94031  Biso   1.000  O
  O2597    1.0000 0.53711  0.68086  0.93826  Biso   1.000  O
  O2598    1.0000 0.49423  0.67545  0.86617  Biso   1.000  O
  O2599    1.0000 0.50988  0.65565  0.86977  Biso   1.000  O
  O2600    1.0000 0.58790  0.67469  0.10602  Biso   1.000  O
  O2601    1.0000 0.19880  0.47782  0.56889  Biso   1.000  O
  O2602    1.0000 0.18163  0.55230  0.58332  Biso   1.000  O
  O2603    1.0000 0.21875  0.56310  0.47361  Biso   1.000  O
  O2604    1.0000 0.23125  0.54474  0.46147  Biso   1.000  O
  O2605    1.0000 0.57451  0.23522  0.32226  Biso   1.000  O
  O2606    1.0000 0.56416  0.24297  0.34403  Biso   1.000  O
  O2607    1.0000 0.52926  0.15337  0.33488  Biso   1.000  O
  O2608    1.0000 0.52016  0.13670  0.35165  Biso   1.000  O
  O2609    1.0000 0.60461  0.12001  0.35216  Biso   1.000  O
  O2610    1.0000 0.59566  0.12136  0.37577  Biso   1.000  O
  O2611    1.0000 0.56246  0.67335  0.95064  Biso   1.000  O
  O2612    1.0000 0.60912  0.62524  0.90219  Biso   1.000  O
  O2613    1.0000 0.52215  0.20203  0.43918  Biso   1.000  O
  O2614    1.0000 0.53593  0.18091  0.43690  Biso   1.000  O
  O2615    1.0000 0.49207  0.17565  0.36550  Biso   1.000  O
  O2616    1.0000 0.50946  0.15755  0.36894  Biso   1.000  O
  O2617    1.0000 0.08740  0.17420  0.10568  Biso   1.000  O
  O2618    1.0000 0.70015  0.97710  0.56812  Biso   1.000  O
  O2619    1.0000 0.68205  0.05145  0.58507  Biso   1.000  O
  O2620    1.0000 0.72622  0.06451  0.46420  Biso   1.000  O
  O2621    1.0000 0.72553  0.03933  0.46792  Biso   1.000  O
  O2622    1.0000 0.07932  0.72742  0.32744  Biso   1.000  O
  O2623    1.0000 0.06305  0.74600  0.33358  Biso   1.000  O
  O2624    1.0000 0.02913  0.65194  0.33507  Biso   1.000  O
  O2625    1.0000 0.02021  0.63602  0.35267  Biso   1.000  O
  O2626    1.0000 0.10490  0.62006  0.35290  Biso   1.000  O
  O2627    1.0000 0.09636  0.62145  0.37670  Biso   1.000  O
  O2628    1.0000 0.05659  0.17595  0.94059  Biso   1.000  O
  O2629    1.0000 0.10244  0.12878  0.89312  Biso   1.000  O
  O2630    1.0000 0.02280  0.70148  0.44060  Biso   1.000  O
  O2631    1.0000 0.03736  0.68100  0.43803  Biso   1.000  O
  O2632    1.0000 0.99376  0.67623  0.36624  Biso   1.000  O
  O2633    1.0000 0.01003  0.65713  0.36993  Biso   1.000  O
  O2634    1.0000 0.08686  0.67605  0.60727  Biso   1.000  O
  O2635    1.0000 0.69120  0.47171  0.07311  Biso   1.000  O
  O2636    1.0000 0.68158  0.55048  0.08712  Biso   1.000  O
  O2637    1.0000 0.72584  0.56353  0.96538  Biso   1.000  O
  O2638    1.0000 0.72501  0.53834  0.96876  Biso   1.000  O
  O2639    1.0000 0.07309  0.23536  0.82199  Biso   1.000  O
  O2640    1.0000 0.06304  0.24362  0.84380  Biso   1.000  O
  O2641    1.0000 0.02846  0.15323  0.83642  Biso   1.000  O
  O2642    1.0000 0.01930  0.13655  0.85318  Biso   1.000  O
  O2643    1.0000 0.10488  0.13181  0.85322  Biso   1.000  O
  O2644    1.0000 0.09702  0.11327  0.86864  Biso   1.000  O
  O2645    1.0000 0.06275  0.67321  0.45049  Biso   1.000  O
  O2646    1.0000 0.11049  0.62569  0.40224  Biso   1.000  O
  O2647    1.0000 0.03043  0.20580  0.93236  Biso   1.000  O
  O2648    1.0000 0.02790  0.18270  0.94278  Biso   1.000  O
  O2649    1.0000 0.99095  0.17552  0.86658  Biso   1.000  O
  O2650    1.0000 0.00771  0.15689  0.87091  Biso   1.000  O
  O2651    1.0000 0.16058  0.68539  0.64768  Biso   1.000  O
  O2652    1.0000 0.55882  0.47308  0.17757  Biso   1.000  O
  O2653    1.0000 0.57529  0.55185  0.15958  Biso   1.000  O
  O2654    1.0000 0.53090  0.56352  0.27657  Biso   1.000  O
  O2655    1.0000 0.51845  0.54592  0.28960  Biso   1.000  O
  O2656    1.0000 0.17188  0.22717  0.42267  Biso   1.000  O
  O2657    1.0000 0.18766  0.24644  0.41747  Biso   1.000  O
  O2658    1.0000 0.22142  0.15368  0.41426  Biso   1.000  O
  O2659    1.0000 0.22996  0.13655  0.39763  Biso   1.000  O
  O2660    1.0000 0.14418  0.13219  0.39572  Biso   1.000  O
  O2661    1.0000 0.15309  0.11417  0.38038  Biso   1.000  O
  O2662    1.0000 0.18880  0.67350  0.80039  Biso   1.000  O
  O2663    1.0000 0.14670  0.62979  0.85503  Biso   1.000  O
  O2664    1.0000 0.22844  0.19919  0.30889  Biso   1.000  O
  O2665    1.0000 0.21339  0.17892  0.31125  Biso   1.000  O
  O2666    1.0000 0.25761  0.17569  0.38296  Biso   1.000  O
  O2667    1.0000 0.24073  0.15698  0.37969  Biso   1.000  O
  O2668    1.0000 0.15990  0.18610  0.14681  Biso   1.000  O
  O2669    1.0000 0.54931  0.97805  0.68239  Biso   1.000  O
  O2670    1.0000 0.57637  0.05150  0.65938  Biso   1.000  O
  O2671    1.0000 0.53061  0.06254  0.77754  Biso   1.000  O
  O2672    1.0000 0.51868  0.04443  0.79031  Biso   1.000  O
  O2673    1.0000 0.17597  0.73435  0.92818  Biso   1.000  O
  O2674    1.0000 0.18629  0.74272  0.90657  Biso   1.000  O
  O2675    1.0000 0.22159  0.65356  0.91396  Biso   1.000  O
  O2676    1.0000 0.23012  0.63653  0.89738  Biso   1.000  O
  O2677    1.0000 0.14523  0.63139  0.89540  Biso   1.000  O
  O2678    1.0000 0.15327  0.61382  0.87887  Biso   1.000  O
  O2679    1.0000 0.18713  0.17266  0.29975  Biso   1.000  O
  O2680    1.0000 0.14705  0.12876  0.35570  Biso   1.000  O
  O2681    1.0000 0.22805  0.70266  0.81054  Biso   1.000  O
  O2682    1.0000 0.21395  0.68182  0.81293  Biso   1.000  O
  O2683    1.0000 0.25866  0.67544  0.88372  Biso   1.000  O
  O2684    1.0000 0.24137  0.65719  0.87989  Biso   1.000  O
  O2685    1.0000 0.66116  0.68554  0.14675  Biso   1.000  O
  O2686    1.0000 0.05799  0.47260  0.67847  Biso   1.000  O
  O2687    1.0000 0.07596  0.55001  0.65845  Biso   1.000  O
  O2688    1.0000 0.03045  0.56335  0.77679  Biso   1.000  O
  O2689    1.0000 0.01882  0.54555  0.79037  Biso   1.000  O
  O2690    1.0000 0.67597  0.23488  0.92787  Biso   1.000  O
  O2691    1.0000 0.68670  0.24326  0.90652  Biso   1.000  O
  O2692    1.0000 0.72048  0.15291  0.91496  Biso   1.000  O
  O2693    1.0000 0.72929  0.13640  0.89779  Biso   1.000  O
  O2694    1.0000 0.64507  0.11966  0.89680  Biso   1.000  O
  O2695    1.0000 0.65382  0.12199  0.87318  Biso   1.000  O
  O2696    1.0000 0.68787  0.67419  0.29962  Biso   1.000  O
  O2697    1.0000 0.64760  0.62929  0.35488  Biso   1.000  O
  O2698    1.0000 0.72814  0.20093  0.81018  Biso   1.000  O
  O2699    1.0000 0.71337  0.18043  0.81248  Biso   1.000  O
  O2700    1.0000 0.75760  0.17511  0.88364  Biso   1.000  O
  O2701    1.0000 0.74037  0.15678  0.88002  Biso   1.000  O
  O2702    1.0000 0.66245  0.17541  0.64284  Biso   1.000  O
  O2703    1.0000 0.04990  0.97732  0.18107  Biso   1.000  O
  O2704    1.0000 0.07673  0.05110  0.15974  Biso   1.000  O
  O2705    1.0000 0.02327  0.06221  0.28570  Biso   1.000  O
  O2706    1.0000 0.02461  0.03722  0.28124  Biso   1.000  O
  O2707    1.0000 0.67610  0.73491  0.42819  Biso   1.000  O
  O2708    1.0000 0.68629  0.74388  0.40667  Biso   1.000  O
  O2709    1.0000 0.72130  0.65394  0.41270  Biso   1.000  O
  O2710    1.0000 0.73117  0.63680  0.39708  Biso   1.000  O
  O2711    1.0000 0.64560  0.63096  0.39518  Biso   1.000  O
  O2712    1.0000 0.65348  0.61327  0.37876  Biso   1.000  O
  O2713    1.0000 0.68794  0.17300  0.79993  Biso   1.000  O
  O2714    1.0000 0.64003  0.12614  0.84750  Biso   1.000  O
  O2715    1.0000 0.72744  0.70249  0.31052  Biso   1.000  O
  O2716    1.0000 0.71371  0.68108  0.31163  Biso   1.000  O
  O2717    1.0000 0.75834  0.67664  0.38351  Biso   1.000  O
  O2718    1.0000 0.74196  0.65755  0.37942  Biso   1.000  O
  O2719    1.0000 0.33868  0.89790  0.43717  Biso   1.000  O
  O2720    1.0000 0.94101  0.42833  0.22258  Biso   1.000  O
  O2721    1.0000 0.92484  0.41098  0.30045  Biso   1.000  O
  O2722    1.0000 0.97608  0.53381  0.31478  Biso   1.000  O
  O2723    1.0000 0.97550  0.53060  0.28959  Biso   1.000  O
  O2724    1.0000 0.32513  0.67812  0.98391  Biso   1.000  O
  O2725    1.0000 0.31459  0.65695  0.99322  Biso   1.000  O
  O2726    1.0000 0.27930  0.66365  0.90352  Biso   1.000  O
  O2727    1.0000 0.27007  0.64797  0.88582  Biso   1.000  O
  O2728    1.0000 0.35566  0.64533  0.88113  Biso   1.000  O
  O2729    1.0000 0.34706  0.62926  0.86360  Biso   1.000  O
  O2730    1.0000 0.31180  0.04989  0.42285  Biso   1.000  O
  O2731    1.0000 0.35315  0.10507  0.37918  Biso   1.000  O
  O2732    1.0000 0.27331  0.56138  0.95233  Biso   1.000  O
  O2733    1.0000 0.28708  0.56237  0.93095  Biso   1.000  O
  O2734    1.0000 0.24231  0.63327  0.92483  Biso   1.000  O
  O2735    1.0000 0.25865  0.62939  0.90561  Biso   1.000  O
  O2736    1.0000 0.33799  0.39359  0.92724  Biso   1.000  O
  O2737    1.0000 0.94139  0.92812  0.72280  Biso   1.000  O
  O2738    1.0000 0.93100  0.91692  0.80227  Biso   1.000  O
  O2739    1.0000 0.97608  0.03545  0.81311  Biso   1.000  O
  O2740    1.0000 0.97498  0.03172  0.78805  Biso   1.000  O
  O2741    1.0000 0.32484  0.17761  0.48414  Biso   1.000  O
  O2742    1.0000 0.31383  0.15649  0.49312  Biso   1.000  O
  O2743    1.0000 0.27884  0.16453  0.40247  Biso   1.000  O
  O2744    1.0000 0.26958  0.14818  0.38543  Biso   1.000  O
  O2745    1.0000 0.35479  0.14525  0.38065  Biso   1.000  O
  O2746    1.0000 0.34693  0.12891  0.36302  Biso   1.000  O
  O2747    1.0000 0.31248  0.54972  0.92370  Biso   1.000  O
  O2748    1.0000 0.35314  0.60536  0.87953  Biso   1.000  O
  O2749    1.0000 0.27268  0.06118  0.45182  Biso   1.000  O
  O2750    1.0000 0.28668  0.06284  0.43066  Biso   1.000  O
  O2751    1.0000 0.24245  0.13367  0.42487  Biso   1.000  O
  O2752    1.0000 0.25867  0.12974  0.40560  Biso   1.000  O
  O2753    1.0000 0.83846  0.89649  0.93741  Biso   1.000  O
  O2754    1.0000 0.44008  0.42774  0.72283  Biso   1.000  O
  O2755    1.0000 0.42125  0.40961  0.80067  Biso   1.000  O
  O2756    1.0000 0.47570  0.53385  0.81398  Biso   1.000  O
  O2757    1.0000 0.47492  0.53059  0.78885  Biso   1.000  O
  O2758    1.0000 0.82375  0.67814  0.48457  Biso   1.000  O
  O2759    1.0000 0.81310  0.65684  0.49327  Biso   1.000  O
  O2760    1.0000 0.77944  0.66563  0.40333  Biso   1.000  O
  O2761    1.0000 0.77070  0.64946  0.38595  Biso   1.000  O
  O2762    1.0000 0.85421  0.64713  0.36970  Biso   1.000  O
  O2763    1.0000 0.84599  0.62317  0.37117  Biso   1.000  O
  O2764    1.0000 0.81147  0.04953  0.92291  Biso   1.000  O
  O2765    1.0000 0.85195  0.10488  0.87837  Biso   1.000  O
  O2766    1.0000 0.77249  0.56080  0.44998  Biso   1.000  O
  O2767    1.0000 0.78666  0.56239  0.42892  Biso   1.000  O
  O2768    1.0000 0.74225  0.63421  0.42423  Biso   1.000  O
  O2769    1.0000 0.75992  0.63117  0.40620  Biso   1.000  O
  O2770    1.0000 0.83849  0.39696  0.43674  Biso   1.000  O
  O2771    1.0000 0.45230  0.93138  0.22745  Biso   1.000  O
  O2772    1.0000 0.43293  0.91540  0.30300  Biso   1.000  O
  O2773    1.0000 0.47688  0.03518  0.31361  Biso   1.000  O
  O2774    1.0000 0.47555  0.03123  0.28862  Biso   1.000  O
  O2775    1.0000 0.82485  0.17713  0.98393  Biso   1.000  O
  O2776    1.0000 0.81389  0.15617  0.99339  Biso   1.000  O
  O2777    1.0000 0.77836  0.16361  0.90341  Biso   1.000  O
  O2778    1.0000 0.76900  0.14764  0.88607  Biso   1.000  O
  O2779    1.0000 0.85390  0.14508  0.87998  Biso   1.000  O
  O2780    1.0000 0.84584  0.12884  0.86233  Biso   1.000  O
  O2781    1.0000 0.81194  0.54943  0.42141  Biso   1.000  O
  O2782    1.0000 0.86028  0.59795  0.37528  Biso   1.000  O
  O2783    1.0000 0.77242  0.06066  0.95208  Biso   1.000  O
  O2784    1.0000 0.78629  0.06240  0.93081  Biso   1.000  O
  O2785    1.0000 0.74173  0.13320  0.92550  Biso   1.000  O
  O2786    1.0000 0.75775  0.12922  0.90604  Biso   1.000  O
  O2787    1.0000 0.91329  0.85813  0.92613  Biso   1.000  O
  O2788    1.0000 0.30806  0.32039  0.72274  Biso   1.000  O
  O2789    1.0000 0.31516  0.33368  0.80282  Biso   1.000  O
  O2790    1.0000 0.27364  0.21524  0.81619  Biso   1.000  O
  O2791    1.0000 0.27478  0.21829  0.79091  Biso   1.000  O
  O2792    1.0000 0.92588  0.07236  0.48518  Biso   1.000  O
  O2793    1.0000 0.93649  0.09424  0.49277  Biso   1.000  O
  O2794    1.0000 0.97064  0.08425  0.40275  Biso   1.000  O
  O2795    1.0000 0.97994  0.10044  0.38562  Biso   1.000  O
  O2796    1.0000 0.89580  0.10197  0.37059  Biso   1.000  O
  O2797    1.0000 0.90401  0.12594  0.37214  Biso   1.000  O
  O2798    1.0000 0.93754  0.70135  0.92148  Biso   1.000  O
  O2799    1.0000 0.88991  0.65147  0.87519  Biso   1.000  O
  O2800    1.0000 0.97614  0.18889  0.45096  Biso   1.000  O
  O2801    1.0000 0.96159  0.18670  0.43041  Biso   1.000  O
  O2802    1.0000 0.00655  0.11549  0.42510  Biso   1.000  O
  O2803    1.0000 0.99039  0.11893  0.40569  Biso   1.000  O
  O2804    1.0000 0.91228  0.35707  0.42723  Biso   1.000  O
  O2805    1.0000 0.30188  0.81675  0.22834  Biso   1.000  O
  O2806    1.0000 0.32712  0.83981  0.30089  Biso   1.000  O
  O2807    1.0000 0.28186  0.72475  0.31429  Biso   1.000  O
  O2808    1.0000 0.26951  0.71131  0.29672  Biso   1.000  O
  O2809    1.0000 0.92527  0.57254  0.98554  Biso   1.000  O
  O2810    1.0000 0.93534  0.59477  0.99230  Biso   1.000  O
  O2811    1.0000 0.97088  0.58583  0.90375  Biso   1.000  O
  O2812    1.0000 0.98028  0.60184  0.88647  Biso   1.000  O
  O2813    1.0000 0.89609  0.60211  0.87049  Biso   1.000  O
  O2814    1.0000 0.90418  0.62615  0.87136  Biso   1.000  O
  O2815    1.0000 0.93690  0.20022  0.42244  Biso   1.000  O
  O2816    1.0000 0.88965  0.15132  0.37618  Biso   1.000  O
  O2817    1.0000 0.97595  0.68939  0.95104  Biso   1.000  O
  O2818    1.0000 0.96218  0.68792  0.92980  Biso   1.000  O
  O2819    1.0000 0.00719  0.61690  0.92585  Biso   1.000  O
  O2820    1.0000 0.99125  0.62049  0.90620  Biso   1.000  O
  O2821    1.0000 0.41286  0.85807  0.42687  Biso   1.000  O
  O2822    1.0000 0.80851  0.32166  0.22208  Biso   1.000  O
  O2823    1.0000 0.82654  0.33999  0.29948  Biso   1.000  O
  O2824    1.0000 0.77446  0.21608  0.31470  Biso   1.000  O
  O2825    1.0000 0.77527  0.21857  0.28933  Biso   1.000  O
  O2826    1.0000 0.42670  0.07172  0.98573  Biso   1.000  O
  O2827    1.0000 0.43718  0.09363  0.99330  Biso   1.000  O
  O2828    1.0000 0.47392  0.08225  0.89374  Biso   1.000  O
  O2829    1.0000 0.47852  0.10727  0.89548  Biso   1.000  O
  O2830    1.0000 0.39669  0.10221  0.87028  Biso   1.000  O
  O2831    1.0000 0.40419  0.12636  0.87226  Biso   1.000  O
  O2832    1.0000 0.43807  0.70119  0.42299  Biso   1.000  O
  O2833    1.0000 0.38967  0.65295  0.37641  Biso   1.000  O
  O2834    1.0000 0.47585  0.18840  0.95226  Biso   1.000  O
  O2835    1.0000 0.46162  0.18614  0.93144  Biso   1.000  O
  O2836    1.0000 0.49832  0.11119  0.93035  Biso   1.000  O
  O2837    1.0000 0.50147  0.12159  0.90744  Biso   1.000  O
  O2838    1.0000 0.41269  0.35655  0.92709  Biso   1.000  O
  O2839    1.0000 0.81100  0.82194  0.72204  Biso   1.000  O
  O2840    1.0000 0.82634  0.84000  0.80018  Biso   1.000  O
  O2841    1.0000 0.78210  0.72413  0.81354  Biso   1.000  O
  O2842    1.0000 0.77007  0.71044  0.79589  Biso   1.000  O
  O2843    1.0000 0.42633  0.57268  0.48543  Biso   1.000  O
  O2844    1.0000 0.43602  0.59493  0.49251  Biso   1.000  O
  O2845    1.0000 0.47089  0.58705  0.40323  Biso   1.000  O
  O2846    1.0000 0.48017  0.60362  0.38645  Biso   1.000  O
  O2847    1.0000 0.39617  0.60382  0.36994  Biso   1.000  O
  O2848    1.0000 0.40417  0.62785  0.37193  Biso   1.000  O
  O2849    1.0000 0.43706  0.19979  0.92317  Biso   1.000  O
  O2850    1.0000 0.38956  0.15137  0.87678  Biso   1.000  O
  O2851    1.0000 0.47640  0.68923  0.45267  Biso   1.000  O
  O2852    1.0000 0.46288  0.68802  0.43122  Biso   1.000  O
  O2853    1.0000 0.50811  0.61722  0.42575  Biso   1.000  O
  O2854    1.0000 0.49130  0.62122  0.40702  Biso   1.000  O
  O2855    1.0000 0.83822  0.35610  0.32269  Biso   1.000  O
  O2856    1.0000 0.45216  0.81913  0.52363  Biso   1.000  O
  O2857    1.0000 0.42486  0.84314  0.45093  Biso   1.000  O
  O2858    1.0000 0.47632  0.71513  0.43700  Biso   1.000  O
  O2859    1.0000 0.47502  0.71824  0.46228  Biso   1.000  O
  O2860    1.0000 0.82376  0.57200  0.76537  Biso   1.000  O
  O2861    1.0000 0.81305  0.59342  0.75678  Biso   1.000  O
  O2862    1.0000 0.77858  0.58407  0.84795  Biso   1.000  O
  O2863    1.0000 0.76935  0.60014  0.86524  Biso   1.000  O
  O2864    1.0000 0.85376  0.60215  0.87970  Biso   1.000  O
  O2865    1.0000 0.84549  0.62615  0.87860  Biso   1.000  O
  O2866    1.0000 0.81249  0.20078  0.32777  Biso   1.000  O
  O2867    1.0000 0.85945  0.15110  0.37446  Biso   1.000  O
  O2868    1.0000 0.78221  0.68211  0.79656  Biso   1.000  O
  O2869    1.0000 0.77890  0.69405  0.81866  Biso   1.000  O
  O2870    1.0000 0.74357  0.61655  0.82562  Biso   1.000  O
  O2871    1.0000 0.75981  0.61921  0.84512  Biso   1.000  O
  O2872    1.0000 0.83723  0.85636  0.82390  Biso   1.000  O
  O2873    1.0000 0.44205  0.32232  0.02784  Biso   1.000  O
  O2874    1.0000 0.42495  0.34041  0.95009  Biso   1.000  O
  O2875    1.0000 0.47587  0.21315  0.93602  Biso   1.000  O
  O2876    1.0000 0.47456  0.21784  0.96093  Biso   1.000  O
  O2877    1.0000 0.82441  0.07264  0.26470  Biso   1.000  O
  O2878    1.0000 0.81441  0.09471  0.25741  Biso   1.000  O
  O2879    1.0000 0.77857  0.08510  0.34673  Biso   1.000  O
  O2880    1.0000 0.76925  0.10111  0.36403  Biso   1.000  O
  O2881    1.0000 0.85346  0.10186  0.37958  Biso   1.000  O
  O2882    1.0000 0.84520  0.12586  0.37857  Biso   1.000  O
  O2883    1.0000 0.80763  0.69251  0.82526  Biso   1.000  O
  O2884    1.0000 0.85981  0.65139  0.87405  Biso   1.000  O
  O2885    1.0000 0.77263  0.18995  0.29970  Biso   1.000  O
  O2886    1.0000 0.78697  0.18849  0.32055  Biso   1.000  O
  O2887    1.0000 0.74281  0.11716  0.32459  Biso   1.000  O
  O2888    1.0000 0.75922  0.12015  0.34397  Biso   1.000  O
  O2889    1.0000 0.33763  0.35230  0.81230  Biso   1.000  O
  O2890    1.0000 0.94231  0.82313  0.02774  Biso   1.000  O
  O2891    1.0000 0.92534  0.84277  0.94998  Biso   1.000  O
  O2892    1.0000 0.97593  0.71488  0.93573  Biso   1.000  O
  O2893    1.0000 0.97395  0.71852  0.96084  Biso   1.000  O
  O2894    1.0000 0.32894  0.57850  0.27240  Biso   1.000  O
  O2895    1.0000 0.31255  0.58471  0.25387  Biso   1.000  O
  O2896    1.0000 0.27870  0.58469  0.34834  Biso   1.000  O
  O2897    1.0000 0.26941  0.60107  0.36523  Biso   1.000  O
  O2898    1.0000 0.35389  0.60328  0.37915  Biso   1.000  O
  O2899    1.0000 0.34544  0.62725  0.37907  Biso   1.000  O
  O2900    1.0000 0.31191  0.20085  0.82946  Biso   1.000  O
  O2901    1.0000 0.35952  0.15070  0.87548  Biso   1.000  O
  O2902    1.0000 0.28144  0.68302  0.29663  Biso   1.000  O
  O2903    1.0000 0.27849  0.69457  0.31900  Biso   1.000  O
  O2904    1.0000 0.24412  0.61649  0.32483  Biso   1.000  O
  O2905    1.0000 0.26013  0.61948  0.34446  Biso   1.000  O
  O2906    1.0000 0.33799  0.85619  0.32461  Biso   1.000  O
  O2907    1.0000 0.94208  0.32206  0.52751  Biso   1.000  O
  O2908    1.0000 0.92414  0.34093  0.45021  Biso   1.000  O
  O2909    1.0000 0.97578  0.21379  0.43496  Biso   1.000  O
  O2910    1.0000 0.97473  0.21820  0.45994  Biso   1.000  O
  O2911    1.0000 0.32434  0.07260  0.76552  Biso   1.000  O
  O2912    1.0000 0.31320  0.09383  0.75697  Biso   1.000  O
  O2913    1.0000 0.27885  0.08442  0.84754  Biso   1.000  O
  O2914    1.0000 0.26922  0.10010  0.86489  Biso   1.000  O
  O2915    1.0000 0.35420  0.10123  0.87947  Biso   1.000  O
  O2916    1.0000 0.34586  0.12522  0.87929  Biso   1.000  O
  O2917    1.0000 0.30728  0.69281  0.32529  Biso   1.000  O
  O2918    1.0000 0.35954  0.65272  0.37521  Biso   1.000  O
  O2919    1.0000 0.27252  0.18950  0.80096  Biso   1.000  O
  O2920    1.0000 0.28687  0.18794  0.82179  Biso   1.000  O
  O2921    1.0000 0.24327  0.11645  0.82532  Biso   1.000  O
  O2922    1.0000 0.25950  0.11931  0.84479  Biso   1.000  O
  O2923    1.0000 0.40969  0.39422  0.82470  Biso   1.000  O
  O2924    1.0000 0.80804  0.92660  0.02851  Biso   1.000  O
  O2925    1.0000 0.81539  0.91380  0.94771  Biso   1.000  O
  O2926    1.0000 0.77331  0.03528  0.93657  Biso   1.000  O
  O2927    1.0000 0.77506  0.03131  0.96153  Biso   1.000  O
  O2928    1.0000 0.42166  0.17214  0.27237  Biso   1.000  O
  O2929    1.0000 0.43737  0.16636  0.25316  Biso   1.000  O
  O2930    1.0000 0.47141  0.16436  0.34556  Biso   1.000  O
  O2931    1.0000 0.48037  0.14858  0.36319  Biso   1.000  O
  O2932    1.0000 0.39531  0.14553  0.36879  Biso   1.000  O
  O2933    1.0000 0.40366  0.12918  0.38633  Biso   1.000  O
  O2934    1.0000 0.43727  0.54860  0.82640  Biso   1.000  O
  O2935    1.0000 0.39728  0.60442  0.87027  Biso   1.000  O
  O2936    1.0000 0.47844  0.06054  0.29805  Biso   1.000  O
  O2937    1.0000 0.46428  0.06253  0.31911  Biso   1.000  O
  O2938    1.0000 0.50801  0.13371  0.32401  Biso   1.000  O
  O2939    1.0000 0.49168  0.12985  0.34334  Biso   1.000  O
  O2940    1.0000 0.41063  0.89760  0.31397  Biso   1.000  O
  O2941    1.0000 0.80912  0.42836  0.52767  Biso   1.000  O
  O2942    1.0000 0.81630  0.41518  0.44758  Biso   1.000  O
  O2943    1.0000 0.77345  0.53525  0.43464  Biso   1.000  O
  O2944    1.0000 0.77480  0.53158  0.45970  Biso   1.000  O
  O2945    1.0000 0.42220  0.67257  0.77208  Biso   1.000  O
  O2946    1.0000 0.43803  0.66712  0.75289  Biso   1.000  O
  O2947    1.0000 0.47221  0.66529  0.84719  Biso   1.000  O
  O2948    1.0000 0.48081  0.64833  0.86387  Biso   1.000  O
  O2949    1.0000 0.39591  0.64516  0.86839  Biso   1.000  O
  O2950    1.0000 0.40420  0.62845  0.88573  Biso   1.000  O
  O2951    1.0000 0.43876  0.05016  0.32662  Biso   1.000  O
  O2952    1.0000 0.39744  0.10509  0.37073  Biso   1.000  O
  O2953    1.0000 0.47782  0.55944  0.79946  Biso   1.000  O
  O2954    1.0000 0.46298  0.56116  0.82001  Biso   1.000  O
  O2955    1.0000 0.50703  0.63303  0.82411  Biso   1.000  O
  O2956    1.0000 0.49045  0.63011  0.84311  Biso   1.000  O
  O2957    1.0000 0.91167  0.39457  0.32303  Biso   1.000  O
  O2958    1.0000 0.30856  0.92807  0.52785  Biso   1.000  O
  O2959    1.0000 0.31617  0.91613  0.44747  Biso   1.000  O
  O2960    1.0000 0.27349  0.03575  0.43638  Biso   1.000  O
  O2961    1.0000 0.27513  0.03188  0.46137  Biso   1.000  O
  O2962    1.0000 0.92184  0.17287  0.77256  Biso   1.000  O
  O2963    1.0000 0.93770  0.16732  0.75343  Biso   1.000  O
  O2964    1.0000 0.97070  0.16427  0.84619  Biso   1.000  O
  O2965    1.0000 0.97915  0.14813  0.86374  Biso   1.000  O
  O2966    1.0000 0.89424  0.14515  0.86785  Biso   1.000  O
  O2967    1.0000 0.90246  0.12883  0.88551  Biso   1.000  O
  O2968    1.0000 0.93772  0.54891  0.32710  Biso   1.000  O
  O2969    1.0000 0.89056  0.59807  0.37360  Biso   1.000  O
  O2970    1.0000 0.97811  0.06086  0.79787  Biso   1.000  O
  O2971    1.0000 0.96366  0.06291  0.81868  Biso   1.000  O
  O2972    1.0000 0.00765  0.13359  0.82517  Biso   1.000  O
  O2973    1.0000 0.99089  0.12973  0.84400  Biso   1.000  O
  O2974    1.0000 0.90912  0.89889  0.81380  Biso   1.000  O
  O2975    1.0000 0.30842  0.42712  0.02896  Biso   1.000  O
  O2976    1.0000 0.32557  0.40873  0.95073  Biso   1.000  O
  O2977    1.0000 0.27423  0.53525  0.93708  Biso   1.000  O
  O2978    1.0000 0.27527  0.53228  0.96224  Biso   1.000  O
  O2979    1.0000 0.92285  0.67206  0.27144  Biso   1.000  O
  O2980    1.0000 0.93876  0.66583  0.25253  Biso   1.000  O
  O2981    1.0000 0.97207  0.66549  0.34736  Biso   1.000  O
  O2982    1.0000 0.98085  0.64888  0.36443  Biso   1.000  O
  O2983    1.0000 0.89657  0.64726  0.37876  Biso   1.000  O
  O2984    1.0000 0.90480  0.62326  0.37795  Biso   1.000  O
  O2985    1.0000 0.93802  0.05067  0.82591  Biso   1.000  O
  O2986    1.0000 0.89622  0.10483  0.86983  Biso   1.000  O
  O2987    1.0000 0.97835  0.55950  0.29993  Biso   1.000  O
  O2988    1.0000 0.96347  0.56128  0.32043  Biso   1.000  O
  O2989    1.0000 0.00729  0.63257  0.32532  Biso   1.000  O
  O2990    1.0000 0.99129  0.62960  0.34493  Biso   1.000  O
  O2991    1.0000 0.39441  0.82580  0.41415  Biso   1.000  O
  O2992    1.0000 0.92685  0.02929  0.80753  Biso   1.000  O
  O2993    1.0000 0.91376  0.94951  0.81736  Biso   1.000  O
  O2994    1.0000 0.02571  0.93770  0.78145  Biso   1.000  O
  O2995    1.0000 0.03961  0.95496  0.76944  Biso   1.000  O
  O2996    1.0000 0.17092  0.27212  0.42194  Biso   1.000  O
  O2997    1.0000 0.16592  0.25326  0.43818  Biso   1.000  O
  O2998    1.0000 0.16565  0.35666  0.47586  Biso   1.000  O
  O2999    1.0000 0.14067  0.35513  0.48052  Biso   1.000  O
  O3000    1.0000 0.14510  0.36891  0.39714  Biso   1.000  O
  O3001    1.0000 0.12905  0.38692  0.40484  Biso   1.000  O
  O3002    1.0000 0.55886  0.82405  0.44433  Biso   1.000  O
  O3003    1.0000 0.59692  0.87542  0.39110  Biso   1.000  O
  O3004    1.0000 0.06788  0.29294  0.46777  Biso   1.000  O
  O3005    1.0000 0.05735  0.31568  0.47175  Biso   1.000  O
  O3006    1.0000 0.13729  0.31960  0.49976  Biso   1.000  O
  O3007    1.0000 0.12653  0.34226  0.50322  Biso   1.000  O
  O3008    1.0000 0.39377  0.32477  0.91300  Biso   1.000  O
  O3009    1.0000 0.92696  0.52793  0.30815  Biso   1.000  O
  O3010    1.0000 0.90802  0.45022  0.32622  Biso   1.000  O
  O3011    1.0000 0.02530  0.43620  0.28312  Biso   1.000  O
  O3012    1.0000 0.03879  0.45340  0.27029  Biso   1.000  O
  O3013    1.0000 0.17783  0.76517  0.92600  Biso   1.000  O
  O3014    1.0000 0.15666  0.75670  0.93724  Biso   1.000  O
  O3015    1.0000 0.16633  0.85631  0.97393  Biso   1.000  O
  O3016    1.0000 0.14141  0.85426  0.97884  Biso   1.000  O
  O3017    1.0000 0.14540  0.86978  0.89556  Biso   1.000  O
  O3018    1.0000 0.12918  0.88755  0.90350  Biso   1.000  O
  O3019    1.0000 0.55860  0.32239  0.94317  Biso   1.000  O
  O3020    1.0000 0.60553  0.37013  0.89786  Biso   1.000  O
  O3021    1.0000 0.06805  0.79220  0.96862  Biso   1.000  O
  O3022    1.0000 0.05848  0.81554  0.97205  Biso   1.000  O
  O3023    1.0000 0.13896  0.81885  0.99913  Biso   1.000  O
  O3024    1.0000 0.89513  0.82603  0.91265  Biso   1.000  O
  O3025    1.0000 0.42763  0.02876  0.30861  Biso   1.000  O
  O3026    1.0000 0.41475  0.94842  0.31628  Biso   1.000  O
  O3027    1.0000 0.52654  0.93666  0.28084  Biso   1.000  O
  O3028    1.0000 0.53990  0.95476  0.26912  Biso   1.000  O
  O3029    1.0000 0.67748  0.26603  0.92549  Biso   1.000  O
  O3030    1.0000 0.65639  0.25692  0.93651  Biso   1.000  O
  O3031    1.0000 0.66320  0.34673  0.97127  Biso   1.000  O
  O3032    1.0000 0.64612  0.36314  0.98045  Biso   1.000  O
  O3033    1.0000 0.64515  0.36923  0.89557  Biso   1.000  O
  O3034    1.0000 0.62898  0.38696  0.90367  Biso   1.000  O
  O3035    1.0000 0.05978  0.82273  0.94348  Biso   1.000  O
  O3036    1.0000 0.10566  0.87111  0.89776  Biso   1.000  O
  O3037    1.0000 0.56784  0.29275  0.96854  Biso   1.000  O
  O3038    1.0000 0.55715  0.31556  0.97180  Biso   1.000  O
  O3039    1.0000 0.63319  0.32402  0.00870  Biso   1.000  O
  O3040    1.0000 0.62865  0.34268  0.99200  Biso   1.000  O
  O3041    1.0000 0.89329  0.32464  0.41265  Biso   1.000  O
  O3042    1.0000 0.42663  0.52756  0.80734  Biso   1.000  O
  O3043    1.0000 0.40771  0.44983  0.82670  Biso   1.000  O
  O3044    1.0000 0.52595  0.43535  0.78109  Biso   1.000  O
  O3045    1.0000 0.53898  0.45358  0.76929  Biso   1.000  O
  O3046    1.0000 0.67745  0.76602  0.42628  Biso   1.000  O
  O3047    1.0000 0.65654  0.75697  0.43753  Biso   1.000  O
  O3048    1.0000 0.66448  0.84677  0.47147  Biso   1.000  O
  O3049    1.0000 0.64798  0.86370  0.48062  Biso   1.000  O
  O3050    1.0000 0.64619  0.88102  0.39692  Biso   1.000  O
  O3051    1.0000 0.62228  0.87974  0.40523  Biso   1.000  O
  O3052    1.0000 0.05847  0.32275  0.44320  Biso   1.000  O
  O3053    1.0000 0.10554  0.37033  0.39869  Biso   1.000  O
  O3054    1.0000 0.56804  0.79373  0.46974  Biso   1.000  O
  O3055    1.0000 0.55767  0.81679  0.47285  Biso   1.000  O
  O3056    1.0000 0.63416  0.82461  0.50872  Biso   1.000  O
  O3057    1.0000 0.62999  0.84342  0.49200  Biso   1.000  O
  O3058    1.0000 0.35109  0.31404  0.84103  Biso   1.000  O
  O3059    1.0000 0.82256  0.52778  0.43963  Biso   1.000  O
  O3060    1.0000 0.83366  0.44761  0.43171  Biso   1.000  O
  O3061    1.0000 0.72350  0.43787  0.47012  Biso   1.000  O
  O3062    1.0000 0.71065  0.45595  0.48210  Biso   1.000  O
  O3063    1.0000 0.57939  0.77162  0.82811  Biso   1.000  O
  O3064    1.0000 0.58536  0.75296  0.81183  Biso   1.000  O
  O3065    1.0000 0.58448  0.85700  0.77660  Biso   1.000  O
  O3066    1.0000 0.60940  0.85560  0.77144  Biso   1.000  O
  O3067    1.0000 0.60430  0.87864  0.85418  Biso   1.000  O
  O3068    1.0000 0.62833  0.87809  0.84622  Biso   1.000  O
  O3069    1.0000 0.19056  0.32316  0.80630  Biso   1.000  O
  O3070    1.0000 0.14472  0.37150  0.85268  Biso   1.000  O
  O3071    1.0000 0.68383  0.79428  0.77980  Biso   1.000  O
  O3072    1.0000 0.69403  0.81748  0.77782  Biso   1.000  O
  O3073    1.0000 0.61268  0.82063  0.75191  Biso   1.000  O
  O3074    1.0000 0.62330  0.84330  0.74820  Biso   1.000  O
  O3075    1.0000 0.35716  0.82509  0.33949  Biso   1.000  O
  O3076    1.0000 0.82244  0.02762  0.94086  Biso   1.000  O
  O3077    1.0000 0.83248  0.94729  0.93369  Biso   1.000  O
  O3078    1.0000 0.72380  0.93697  0.96965  Biso   1.000  O
  O3079    1.0000 0.71042  0.95452  0.98187  Biso   1.000  O
  O3080    1.0000 0.57252  0.26577  0.32489  Biso   1.000  O
  O3081    1.0000 0.59383  0.25766  0.31364  Biso   1.000  O
  O3082    1.0000 0.58491  0.35779  0.27706  Biso   1.000  O
  O3083    1.0000 0.60967  0.35470  0.27177  Biso   1.000  O
  O3084    1.0000 0.60583  0.38080  0.35356  Biso   1.000  O
  O3085    1.0000 0.63004  0.37891  0.34655  Biso   1.000  O
  O3086    1.0000 0.19226  0.82450  0.30656  Biso   1.000  O
  O3087    1.0000 0.15341  0.87532  0.36013  Biso   1.000  O
  O3088    1.0000 0.68259  0.29414  0.28128  Biso   1.000  O
  O3089    1.0000 0.69224  0.31750  0.27815  Biso   1.000  O
  O3090    1.0000 0.61129  0.31972  0.25170  Biso   1.000  O
  O3091    1.0000 0.62267  0.34207  0.24827  Biso   1.000  O
  O3092    1.0000 0.85721  0.32420  0.33721  Biso   1.000  O
  O3093    1.0000 0.32343  0.52802  0.94180  Biso   1.000  O
  O3094    1.0000 0.34117  0.44965  0.92676  Biso   1.000  O
  O3095    1.0000 0.22464  0.43634  0.96870  Biso   1.000  O
  O3096    1.0000 0.21173  0.45387  0.98160  Biso   1.000  O
  O3097    1.0000 0.07858  0.77217  0.32816  Biso   1.000  O
  O3098    1.0000 0.08482  0.75357  0.31192  Biso   1.000  O
  O3099    1.0000 0.08513  0.85724  0.27582  Biso   1.000  O
  O3100    1.0000 0.11003  0.85453  0.27110  Biso   1.000  O
  O3101    1.0000 0.10413  0.87965  0.35334  Biso   1.000  O
  O3102    1.0000 0.12826  0.87925  0.34565  Biso   1.000  O
  O3103    1.0000 0.69157  0.32434  0.30692  Biso   1.000  O
  O3104    1.0000 0.65444  0.37394  0.36156  Biso   1.000  O
  O3105    1.0000 0.18348  0.79402  0.28051  Biso   1.000  O
  O3106    1.0000 0.19321  0.81740  0.27797  Biso   1.000  O
  O3107    1.0000 0.11222  0.81945  0.25101  Biso   1.000  O
  O3108    1.0000 0.12348  0.84191  0.24766  Biso   1.000  O
  O3109    1.0000 0.85721  0.82532  0.83837  Biso   1.000  O
  O3110    1.0000 0.32254  0.02780  0.44078  Biso   1.000  O
  O3111    1.0000 0.33340  0.94825  0.43157  Biso   1.000  O
  O3112    1.0000 0.22376  0.93663  0.46962  Biso   1.000  O
  O3113    1.0000 0.21110  0.95461  0.48220  Biso   1.000  O
  O3114    1.0000 0.07131  0.26602  0.82423  Biso   1.000  O
  O3115    1.0000 0.09241  0.25759  0.81285  Biso   1.000  O
  O3116    1.0000 0.08429  0.35757  0.77651  Biso   1.000  O
  O3117    1.0000 0.10911  0.35413  0.77197  Biso   1.000  O
  O3118    1.0000 0.10493  0.37081  0.85467  Biso   1.000  O
  O3119    1.0000 0.12154  0.38829  0.84688  Biso   1.000  O
  O3120    1.0000 0.69244  0.82375  0.80657  Biso   1.000  O
  O3121    1.0000 0.65365  0.87415  0.86038  Biso   1.000  O
  O3122    1.0000 0.18187  0.29258  0.78084  Biso   1.000  O
  O3123    1.0000 0.19169  0.31582  0.77775  Biso   1.000  O
  O3124    1.0000 0.11052  0.31920  0.75149  Biso   1.000  O
  O3125    1.0000 0.12230  0.34142  0.74846  Biso   1.000  O
  O3126    1.0000 0.85196  0.93735  0.91226  Biso   1.000  O
  O3127    1.0000 0.31911  0.72805  0.29997  Biso   1.000  O
  O3128    1.0000 0.34264  0.80072  0.32752  Biso   1.000  O
  O3129    1.0000 0.22380  0.81382  0.28061  Biso   1.000  O
  O3130    1.0000 0.21161  0.79502  0.26887  Biso   1.000  O
  O3131    1.0000 0.07837  0.47817  0.92270  Biso   1.000  O
  O3132    1.0000 0.08419  0.49687  0.93900  Biso   1.000  O
  O3133    1.0000 0.08599  0.40248  0.97208  Biso   1.000  O
  O3134    1.0000 0.10235  0.38525  0.98085  Biso   1.000  O
  O3135    1.0000 0.10509  0.38173  0.89546  Biso   1.000  O
  O3136    1.0000 0.12090  0.36341  0.90291  Biso   1.000  O
  O3137    1.0000 0.69202  0.92538  0.94410  Biso   1.000  O
  O3138    1.0000 0.65352  0.87505  0.89085  Biso   1.000  O
  O3139    1.0000 0.18348  0.45467  0.97039  Biso   1.000  O
  O3140    1.0000 0.19429  0.43167  0.97209  Biso   1.000  O
  O3141    1.0000 0.11750  0.42473  0.00752  Biso   1.000  O
  O3142    1.0000 0.12071  0.40547  0.99116  Biso   1.000  O
  O3143    1.0000 0.85127  0.43654  0.40928  Biso   1.000  O
  O3144    1.0000 0.32258  0.22274  0.81133  Biso   1.000  O
  O3145    1.0000 0.33279  0.30221  0.81963  Biso   1.000  O
  O3146    1.0000 0.22237  0.31261  0.78055  Biso   1.000  O
  O3147    1.0000 0.21009  0.29378  0.76898  Biso   1.000  O
  O3148    1.0000 0.07272  0.98466  0.42606  Biso   1.000  O
  O3149    1.0000 0.09395  0.99338  0.43690  Biso   1.000  O
  O3150    1.0000 0.08550  0.90208  0.47058  Biso   1.000  O
  O3151    1.0000 0.10174  0.88498  0.47976  Biso   1.000  O
  O3152    1.0000 0.10370  0.86945  0.39549  Biso   1.000  O
  O3153    1.0000 0.12751  0.87097  0.40421  Biso   1.000  O
  O3154    1.0000 0.69143  0.42588  0.44533  Biso   1.000  O
  O3155    1.0000 0.65325  0.37486  0.39203  Biso   1.000  O
  O3156    1.0000 0.18279  0.95562  0.47071  Biso   1.000  O
  O3157    1.0000 0.19341  0.93261  0.47308  Biso   1.000  O
  O3158    1.0000 0.11649  0.92415  0.50717  Biso   1.000  O
  O3159    1.0000 0.11980  0.90543  0.49029  Biso   1.000  O
  O3160    1.0000 0.35167  0.93730  0.40965  Biso   1.000  O
  O3161    1.0000 0.81952  0.72757  0.79964  Biso   1.000  O
  O3162    1.0000 0.84279  0.80086  0.82622  Biso   1.000  O
  O3163    1.0000 0.72457  0.81340  0.78126  Biso   1.000  O
  O3164    1.0000 0.71214  0.79550  0.76846  Biso   1.000  O
  O3165    1.0000 0.57872  0.47770  0.42267  Biso   1.000  O
  O3166    1.0000 0.58300  0.49744  0.43798  Biso   1.000  O
  O3167    1.0000 0.58521  0.40279  0.47109  Biso   1.000  O
  O3168    1.0000 0.60238  0.38656  0.48020  Biso   1.000  O
  O3169    1.0000 0.60365  0.37069  0.39570  Biso   1.000  O
  O3170    1.0000 0.62728  0.37112  0.40503  Biso   1.000  O
  O3171    1.0000 0.19142  0.92611  0.44432  Biso   1.000  O
  O3172    1.0000 0.15291  0.87619  0.39056  Biso   1.000  O
  O3173    1.0000 0.68239  0.45621  0.47072  Biso   1.000  O
  O3174    1.0000 0.69319  0.43338  0.47384  Biso   1.000  O
  O3175    1.0000 0.61572  0.42575  0.50830  Biso   1.000  O
  O3176    1.0000 0.61990  0.40750  0.49105  Biso   1.000  O
  O3177    1.0000 0.35731  0.42641  0.91468  Biso   1.000  O
  O3178    1.0000 0.82360  0.22211  0.30935  Biso   1.000  O
  O3179    1.0000 0.84172  0.30029  0.32569  Biso   1.000  O
  O3180    1.0000 0.72299  0.31427  0.28045  Biso   1.000  O
  O3181    1.0000 0.71053  0.29563  0.26879  Biso   1.000  O
  O3182    1.0000 0.57260  0.98396  0.92565  Biso   1.000  O
  O3183    1.0000 0.59415  0.99258  0.93600  Biso   1.000  O
  O3184    1.0000 0.58611  0.90153  0.97067  Biso   1.000  O
  O3185    1.0000 0.60170  0.88410  0.98042  Biso   1.000  O
  O3186    1.0000 0.60438  0.86823  0.89625  Biso   1.000  O
  O3187    1.0000 0.62823  0.86987  0.90478  Biso   1.000  O
  O3188    1.0000 0.19257  0.42585  0.94319  Biso   1.000  O
  O3189    1.0000 0.14512  0.37913  0.89723  Biso   1.000  O
  O3190    1.0000 0.68235  0.95498  0.96984  Biso   1.000  O
  O3191    1.0000 0.69344  0.93227  0.97278  Biso   1.000  O
  O3192    1.0000 0.61674  0.92349  0.00714  Biso   1.000  O
  O3193    1.0000 0.62034  0.90395  0.99118  Biso   1.000  O
  O3194    1.0000 0.89252  0.42589  0.33632  Biso   1.000  O
  O3195    1.0000 0.42708  0.22265  0.94008  Biso   1.000  O
  O3196    1.0000 0.40967  0.30069  0.92396  Biso   1.000  O
  O3197    1.0000 0.52690  0.31182  0.96899  Biso   1.000  O
  O3198    1.0000 0.53946  0.29314  0.98054  Biso   1.000  O
  O3199    1.0000 0.67817  0.98427  0.32360  Biso   1.000  O
  O3200    1.0000 0.65672  0.99255  0.31282  Biso   1.000  O
  O3201    1.0000 0.66500  0.90180  0.27982  Biso   1.000  O
  O3202    1.0000 0.64863  0.88465  0.27101  Biso   1.000  O
  O3203    1.0000 0.64604  0.87025  0.35499  Biso   1.000  O
  O3204    1.0000 0.62210  0.87132  0.34670  Biso   1.000  O
  O3205    1.0000 0.05719  0.42468  0.30823  Biso   1.000  O
  O3206    1.0000 0.10559  0.37923  0.35425  Biso   1.000  O
  O3207    1.0000 0.56793  0.95461  0.28120  Biso   1.000  O
  O3208    1.0000 0.55684  0.93185  0.27833  Biso   1.000  O
  O3209    1.0000 0.63371  0.92349  0.24329  Biso   1.000  O
  O3210    1.0000 0.63045  0.90495  0.26044  Biso   1.000  O
  O3211    1.0000 0.89617  0.93883  0.84018  Biso   1.000  O
  O3212    1.0000 0.42754  0.72371  0.44017  Biso   1.000  O
  O3213    1.0000 0.41041  0.80239  0.42608  Biso   1.000  O
  O3214    1.0000 0.52724  0.81330  0.46996  Biso   1.000  O
  O3215    1.0000 0.53987  0.79477  0.48171  Biso   1.000  O
  O3216    1.0000 0.67760  0.48394  0.82388  Biso   1.000  O
  O3217    1.0000 0.65599  0.49216  0.81336  Biso   1.000  O
  O3218    1.0000 0.66448  0.40317  0.77872  Biso   1.000  O
  O3219    1.0000 0.64849  0.38565  0.77021  Biso   1.000  O
  O3220    1.0000 0.64510  0.38126  0.85521  Biso   1.000  O
  O3221    1.0000 0.62895  0.36343  0.84697  Biso   1.000  O
  O3222    1.0000 0.05687  0.92546  0.80727  Biso   1.000  O
  O3223    1.0000 0.10491  0.87926  0.85330  Biso   1.000  O
  O3224    1.0000 0.56723  0.45348  0.78171  Biso   1.000  O
  O3225    1.0000 0.55600  0.43108  0.77826  Biso   1.000  O
  O3226    1.0000 0.63342  0.42475  0.74255  Biso   1.000  O
  O3227    1.0000 0.63039  0.40598  0.75949  Biso   1.000  O
  O3228    1.0000 0.39224  0.42636  0.83882  Biso   1.000  O
  O3229    1.0000 0.92703  0.22300  0.43959  Biso   1.000  O
  O3230    1.0000 0.90938  0.30107  0.42410  Biso   1.000  O
  O3231    1.0000 0.02704  0.31201  0.46915  Biso   1.000  O
  O3232    1.0000 0.03966  0.29313  0.48029  Biso   1.000  O
  O3233    1.0000 0.17206  0.97748  0.82939  Biso   1.000  O
  O3234    1.0000 0.16699  0.99542  0.81220  Biso   1.000  O
  O3235    1.0000 0.16576  0.89165  0.77558  Biso   1.000  O
  O3236    1.0000 0.14083  0.89371  0.77101  Biso   1.000  O
  O3237    1.0000 0.14503  0.88128  0.85486  Biso   1.000  O
  O3238    1.0000 0.12884  0.86328  0.84719  Biso   1.000  O
  O3239    1.0000 0.55724  0.42436  0.80709  Biso   1.000  O
  O3240    1.0000 0.60486  0.37883  0.85347  Biso   1.000  O
  O3241    1.0000 0.06752  0.95489  0.78226  Biso   1.000  O
  O3242    1.0000 0.05609  0.93254  0.77867  Biso   1.000  O
  O3243    1.0000 0.13741  0.92890  0.75180  Biso   1.000  O
  O3244    1.0000 0.12681  0.90623  0.74810  Biso   1.000  O
  O3245    1.0000 0.39651  0.93817  0.33871  Biso   1.000  O
  O3246    1.0000 0.92713  0.72396  0.93909  Biso   1.000  O
  O3247    1.0000 0.91094  0.80247  0.92414  Biso   1.000  O
  O3248    1.0000 0.02783  0.81289  0.96893  Biso   1.000  O
  O3249    1.0000 0.03984  0.79432  0.98105  Biso   1.000  O
  O3250    1.0000 0.17814  0.48385  0.32416  Biso   1.000  O
  O3251    1.0000 0.15651  0.49237  0.31395  Biso   1.000  O
  O3252    1.0000 0.16432  0.40293  0.27978  Biso   1.000  O
  O3253    1.0000 0.14829  0.38536  0.27140  Biso   1.000  O
  O3254    1.0000 0.14582  0.38063  0.35654  Biso   1.000  O
  O3255    1.0000 0.12940  0.36312  0.34824  Biso   1.000  O
  O3256    1.0000 0.55765  0.92511  0.30705  Biso   1.000  O
  O3257    1.0000 0.59688  0.87599  0.36077  Biso   1.000  O
  O3258    1.0000 0.06722  0.45321  0.28198  Biso   1.000  O
  O3259    1.0000 0.05543  0.43091  0.27941  Biso   1.000  O
  O3260    1.0000 0.13315  0.42419  0.24344  Biso   1.000  O
  O3261    1.0000 0.13012  0.40549  0.26043  Biso   1.000  O
  O3262    1.0000 0.32412  0.83766  0.35672  Biso   1.000  O
  O3263    1.0000 0.52093  0.44871  0.81794  Biso   1.000  O
  O3264    1.0000 0.44799  0.42377  0.83999  Biso   1.000  O
  O3265    1.0000 0.43692  0.47672  0.71488  Biso   1.000  O
  O3266    1.0000 0.46203  0.47526  0.71863  Biso   1.000  O
  O3267    1.0000 0.76480  0.82464  0.57383  Biso   1.000  O
  O3268    1.0000 0.75628  0.81394  0.59524  Biso   1.000  O
  O3269    1.0000 0.85660  0.77637  0.58413  Biso   1.000  O
  O3270    1.0000 0.85530  0.77076  0.60898  Biso   1.000  O
  O3271    1.0000 0.88035  0.85394  0.60409  Biso   1.000  O
  O3272    1.0000 0.87855  0.84595  0.62799  Biso   1.000  O
  O3273    1.0000 0.32546  0.80509  0.19171  Biso   1.000  O
  O3274    1.0000 0.37555  0.85894  0.15307  Biso   1.000  O
  O3275    1.0000 0.79833  0.77170  0.68974  Biso   1.000  O
  O3276    1.0000 0.81961  0.78540  0.68725  Biso   1.000  O
  O3277    1.0000 0.81994  0.75104  0.61215  Biso   1.000  O
  O3278    1.0000 0.84286  0.74729  0.62232  Biso   1.000  O
  O3279    1.0000 0.31142  0.34142  0.85301  Biso   1.000  O
  O3280    1.0000 0.52229  0.95102  0.31788  Biso   1.000  O
  O3281    1.0000 0.44689  0.93475  0.33496  Biso   1.000  O
  O3282    1.0000 0.43728  0.96806  0.22449  Biso   1.000  O
  O3283    1.0000 0.45487  0.98109  0.21187  Biso   1.000  O
  O3284    1.0000 0.76521  0.32449  0.07213  Biso   1.000  O
  O3285    1.0000 0.75635  0.31282  0.09285  Biso   1.000  O
  O3286    1.0000 0.84692  0.27938  0.08531  Biso   1.000  O
  O3287    1.0000 0.86339  0.27021  0.10228  Biso   1.000  O
  O3288    1.0000 0.87938  0.35481  0.10382  Biso   1.000  O
  O3289    1.0000 0.87775  0.34604  0.12750  Biso   1.000  O
  O3290    1.0000 0.32624  0.30992  0.70100  Biso   1.000  O
  O3291    1.0000 0.37283  0.35922  0.65338  Biso   1.000  O
  O3292    1.0000 0.79859  0.27055  0.19016  Biso   1.000  O
  O3293    1.0000 0.81875  0.28541  0.18695  Biso   1.000  O
  O3294    1.0000 0.82430  0.24185  0.11543  Biso   1.000  O
  O3295    1.0000 0.84281  0.25876  0.11950  Biso   1.000  O
  O3296    1.0000 0.82432  0.83744  0.85604  Biso   1.000  O
  O3297    1.0000 0.02263  0.45072  0.32028  Biso   1.000  O
  O3298    1.0000 0.94793  0.42497  0.34209  Biso   1.000  O
  O3299    1.0000 0.93753  0.47736  0.21452  Biso   1.000  O
  O3300    1.0000 0.96246  0.47570  0.21900  Biso   1.000  O
  O3301    1.0000 0.26638  0.82484  0.07291  Biso   1.000  O
  O3302    1.0000 0.25812  0.81527  0.09495  Biso   1.000  O
  O3303    1.0000 0.34732  0.77918  0.08651  Biso   1.000  O
  O3304    1.0000 0.36370  0.76957  0.10329  Biso   1.000  O
  O3305    1.0000 0.38131  0.85403  0.10382  Biso   1.000  O
  O3306    1.0000 0.37991  0.84527  0.12753  Biso   1.000  O
  O3307    1.0000 0.82801  0.81064  0.69955  Biso   1.000  O
  O3308    1.0000 0.87457  0.86027  0.65321  Biso   1.000  O
  O3309    1.0000 0.29391  0.78120  0.18197  Biso   1.000  O
  O3310    1.0000 0.31663  0.77677  0.19254  Biso   1.000  O
  O3311    1.0000 0.32403  0.74158  0.11575  Biso   1.000  O
  O3312    1.0000 0.34290  0.75806  0.12062  Biso   1.000  O
  O3313    1.0000 0.82494  0.33770  0.35546  Biso   1.000  O
  O3314    1.0000 0.02191  0.95140  0.81868  Biso   1.000  O
  O3315    1.0000 0.94616  0.93539  0.83421  Biso   1.000  O
  O3316    1.0000 0.93524  0.97694  0.71436  Biso   1.000  O
  O3317    1.0000 0.96008  0.97628  0.71924  Biso   1.000  O
  O3318    1.0000 0.26457  0.32503  0.57380  Biso   1.000  O
  O3319    1.0000 0.25605  0.31410  0.59514  Biso   1.000  O
  O3320    1.0000 0.34636  0.27974  0.58546  Biso   1.000  O
  O3321    1.0000 0.36316  0.27022  0.60190  Biso   1.000  O
  O3322    1.0000 0.37868  0.35505  0.60409  Biso   1.000  O
  O3323    1.0000 0.37717  0.34585  0.62764  Biso   1.000  O
  O3324    1.0000 0.82661  0.31084  0.19917  Biso   1.000  O
  O3325    1.0000 0.87361  0.35996  0.15310  Biso   1.000  O
  O3326    1.0000 0.29845  0.26988  0.68982  Biso   1.000  O
  O3327    1.0000 0.31912  0.28450  0.68827  Biso   1.000  O
  O3328    1.0000 0.32387  0.24243  0.61567  Biso   1.000  O
  O3329    1.0000 0.34286  0.25891  0.61975  Biso   1.000  O
  O3330    1.0000 0.81112  0.40998  0.39728  Biso   1.000  O
  O3331    1.0000 0.02302  0.80001  0.93133  Biso   1.000  O
  O3332    1.0000 0.95089  0.82822  0.90984  Biso   1.000  O
  O3333    1.0000 0.93610  0.77409  0.03393  Biso   1.000  O
  O3334    1.0000 0.96129  0.77445  0.03010  Biso   1.000  O
  O3335    1.0000 0.27235  0.42031  0.17226  Biso   1.000  O
  O3336    1.0000 0.25342  0.43661  0.16775  Biso   1.000  O
  O3337    1.0000 0.35676  0.47399  0.16723  Biso   1.000  O
  O3338    1.0000 0.35442  0.47845  0.14230  Biso   1.000  O
  O3339    1.0000 0.37848  0.39600  0.14623  Biso   1.000  O
  O3340    1.0000 0.37834  0.40422  0.12214  Biso   1.000  O
  O3341    1.0000 0.82738  0.43958  0.54913  Biso   1.000  O
  O3342    1.0000 0.87467  0.38983  0.59563  Biso   1.000  O
  O3343    1.0000 0.29835  0.47847  0.05987  Biso   1.000  O
  O3344    1.0000 0.31880  0.46392  0.06262  Biso   1.000  O
  O3345    1.0000 0.31998  0.49796  0.13826  Biso   1.000  O
  O3346    1.0000 0.34279  0.50164  0.12801  Biso   1.000  O
  O3347    1.0000 0.81344  0.90986  0.89662  Biso   1.000  O
  O3348    1.0000 0.02221  0.29887  0.43139  Biso   1.000  O
  O3349    1.0000 0.94900  0.32732  0.40929  Biso   1.000  O
  O3350    1.0000 0.93685  0.27311  0.53475  Biso   1.000  O
  O3351    1.0000 0.96203  0.27402  0.53104  Biso   1.000  O
  O3352    1.0000 0.27242  0.92083  0.67275  Biso   1.000  O
  O3353    1.0000 0.25365  0.93711  0.66719  Biso   1.000  O
  O3354    1.0000 0.34756  0.97167  0.66492  Biso   1.000  O
  O3355    1.0000 0.36503  0.98109  0.64923  Biso   1.000  O
  O3356    1.0000 0.36883  0.89530  0.64518  Biso   1.000  O
  O3357    1.0000 0.38612  0.90378  0.62874  Biso   1.000  O
  O3358    1.0000 0.82668  0.93733  0.04933  Biso   1.000  O
  O3359    1.0000 0.87451  0.89119  0.09784  Biso   1.000  O
  O3360    1.0000 0.29919  0.97909  0.55991  Biso   1.000  O
  O3361    1.0000 0.31950  0.96432  0.56214  Biso   1.000  O
  O3362    1.0000 0.32505  0.00732  0.63408  Biso   1.000  O
  O3363    1.0000 0.34464  0.99130  0.63056  Biso   1.000  O
  O3364    1.0000 0.32557  0.41318  0.89474  Biso   1.000  O
  O3365    1.0000 0.52272  0.80017  0.43246  Biso   1.000  O
  O3366    1.0000 0.45011  0.82809  0.41087  Biso   1.000  O
  O3367    1.0000 0.43737  0.78178  0.52648  Biso   1.000  O
  O3368    1.0000 0.45565  0.76918  0.53866  Biso   1.000  O
  O3369    1.0000 0.77196  0.42031  0.67068  Biso   1.000  O
  O3370    1.0000 0.75308  0.43673  0.66643  Biso   1.000  O
  O3371    1.0000 0.85678  0.47423  0.66590  Biso   1.000  O
  O3372    1.0000 0.85469  0.47919  0.64110  Biso   1.000  O
  O3373    1.0000 0.87761  0.39628  0.64495  Biso   1.000  O
  O3374    1.0000 0.87792  0.40440  0.62082  Biso   1.000  O
  O3375    1.0000 0.32672  0.43850  0.05020  Biso   1.000  O
  O3376    1.0000 0.37469  0.38982  0.09691  Biso   1.000  O
  O3377    1.0000 0.79886  0.47934  0.55915  Biso   1.000  O
  O3378    1.0000 0.81942  0.46493  0.56178  Biso   1.000  O
  O3379    1.0000 0.81989  0.49898  0.63749  Biso   1.000  O
  O3380    1.0000 0.84286  0.50264  0.62742  Biso   1.000  O
  O3381    1.0000 0.31212  0.91003  0.39688  Biso   1.000  O
  O3382    1.0000 0.52241  0.29839  0.93140  Biso   1.000  O
  O3383    1.0000 0.44921  0.32676  0.90882  Biso   1.000  O
  O3384    1.0000 0.43665  0.27338  0.03503  Biso   1.000  O
  O3385    1.0000 0.46180  0.27428  0.03109  Biso   1.000  O
  O3386    1.0000 0.76660  0.92517  0.17824  Biso   1.000  O
  O3387    1.0000 0.75746  0.93666  0.15742  Biso   1.000  O
  O3388    1.0000 0.84720  0.97127  0.16546  Biso   1.000  O
  O3389    1.0000 0.86420  0.98023  0.14899  Biso   1.000  O
  O3390    1.0000 0.87962  0.89558  0.14729  Biso   1.000  O
  O3391    1.0000 0.87770  0.90464  0.12374  Biso   1.000  O
  O3392    1.0000 0.32712  0.93902  0.54935  Biso   1.000  O
  O3393    1.0000 0.37073  0.89725  0.60469  Biso   1.000  O
  O3394    1.0000 0.79949  0.97795  0.05978  Biso   1.000  O
  O3395    1.0000 0.81994  0.96314  0.06150  Biso   1.000  O
  O3396    1.0000 0.82498  0.00709  0.13355  Biso   1.000  O
  O3397    1.0000 0.84380  0.99026  0.13074  Biso   1.000  O
  O3398    1.0000 0.42521  0.33853  0.89408  Biso   1.000  O
  O3399    1.0000 0.22701  0.95074  0.43203  Biso   1.000  O
  O3400    1.0000 0.30145  0.93282  0.41395  Biso   1.000  O
  O3401    1.0000 0.31411  0.97716  0.53458  Biso   1.000  O
  O3402    1.0000 0.28896  0.97618  0.53107  Biso   1.000  O
  O3403    1.0000 0.98387  0.32552  0.67824  Biso   1.000  O
  O3404    1.0000 0.99153  0.31449  0.65681  Biso   1.000  O
  O3405    1.0000 0.89200  0.27604  0.66557  Biso   1.000  O
  O3406    1.0000 0.89371  0.27059  0.64070  Biso   1.000  O
  O3407    1.0000 0.86892  0.35376  0.64456  Biso   1.000  O
  O3408    1.0000 0.87179  0.34567  0.62075  Biso   1.000  O
  O3409    1.0000 0.42414  0.31153  0.05015  Biso   1.000  O
  O3410    1.0000 0.37649  0.36013  0.09676  Biso   1.000  O
  O3411    1.0000 0.95247  0.27160  0.56005  Biso   1.000  O
  O3412    1.0000 0.93190  0.28607  0.56245  Biso   1.000  O
  O3413    1.0000 0.92913  0.25150  0.63755  Biso   1.000  O
  O3414    1.0000 0.90640  0.24750  0.62712  Biso   1.000  O
  O3415    1.0000 0.42610  0.83951  0.39530  Biso   1.000  O
  O3416    1.0000 0.22763  0.45158  0.93174  Biso   1.000  O
  O3417    1.0000 0.30167  0.42443  0.90993  Biso   1.000  O
  O3418    1.0000 0.31371  0.47637  0.03471  Biso   1.000  O
  O3419    1.0000 0.28854  0.47541  0.03098  Biso   1.000  O
  O3420    1.0000 0.98548  0.82473  0.17743  Biso   1.000  O
  O3421    1.0000 0.99326  0.81347  0.15616  Biso   1.000  O
  O3422    1.0000 0.89357  0.77521  0.16548  Biso   1.000  O
  O3423    1.0000 0.89514  0.77018  0.14051  Biso   1.000  O
  O3424    1.0000 0.87067  0.85327  0.14588  Biso   1.000  O
  O3425    1.0000 0.87365  0.84573  0.12202  Biso   1.000  O
  O3426    1.0000 0.42739  0.80667  0.55918  Biso   1.000  O
  O3427    1.0000 0.37949  0.85299  0.60495  Biso   1.000  O
  O3428    1.0000 0.95192  0.77187  0.05910  Biso   1.000  O
  O3429    1.0000 0.93167  0.78670  0.06194  Biso   1.000  O
  O3430    1.0000 0.93012  0.75084  0.13672  Biso   1.000  O
  O3431    1.0000 0.90728  0.74699  0.12656  Biso   1.000  O
  O3432    1.0000 0.92520  0.33892  0.39415  Biso   1.000  O
  O3433    1.0000 0.72738  0.95041  0.93194  Biso   1.000  O
  O3434    1.0000 0.80183  0.93200  0.91381  Biso   1.000  O
  O3435    1.0000 0.81458  0.97570  0.03386  Biso   1.000  O
  O3436    1.0000 0.78932  0.97547  0.03089  Biso   1.000  O
  O3437    1.0000 0.48469  0.32506  0.17831  Biso   1.000  O
  O3438    1.0000 0.49249  0.31373  0.15709  Biso   1.000  O
  O3439    1.0000 0.39265  0.27551  0.16601  Biso   1.000  O
  O3440    1.0000 0.39429  0.27026  0.14110  Biso   1.000  O
  O3441    1.0000 0.36989  0.35347  0.14574  Biso   1.000  O
  O3442    1.0000 0.37241  0.34552  0.12186  Biso   1.000  O
  O3443    1.0000 0.92415  0.31127  0.54977  Biso   1.000  O
  O3444    1.0000 0.87631  0.36018  0.59565  Biso   1.000  O
  O3445    1.0000 0.45240  0.27173  0.06015  Biso   1.000  O
  O3446    1.0000 0.43193  0.28629  0.06278  Biso   1.000  O
  O3447    1.0000 0.42959  0.25111  0.13767  Biso   1.000  O
  O3448    1.0000 0.40683  0.24718  0.12732  Biso   1.000  O
  O3449    1.0000 0.92739  0.83978  0.89399  Biso   1.000  O
  O3450    1.0000 0.72661  0.45077  0.43230  Biso   1.000  O
  O3451    1.0000 0.80114  0.43266  0.41481  Biso   1.000  O
  O3452    1.0000 0.81404  0.47754  0.53396  Biso   1.000  O
  O3453    1.0000 0.78887  0.47628  0.53035  Biso   1.000  O
  O3454    1.0000 0.47690  0.82852  0.67322  Biso   1.000  O
  O3455    1.0000 0.49604  0.81260  0.66781  Biso   1.000  O
  O3456    1.0000 0.40205  0.77889  0.66397  Biso   1.000  O
  O3457    1.0000 0.38559  0.76973  0.64699  Biso   1.000  O
  O3458    1.0000 0.38106  0.85509  0.64465  Biso   1.000  O
  O3459    1.0000 0.36318  0.84686  0.62876  Biso   1.000  O
  O3460    1.0000 0.92414  0.81234  0.04968  Biso   1.000  O
  O3461    1.0000 0.87770  0.86046  0.09709  Biso   1.000  O
  O3462    1.0000 0.45633  0.78000  0.56736  Biso   1.000  O
  O3463    1.0000 0.43343  0.77791  0.55662  Biso   1.000  O
  O3464    1.0000 0.42537  0.74279  0.63336  Biso   1.000  O
  O3465    1.0000 0.40640  0.75928  0.62945  Biso   1.000  O
  O3466    1.0000 0.93686  0.91290  0.85244  Biso   1.000  O
  O3467    1.0000 0.72763  0.29999  0.31812  Biso   1.000  O
  O3468    1.0000 0.80141  0.32597  0.34004  Biso   1.000  O
  O3469    1.0000 0.81459  0.27274  0.21486  Biso   1.000  O
  O3470    1.0000 0.78961  0.27348  0.21938  Biso   1.000  O
  O3471    1.0000 0.47845  0.92214  0.07784  Biso   1.000  O
  O3472    1.0000 0.49731  0.93817  0.08386  Biso   1.000  O
  O3473    1.0000 0.39291  0.97360  0.08408  Biso   1.000  O
  O3474    1.0000 0.39328  0.97877  0.10908  Biso   1.000  O
  O3475    1.0000 0.37100  0.89606  0.10420  Biso   1.000  O
  O3476    1.0000 0.37192  0.90381  0.12833  Biso   1.000  O
  O3477    1.0000 0.92326  0.93813  0.70072  Biso   1.000  O
  O3478    1.0000 0.87601  0.89021  0.65290  Biso   1.000  O
  O3479    1.0000 0.45563  0.96997  0.18340  Biso   1.000  O
  O3480    1.0000 0.43263  0.97165  0.19418  Biso   1.000  O
  O3481    1.0000 0.42790  0.99765  0.11360  Biso   1.000  O
  O3482    1.0000 0.92408  0.41273  0.35655  Biso   1.000  O
  O3483    1.0000 0.72772  0.79868  0.81849  Biso   1.000  O
  O3484    1.0000 0.80147  0.82490  0.84042  Biso   1.000  O
  O3485    1.0000 0.81469  0.77267  0.71481  Biso   1.000  O
  O3486    1.0000 0.78983  0.77446  0.71928  Biso   1.000  O
  O3487    1.0000 0.48380  0.42493  0.57242  Biso   1.000  O
  O3488    1.0000 0.49256  0.43571  0.59372  Biso   1.000  O
  O3489    1.0000 0.39304  0.47379  0.58400  Biso   1.000  O
  O3490    1.0000 0.39524  0.47863  0.60888  Biso   1.000  O
  O3491    1.0000 0.36877  0.39709  0.60542  Biso   1.000  O
  O3492    1.0000 0.37015  0.40471  0.62957  Biso   1.000  O
  O3493    1.0000 0.92386  0.43910  0.20032  Biso   1.000  O
  O3494    1.0000 0.87543  0.39034  0.15344  Biso   1.000  O
  O3495    1.0000 0.45262  0.47695  0.68945  Biso   1.000  O
  O3496    1.0000 0.43133  0.46332  0.68770  Biso   1.000  O
  O3497    1.0000 0.42943  0.49835  0.61231  Biso   1.000  O
  O3498    1.0000 0.40679  0.50190  0.62294  Biso   1.000  O
  O3499    1.0000 0.43657  0.91265  0.35353  Biso   1.000  O
  O3500    1.0000 0.22644  0.29938  0.81876  Biso   1.000  O
  O3501    1.0000 0.30072  0.31801  0.83673  Biso   1.000  O
  O3502    1.0000 0.31365  0.27148  0.71565  Biso   1.000  O
  O3503    1.0000 0.28845  0.27209  0.71885  Biso   1.000  O
  O3504    1.0000 0.97810  0.92246  0.57831  Biso   1.000  O
  O3505    1.0000 0.99711  0.93832  0.58419  Biso   1.000  O
  O3506    1.0000 0.89353  0.97415  0.58378  Biso   1.000  O
  O3507    1.0000 0.89479  0.97877  0.60879  Biso   1.000  O
  O3508    1.0000 0.87064  0.89636  0.60362  Biso   1.000  O
  O3509    1.0000 0.87181  0.90443  0.62768  Biso   1.000  O
  O3510    1.0000 0.42662  0.94293  0.19231  Biso   1.000  O
  O3511    1.0000 0.37640  0.88935  0.15348  Biso   1.000  O
  O3512    1.0000 0.95078  0.97826  0.68993  Biso   1.000  O
  O3513    1.0000 0.93095  0.96277  0.68720  Biso   1.000  O
  O3514    1.0000 0.93042  0.99854  0.61193  Biso   1.000  O
  O3515    1.0000 0.42494  0.41272  0.85663  Biso   1.000  O
  O3516    1.0000 0.22761  0.79980  0.31871  Biso   1.000  O
  O3517    1.0000 0.30137  0.82536  0.34078  Biso   1.000  O
  O3518    1.0000 0.31283  0.77927  0.22292  Biso   1.000  O
  O3519    1.0000 0.29371  0.76890  0.21008  Biso   1.000  O
  O3520    1.0000 0.98516  0.42547  0.07299  Biso   1.000  O
  O3521    1.0000 0.99378  0.43594  0.09450  Biso   1.000  O
  O3522    1.0000 0.89477  0.47390  0.08388  Biso   1.000  O
  O3523    1.0000 0.89628  0.47898  0.10884  Biso   1.000  O
  O3524    1.0000 0.86917  0.39680  0.10442  Biso   1.000  O
  O3525    1.0000 0.87166  0.40475  0.12820  Biso   1.000  O
  O3526    1.0000 0.42288  0.43857  0.70089  Biso   1.000  O
  O3527    1.0000 0.37436  0.38959  0.65440  Biso   1.000  O
  O3528    1.0000 0.95365  0.47772  0.18956  Biso   1.000  O
  O3529    1.0000 0.93248  0.46392  0.18724  Biso   1.000  O
  O3530    1.0000 0.93058  0.49909  0.11244  Biso   1.000  O
  O3531    1.0000 0.90779  0.50233  0.12290  Biso   1.000  O
  C1       1.0000 0.87633  0.88906  0.92254  Biso   1.000  C
  C2       1.0000 0.32797  0.30658  0.75681  Biso   1.000  C
  C3       1.0000 0.24119  0.25293  0.81638  Biso   1.000  C
  C4       1.0000 0.09428  0.95798  0.47004  Biso   1.000  C
  C5       1.0000 0.09015  0.94062  0.39207  Biso   1.000  C
  C6       1.0000 0.11304  0.94956  0.37887  Biso   1.000  C
  C7       1.0000 0.11608  0.93441  0.37393  Biso   1.000  C
  C8       1.0000 0.66581  0.91497  0.89649  Biso   1.000  C
  C9       1.0000 0.14319  0.99431  0.44181  Biso   1.000  C
  C10      1.0000 0.16584  0.98458  0.42098  Biso   1.000  C
  C11      1.0000 0.15188  0.99014  0.41551  Biso   1.000  C
  C12      1.0000 0.33395  0.81030  0.27184  Biso   1.000  C
  C13      1.0000 0.24586  0.75809  0.31443  Biso   1.000  C
  C14      1.0000 0.08775  0.46235  0.97473  Biso   1.000  C
  C15      1.0000 0.09477  0.42690  0.88414  Biso   1.000  C
  C16      1.0000 0.11620  0.45098  0.88260  Biso   1.000  C
  C17      1.0000 0.12019  0.43619  0.87738  Biso   1.000  C
  C18      1.0000 0.68315  0.41925  0.40451  Biso   1.000  C
  C19      1.0000 0.14165  0.49007  0.94364  Biso   1.000  C
  C20      1.0000 0.16514  0.48500  0.92205  Biso   1.000  C
  C21      1.0000 0.15099  0.49076  0.91724  Biso   1.000  C
  C22      1.0000 0.37636  0.88921  0.42206  Biso   1.000  C
  C23      1.0000 0.83336  0.31050  0.25341  Biso   1.000  C
  C24      1.0000 0.74189  0.25350  0.31524  Biso   1.000  C
  C25      1.0000 0.59511  0.95701  0.96890  Biso   1.000  C
  C26      1.0000 0.59002  0.93941  0.89219  Biso   1.000  C
  C27      1.0000 0.61287  0.94840  0.87896  Biso   1.000  C
  C28      1.0000 0.61611  0.93324  0.87426  Biso   1.000  C
  C29      1.0000 0.16484  0.91618  0.39680  Biso   1.000  C
  C30      1.0000 0.64314  0.99385  0.94063  Biso   1.000  C
  C31      1.0000 0.66545  0.98314  0.91989  Biso   1.000  C
  C32      1.0000 0.65154  0.98879  0.91439  Biso   1.000  C
  C33      1.0000 0.37795  0.39019  0.92907  Biso   1.000  C
  C34      1.0000 0.83718  0.81332  0.77006  Biso   1.000  C
  C35      1.0000 0.74579  0.75708  0.81352  Biso   1.000  C
  C36      1.0000 0.57065  0.44746  0.45969  Biso   1.000  C
  C37      1.0000 0.58877  0.46257  0.47455  Biso   1.000  C
  C38      1.0000 0.59610  0.42574  0.38779  Biso   1.000  C
  C39      1.0000 0.61516  0.45041  0.37960  Biso   1.000  C
  C40      1.0000 0.61864  0.43538  0.37445  Biso   1.000  C
  C41      1.0000 0.17589  0.40745  0.89336  Biso   1.000  C
  C42      1.0000 0.64114  0.49140  0.44296  Biso   1.000  C
  C43      1.0000 0.66350  0.48308  0.42119  Biso   1.000  C
  C44      1.0000 0.64940  0.48891  0.41632  Biso   1.000  C
  C45      1.0000 0.87151  0.36086  0.43382  Biso   1.000  C
  C46      1.0000 0.41866  0.92793  0.25151  Biso   1.000  C
  C47      1.0000 0.51380  0.00207  0.28865  Biso   1.000  C
  C48      1.0000 0.50899  0.99657  0.31564  Biso   1.000  C
  C49      1.0000 0.67705  0.30278  0.95911  Biso   1.000  C
  C50      1.0000 0.65955  0.30948  0.89143  Biso   1.000  C
  C51      1.0000 0.63763  0.29964  0.87727  Biso   1.000  C
  C52      1.0000 0.63392  0.31470  0.87264  Biso   1.000  C
  C53      1.0000 0.06425  0.33447  0.40371  Biso   1.000  C
  C54      1.0000 0.07394  0.34394  0.39483  Biso   1.000  C
  C55      1.0000 0.59176  0.26131  0.94428  Biso   1.000  C
  C56      1.0000 0.60623  0.25594  0.93957  Biso   1.000  C
  C57      1.0000 0.59842  0.25883  0.91278  Biso   1.000  C
  C58      1.0000 0.87610  0.86448  0.94342  Biso   1.000  C
  C59      1.0000 0.41962  0.44213  0.75609  Biso   1.000  C
  C60      1.0000 0.41558  0.43871  0.77123  Biso   1.000  C
  C61      1.0000 0.51283  0.50107  0.78891  Biso   1.000  C
  C62      1.0000 0.50712  0.49469  0.81554  Biso   1.000  C
  C63      1.0000 0.67755  0.80291  0.45956  Biso   1.000  C
  C64      1.0000 0.65107  0.80952  0.39970  Biso   1.000  C
  C65      1.0000 0.64271  0.80065  0.37457  Biso   1.000  C
  C66      1.0000 0.63920  0.81593  0.37034  Biso   1.000  C
  C67      1.0000 0.07222  0.82744  0.90369  Biso   1.000  C
  C68      1.0000 0.08111  0.83749  0.89459  Biso   1.000  C
  C69      1.0000 0.59162  0.76199  0.44573  Biso   1.000  C
  C70      1.0000 0.60605  0.75637  0.44106  Biso   1.000  C
  C71      1.0000 0.59810  0.75881  0.41426  Biso   1.000  C
  C72      1.0000 0.37261  0.35991  0.93891  Biso   1.000  C
  C73      1.0000 0.91903  0.94216  0.75535  Biso   1.000  C
  C74      1.0000 0.00789  0.99673  0.81546  Biso   1.000  C
  C75      1.0000 0.16935  0.30585  0.45634  Biso   1.000  C
  C76      1.0000 0.16046  0.30723  0.38758  Biso   1.000  C
  C77      1.0000 0.13406  0.29976  0.38285  Biso   1.000  C
  C78      1.0000 0.13056  0.31499  0.37865  Biso   1.000  C
  C79      1.0000 0.56501  0.33303  0.90323  Biso   1.000  C
  C80      1.0000 0.57464  0.34251  0.89423  Biso   1.000  C
  C81      1.0000 0.09321  0.26567  0.44493  Biso   1.000  C
  C82      1.0000 0.10785  0.26033  0.44078  Biso   1.000  C
  C83      1.0000 0.09948  0.25877  0.41404  Biso   1.000  C
  C84      1.0000 0.37563  0.86525  0.44366  Biso   1.000  C
  C85      1.0000 0.93350  0.44624  0.25902  Biso   1.000  C
  C86      1.0000 0.01406  0.50197  0.28977  Biso   1.000  C
  C87      1.0000 0.00840  0.49544  0.31639  Biso   1.000  C
  C88      1.0000 0.16043  0.78908  0.97330  Biso   1.000  C
  C89      1.0000 0.15894  0.80989  0.89297  Biso   1.000  C
  C90      1.0000 0.13744  0.79988  0.87830  Biso   1.000  C
  C91      1.0000 0.13376  0.81491  0.87350  Biso   1.000  C
  C92      1.0000 0.57099  0.82818  0.40439  Biso   1.000  C
  C93      1.0000 0.58015  0.83772  0.39511  Biso   1.000  C
  C94      1.0000 0.09112  0.76080  0.94541  Biso   1.000  C
  C95      1.0000 0.10573  0.75561  0.94088  Biso   1.000  C
  C96      1.0000 0.09806  0.75796  0.91399  Biso   1.000  C
  C97      1.0000 0.91774  0.81336  0.99595  Biso   1.000  C
  C98      1.0000 0.01380  0.74681  0.93579  Biso   1.000  C
  C99      1.0000 0.17715  0.44644  0.29190  Biso   1.000  C
  C100     1.0000 0.16195  0.46283  0.27513  Biso   1.000  C
  C101     1.0000 0.15750  0.42532  0.36964  Biso   1.000  C
  C102     1.0000 0.13588  0.44917  0.36731  Biso   1.000  C
  C103     1.0000 0.13129  0.43450  0.37237  Biso   1.000  C
  C104     1.0000 0.56954  0.42125  0.84720  Biso   1.000  C
  C105     1.0000 0.10750  0.49234  0.31062  Biso   1.000  C
  C106     1.0000 0.08551  0.48143  0.33156  Biso   1.000  C
  C107     1.0000 0.09944  0.48721  0.33694  Biso   1.000  C
  C108     1.0000 0.91768  0.31088  0.49598  Biso   1.000  C
  C109     1.0000 0.01350  0.24627  0.45971  Biso   1.000  C
  C110     1.0000 0.00827  0.25241  0.43291  Biso   1.000  C
  C111     1.0000 0.16773  0.94219  0.79542  Biso   1.000  C
  C112     1.0000 0.17005  0.96202  0.77592  Biso   1.000  C
  C113     1.0000 0.16002  0.94316  0.86439  Biso   1.000  C
  C114     1.0000 0.13307  0.94992  0.86639  Biso   1.000  C
  C115     1.0000 0.12967  0.93478  0.87088  Biso   1.000  C
  C116     1.0000 0.56778  0.92103  0.34784  Biso   1.000  C
  C117     1.0000 0.08696  0.99416  0.81035  Biso   1.000  C
  C118     1.0000 0.10158  0.99984  0.81399  Biso   1.000  C
  C119     1.0000 0.09442  0.96892  0.82010  Biso   1.000  C
  C120     1.0000 0.41874  0.81728  0.49855  Biso   1.000  C
  C121     1.0000 0.51316  0.74814  0.46185  Biso   1.000  C
  C122     1.0000 0.67693  0.44644  0.79139  Biso   1.000  C
  C123     1.0000 0.66252  0.46321  0.77432  Biso   1.000  C
  C124     1.0000 0.65674  0.42552  0.86867  Biso   1.000  C
  C125     1.0000 0.63533  0.44960  0.86709  Biso   1.000  C
  C126     1.0000 0.63064  0.43487  0.87187  Biso   1.000  C
  C127     1.0000 0.07058  0.42194  0.34808  Biso   1.000  C
  C128     1.0000 0.60160  0.49841  0.81546  Biso   1.000  C
  C129     1.0000 0.59127  0.46948  0.82538  Biso   1.000  C
  C130     1.0000 0.60562  0.47483  0.82998  Biso   1.000  C
  C131     1.0000 0.41792  0.31100  0.99614  Biso   1.000  C
  C132     1.0000 0.51317  0.24627  0.96059  Biso   1.000  C
  C133     1.0000 0.50837  0.25171  0.93359  Biso   1.000  C
  C134     1.0000 0.67759  0.94635  0.29167  Biso   1.000  C
  C135     1.0000 0.66255  0.96252  0.27457  Biso   1.000  C
  C136     1.0000 0.65965  0.94057  0.35792  Biso   1.000  C
  C137     1.0000 0.65556  0.92566  0.36274  Biso   1.000  C
  C138     1.0000 0.63722  0.95084  0.37092  Biso   1.000  C
  C139     1.0000 0.06978  0.92217  0.84726  Biso   1.000  C
  C140     1.0000 0.58811  0.99312  0.31012  Biso   1.000  C
  C141     1.0000 0.60254  0.99870  0.31468  Biso   1.000  C
  C142     1.0000 0.59437  0.96813  0.32121  Biso   1.000  C
  C143     1.0000 0.37515  0.86438  0.30864  Biso   1.000  C
  C144     1.0000 0.83006  0.44134  0.49395  Biso   1.000  C
  C145     1.0000 0.73629  0.50317  0.46080  Biso   1.000  C
  C146     1.0000 0.74085  0.49672  0.43397  Biso   1.000  C
  C147     1.0000 0.58800  0.78809  0.77643  Biso   1.000  C
  C148     1.0000 0.59043  0.80630  0.86403  Biso   1.000  C
  C149     1.0000 0.61749  0.79995  0.86676  Biso   1.000  C
  C150     1.0000 0.62051  0.81512  0.87161  Biso   1.000  C
  C151     1.0000 0.17971  0.82815  0.34650  Biso   1.000  C
  C152     1.0000 0.17046  0.83755  0.35588  Biso   1.000  C
  C153     1.0000 0.64297  0.75816  0.80713  Biso   1.000  C
  C154     1.0000 0.66607  0.76493  0.82865  Biso   1.000  C
  C155     1.0000 0.65193  0.75934  0.83368  Biso   1.000  C
  C156     1.0000 0.37822  0.35883  0.81824  Biso   1.000  C
  C157     1.0000 0.83233  0.92692  0.99854  Biso   1.000  C
  C158     1.0000 0.73712  0.00188  0.96233  Biso   1.000  C
  C159     1.0000 0.74127  0.99661  0.93516  Biso   1.000  C
  C160     1.0000 0.58990  0.29065  0.27803  Biso   1.000  C
  C161     1.0000 0.59019  0.30961  0.35850  Biso   1.000  C
  C162     1.0000 0.61286  0.30057  0.37202  Biso   1.000  C
  C163     1.0000 0.61616  0.31578  0.37661  Biso   1.000  C
  C164     1.0000 0.17789  0.32767  0.84617  Biso   1.000  C
  C165     1.0000 0.16907  0.33766  0.85543  Biso   1.000  C
  C166     1.0000 0.64371  0.25656  0.30944  Biso   1.000  C
  C167     1.0000 0.66578  0.26688  0.33064  Biso   1.000  C
  C168     1.0000 0.65170  0.26137  0.33586  Biso   1.000  C
  C169     1.0000 0.87424  0.86550  0.80817  Biso   1.000  C
  C170     1.0000 0.33331  0.43656  0.99757  Biso   1.000  C
  C171     1.0000 0.24397  0.49573  0.96205  Biso   1.000  C
  C172     1.0000 0.23563  0.50331  0.93646  Biso   1.000  C
  C173     1.0000 0.08715  0.78832  0.27623  Biso   1.000  C
  C174     1.0000 0.08981  0.80725  0.36359  Biso   1.000  C
  C175     1.0000 0.11679  0.80080  0.36668  Biso   1.000  C
  C176     1.0000 0.11987  0.81604  0.37133  Biso   1.000  C
  C177     1.0000 0.67978  0.82694  0.84654  Biso   1.000  C
  C178     1.0000 0.67060  0.83631  0.85599  Biso   1.000  C
  C179     1.0000 0.14278  0.75894  0.30775  Biso   1.000  C
  C180     1.0000 0.16507  0.76704  0.32967  Biso   1.000  C
  C181     1.0000 0.15087  0.76147  0.33447  Biso   1.000  C
  C182     1.0000 0.87882  0.36018  0.31435  Biso   1.000  C
  C183     1.0000 0.32935  0.94173  0.49422  Biso   1.000  C
  C184     1.0000 0.23746  0.00227  0.46244  Biso   1.000  C
  C185     1.0000 0.24137  0.99700  0.43525  Biso   1.000  C
  C186     1.0000 0.08860  0.29029  0.77706  Biso   1.000  C
  C187     1.0000 0.09076  0.31068  0.85685  Biso   1.000  C
  C188     1.0000 0.11214  0.30054  0.87161  Biso   1.000  C
  C189     1.0000 0.11590  0.31555  0.87641  Biso   1.000  C
  C190     1.0000 0.68237  0.32870  0.34793  Biso   1.000  C
  C191     1.0000 0.15782  0.26150  0.80424  Biso   1.000  C
  C192     1.0000 0.14324  0.25623  0.80878  Biso   1.000  C
  C193     1.0000 0.15102  0.25835  0.83566  Biso   1.000  C
  C194     1.0000 0.93506  0.88029  0.89009  Biso   1.000  C
  C195     1.0000 0.75474  0.33063  0.31136  Biso   1.000  C
  C196     1.0000 0.77034  0.33365  0.31410  Biso   1.000  C
  C197     1.0000 0.79263  0.23380  0.24712  Biso   1.000  C
  C198     1.0000 0.81669  0.24424  0.25675  Biso   1.000  C
  C199     1.0000 0.45630  0.07395  0.94644  Biso   1.000  C
  C200     1.0000 0.47587  0.08380  0.96384  Biso   1.000  C
  C201     1.0000 0.39273  0.08885  0.94120  Biso   1.000  C
  C202     1.0000 0.38798  0.09192  0.92598  Biso   1.000  C
  C203     1.0000 0.37436  0.11457  0.93482  Biso   1.000  C
  C204     1.0000 0.90348  0.67656  0.92310  Biso   1.000  C
  C205     1.0000 0.89461  0.66656  0.91404  Biso   1.000  C
  C206     1.0000 0.44375  0.15860  0.98873  Biso   1.000  C
  C207     1.0000 0.43890  0.14419  0.99406  Biso   1.000  C
  C208     1.0000 0.41270  0.15044  0.98654  Biso   1.000  C
  C209     1.0000 0.93580  0.37911  0.39085  Biso   1.000  C
  C210     1.0000 0.75478  0.82958  0.81251  Biso   1.000  C
  C211     1.0000 0.77033  0.83269  0.81516  Biso   1.000  C
  C212     1.0000 0.78946  0.73604  0.74813  Biso   1.000  C
  C213     1.0000 0.81657  0.74041  0.75335  Biso   1.000  C
  C214     1.0000 0.45928  0.57266  0.44734  Biso   1.000  C
  C215     1.0000 0.47356  0.59135  0.46237  Biso   1.000  C
  C216     1.0000 0.39632  0.59411  0.44029  Biso   1.000  C
  C217     1.0000 0.39149  0.59765  0.42520  Biso   1.000  C
  C218     1.0000 0.37329  0.60612  0.45041  Biso   1.000  C
  C219     1.0000 0.90076  0.15829  0.41609  Biso   1.000  C
  C220     1.0000 0.44280  0.65929  0.48856  Biso   1.000  C
  C221     1.0000 0.43772  0.64517  0.49443  Biso   1.000  C
  C222     1.0000 0.41203  0.65065  0.48487  Biso   1.000  C
  C223     1.0000 0.44222  0.87710  0.38808  Biso   1.000  C
  C224     1.0000 0.25361  0.32943  0.81154  Biso   1.000  C
  C225     1.0000 0.26885  0.33306  0.81532  Biso   1.000  C
  C226     1.0000 0.28999  0.23731  0.75267  Biso   1.000  C
  C227     1.0000 0.97338  0.08913  0.46191  Biso   1.000  C
  C228     1.0000 0.89539  0.09301  0.44050  Biso   1.000  C
  C229     1.0000 0.89045  0.09640  0.42545  Biso   1.000  C
  C230     1.0000 0.87328  0.10660  0.45072  Biso   1.000  C
  C231     1.0000 0.40425  0.67605  0.42493  Biso   1.000  C
  C232     1.0000 0.39519  0.66633  0.41576  Biso   1.000  C
  C233     1.0000 0.94416  0.15850  0.48737  Biso   1.000  C
  C234     1.0000 0.93909  0.14423  0.49286  Biso   1.000  C
  C235     1.0000 0.91281  0.15122  0.48632  Biso   1.000  C
  C236     1.0000 0.43652  0.37857  0.89050  Biso   1.000  C
  C237     1.0000 0.25509  0.83015  0.31186  Biso   1.000  C
  C238     1.0000 0.27068  0.83310  0.31462  Biso   1.000  C
  C239     1.0000 0.28785  0.73832  0.24978  Biso   1.000  C
  C240     1.0000 0.31560  0.74030  0.25206  Biso   1.000  C
  C241     1.0000 0.95861  0.57222  0.94752  Biso   1.000  C
  C242     1.0000 0.97309  0.59043  0.96298  Biso   1.000  C
  C243     1.0000 0.89550  0.59367  0.94068  Biso   1.000  C
  C244     1.0000 0.89083  0.59717  0.92557  Biso   1.000  C
  C245     1.0000 0.87280  0.60649  0.95059  Biso   1.000  C
  C246     1.0000 0.40141  0.15765  0.91658  Biso   1.000  C
  C247     1.0000 0.94280  0.65911  0.98709  Biso   1.000  C
  C248     1.0000 0.93778  0.64508  0.99324  Biso   1.000  C
  C249     1.0000 0.91191  0.65059  0.98415  Biso   1.000  C
  C250     1.0000 0.42216  0.87483  0.36292  Biso   1.000  C
  C251     1.0000 0.25421  0.41968  0.93636  Biso   1.000  C
  C252     1.0000 0.26966  0.41612  0.93361  Biso   1.000  C
  C253     1.0000 0.29035  0.51278  0.99991  Biso   1.000  C
  C254     1.0000 0.97424  0.66133  0.28719  Biso   1.000  C
  C255     1.0000 0.88788  0.65568  0.32388  Biso   1.000  C
  C256     1.0000 0.87897  0.63662  0.29943  Biso   1.000  C
  C257     1.0000 0.87356  0.63363  0.31446  Biso   1.000  C
  C258     1.0000 0.40633  0.07730  0.32519  Biso   1.000  C
  C259     1.0000 0.39691  0.08603  0.33505  Biso   1.000  C
  C260     1.0000 0.94644  0.59693  0.27267  Biso   1.000  C
  C261     1.0000 0.94137  0.61078  0.26623  Biso   1.000  C
  C262     1.0000 0.92651  0.58310  0.25871  Biso   1.000  C
  C263     1.0000 0.42745  0.37257  0.86008  Biso   1.000  C
  C264     1.0000 0.25434  0.92074  0.43861  Biso   1.000  C
  C265     1.0000 0.26959  0.91723  0.43487  Biso   1.000  C
  C266     1.0000 0.29027  0.01249  0.49900  Biso   1.000  C
  C267     1.0000 0.96070  0.18084  0.80201  Biso   1.000  C
  C268     1.0000 0.97203  0.15919  0.78843  Biso   1.000  C
  C269     1.0000 0.88300  0.15619  0.82378  Biso   1.000  C
  C270     1.0000 0.88034  0.13557  0.79907  Biso   1.000  C
  C271     1.0000 0.87504  0.13139  0.81375  Biso   1.000  C
  C272     1.0000 0.40538  0.57636  0.82486  Biso   1.000  C
  C273     1.0000 0.39614  0.58532  0.83470  Biso   1.000  C
  C274     1.0000 0.94553  0.09810  0.77164  Biso   1.000  C
  C275     1.0000 0.94025  0.11204  0.76560  Biso   1.000  C
  C276     1.0000 0.92492  0.08454  0.75841  Biso   1.000  C
  C277     1.0000 0.93091  0.87244  0.85905  Biso   1.000  C
  C278     1.0000 0.75418  0.42098  0.43960  Biso   1.000  C
  C279     1.0000 0.76938  0.41727  0.43579  Biso   1.000  C
  C280     1.0000 0.79003  0.51221  0.49770  Biso   1.000  C
  C281     1.0000 0.47403  0.66274  0.78697  Biso   1.000  C
  C282     1.0000 0.38385  0.65609  0.82416  Biso   1.000  C
  C283     1.0000 0.38139  0.63504  0.79979  Biso   1.000  C
  C284     1.0000 0.37615  0.63106  0.81456  Biso   1.000  C
  C285     1.0000 0.90546  0.07757  0.82430  Biso   1.000  C
  C286     1.0000 0.89587  0.08613  0.83414  Biso   1.000  C
  C287     1.0000 0.44600  0.59723  0.77406  Biso   1.000  C
  C288     1.0000 0.42491  0.58458  0.76067  Biso   1.000  C
  C289     1.0000 0.42001  0.59883  0.75508  Biso   1.000  C
  C290     1.0000 0.92827  0.37277  0.36006  Biso   1.000  C
  C291     1.0000 0.75464  0.92007  0.93819  Biso   1.000  C
  C292     1.0000 0.76979  0.91631  0.93427  Biso   1.000  C
  C293     1.0000 0.79062  0.01209  0.99931  Biso   1.000  C
  C294     1.0000 0.46082  0.18062  0.30127  Biso   1.000  C
  C295     1.0000 0.47221  0.15903  0.28764  Biso   1.000  C
  C296     1.0000 0.38370  0.15613  0.32415  Biso   1.000  C
  C297     1.0000 0.38057  0.13523  0.29971  Biso   1.000  C
  C298     1.0000 0.37555  0.13122  0.31453  Biso   1.000  C
  C299     1.0000 0.91296  0.58250  0.32491  Biso   1.000  C
  C300     1.0000 0.44559  0.09719  0.27155  Biso   1.000  C
  C301     1.0000 0.44017  0.11110  0.26551  Biso   1.000  C
  C302     1.0000 0.42454  0.08357  0.25915  Biso   1.000  C
  C303     1.0000 0.81937  0.36984  0.39063  Biso   1.000  C
  C304     1.0000 0.99626  0.91916  0.82050  Biso   1.000  C
  C305     1.0000 0.98070  0.91609  0.82331  Biso   1.000  C
  C306     1.0000 0.95845  0.01469  0.74797  Biso   1.000  C
  C307     1.0000 0.27708  0.15990  0.46150  Biso   1.000  C
  C308     1.0000 0.35805  0.15832  0.43973  Biso   1.000  C
  C309     1.0000 0.36341  0.15450  0.42484  Biso   1.000  C
  C310     1.0000 0.37454  0.13861  0.45065  Biso   1.000  C
  C311     1.0000 0.83756  0.58237  0.42380  Biso   1.000  C
  C312     1.0000 0.30442  0.09513  0.48387  Biso   1.000  C
  C313     1.0000 0.31010  0.10887  0.49006  Biso   1.000  C
  C314     1.0000 0.32971  0.08339  0.48668  Biso   1.000  C
  C315     1.0000 0.99567  0.41911  0.31619  Biso   1.000  C
  C316     1.0000 0.98017  0.41585  0.31902  Biso   1.000  C
  C317     1.0000 0.96095  0.51243  0.25079  Biso   1.000  C
  C318     1.0000 0.28702  0.68143  0.95147  Biso   1.000  C
  C319     1.0000 0.28097  0.65514  0.95867  Biso   1.000  C
  C320     1.0000 0.36996  0.65756  0.92522  Biso   1.000  C
  C321     1.0000 0.36889  0.63615  0.94938  Biso   1.000  C
  C322     1.0000 0.37382  0.63157  0.93467  Biso   1.000  C
  C323     1.0000 0.84388  0.07668  0.92401  Biso   1.000  C
  C324     1.0000 0.85300  0.08565  0.91407  Biso   1.000  C
  C325     1.0000 0.30541  0.59550  0.98435  Biso   1.000  C
  C326     1.0000 0.31131  0.60934  0.99013  Biso   1.000  C
  C327     1.0000 0.33098  0.58410  0.98560  Biso   1.000  C
  C328     1.0000 0.49717  0.91872  0.32152  Biso   1.000  C
  C329     1.0000 0.48172  0.91562  0.32489  Biso   1.000  C
  C330     1.0000 0.45727  0.01521  0.24634  Biso   1.000  C
  C331     1.0000 0.43349  0.00532  0.25716  Biso   1.000  C
  C332     1.0000 0.77680  0.15914  0.96197  Biso   1.000  C
  C333     1.0000 0.85742  0.15795  0.93888  Biso   1.000  C
  C334     1.0000 0.86270  0.15422  0.92398  Biso   1.000  C
  C335     1.0000 0.87384  0.13803  0.94959  Biso   1.000  C
  C336     1.0000 0.35785  0.57797  0.91121  Biso   1.000  C
  C337     1.0000 0.80413  0.09493  0.98373  Biso   1.000  C
  C338     1.0000 0.80981  0.10871  0.98984  Biso   1.000  C
  C339     1.0000 0.82924  0.08300  0.98723  Biso   1.000  C
  C340     1.0000 0.47734  0.41675  0.81132  Biso   1.000  C
  C341     1.0000 0.46080  0.51229  0.75033  Biso   1.000  C
  C342     1.0000 0.78538  0.68249  0.45248  Biso   1.000  C
  C343     1.0000 0.78095  0.65535  0.45732  Biso   1.000  C
  C344     1.0000 0.86312  0.65721  0.42420  Biso   1.000  C
  C345     1.0000 0.87196  0.63903  0.44926  Biso   1.000  C
  C346     1.0000 0.87709  0.63530  0.43431  Biso   1.000  C
  C347     1.0000 0.34451  0.07672  0.42446  Biso   1.000  C
  C348     1.0000 0.35385  0.08567  0.41473  Biso   1.000  C
  C349     1.0000 0.80319  0.59405  0.48434  Biso   1.000  C
  C350     1.0000 0.82961  0.58510  0.48210  Biso   1.000  C
  C351     1.0000 0.83479  0.59914  0.48794  Biso   1.000  C
  C352     1.0000 0.32729  0.37901  0.86083  Biso   1.000  C
  C353     1.0000 0.49528  0.82781  0.44282  Biso   1.000  C
  C354     1.0000 0.47989  0.83172  0.44025  Biso   1.000  C
  C355     1.0000 0.45117  0.73179  0.50673  Biso   1.000  C
  C356     1.0000 0.43865  0.75003  0.48962  Biso   1.000  C
  C357     1.0000 0.77633  0.58964  0.78833  Biso   1.000  C
  C358     1.0000 0.85366  0.59369  0.80971  Biso   1.000  C
  C359     1.0000 0.85857  0.59706  0.82477  Biso   1.000  C
  C360     1.0000 0.87653  0.60604  0.79956  Biso   1.000  C
  C361     1.0000 0.34540  0.17577  0.82771  Biso   1.000  C
  C362     1.0000 0.35491  0.16623  0.83660  Biso   1.000  C
  C363     1.0000 0.80599  0.65759  0.76360  Biso   1.000  C
  C364     1.0000 0.81073  0.64328  0.75781  Biso   1.000  C
  C365     1.0000 0.83747  0.65094  0.76124  Biso   1.000  C
  C366     1.0000 0.31596  0.87780  0.36080  Biso   1.000  C
  C367     1.0000 0.49622  0.33031  0.93692  Biso   1.000  C
  C368     1.0000 0.48086  0.33402  0.93382  Biso   1.000  C
  C369     1.0000 0.45684  0.23334  0.00381  Biso   1.000  C
  C370     1.0000 0.43525  0.24719  0.99259  Biso   1.000  C
  C371     1.0000 0.79094  0.07233  0.30242  Biso   1.000  C
  C372     1.0000 0.77671  0.09094  0.28723  Biso   1.000  C
  C373     1.0000 0.85417  0.09391  0.30956  Biso   1.000  C
  C374     1.0000 0.85889  0.09730  0.32466  Biso   1.000  C
  C375     1.0000 0.87701  0.10650  0.29967  Biso   1.000  C
  C376     1.0000 0.34789  0.68262  0.33029  Biso   1.000  C
  C377     1.0000 0.81149  0.14420  0.25489  Biso   1.000  C
  C378     1.0000 0.82950  0.16286  0.27415  Biso   1.000  C
  C379     1.0000 0.83548  0.14910  0.26853  Biso   1.000  C
  C380     1.0000 0.81516  0.37775  0.35961  Biso   1.000  C
  C381     1.0000 0.99672  0.83018  0.94060  Biso   1.000  C
  C382     1.0000 0.98133  0.83418  0.93791  Biso   1.000  C
  C383     1.0000 0.95604  0.73327  0.00324  Biso   1.000  C
  C384     1.0000 0.93464  0.74721  0.99181  Biso   1.000  C
  C385     1.0000 0.27657  0.58630  0.28783  Biso   1.000  C
  C386     1.0000 0.36181  0.59088  0.30805  Biso   1.000  C
  C387     1.0000 0.36625  0.59448  0.32323  Biso   1.000  C
  C388     1.0000 0.36939  0.61642  0.29982  Biso   1.000  C
  C389     1.0000 0.84566  0.17534  0.32621  Biso   1.000  C
  C390     1.0000 0.85514  0.16592  0.33528  Biso   1.000  C
  C391     1.0000 0.30385  0.65650  0.26857  Biso   1.000  C
  C392     1.0000 0.30833  0.64207  0.26287  Biso   1.000  C
  C393     1.0000 0.33393  0.65228  0.25773  Biso   1.000  C
  C394     1.0000 0.81632  0.87757  0.86031  Biso   1.000  C
  C395     1.0000 0.99581  0.33051  0.43769  Biso   1.000  C
  C396     1.0000 0.98040  0.33419  0.43469  Biso   1.000  C
  C397     1.0000 0.95734  0.23338  0.50319  Biso   1.000  C
  C398     1.0000 0.93555  0.24713  0.49224  Biso   1.000  C
  C399     1.0000 0.29154  0.07255  0.80275  Biso   1.000  C
  C400     1.0000 0.35443  0.09403  0.80972  Biso   1.000  C
  C401     1.0000 0.35935  0.09737  0.82478  Biso   1.000  C
  C402     1.0000 0.37651  0.10771  0.79957  Biso   1.000  C
  C403     1.0000 0.84815  0.68158  0.82965  Biso   1.000  C
  C404     1.0000 0.31043  0.14471  0.75566  Biso   1.000  C
  C405     1.0000 0.32950  0.16351  0.77379  Biso   1.000  C
  C406     1.0000 0.33507  0.14962  0.76804  Biso   1.000  C
  C407     1.0000 0.89070  0.93189  0.88092  Biso   1.000  C
  C408     1.0000 0.31636  0.75326  0.33315  Biso   1.000  C
  C409     1.0000 0.24680  0.79209  0.23520  Biso   1.000  C
  C410     1.0000 0.94904  0.45908  0.07166  Biso   1.000  C
  C411     1.0000 0.92445  0.39349  0.10047  Biso   1.000  C
  C412     1.0000 0.94937  0.37459  0.10809  Biso   1.000  C
  C413     1.0000 0.93424  0.36988  0.11165  Biso   1.000  C
  C414     1.0000 0.92519  0.90487  0.67522  Biso   1.000  C
  C415     1.0000 0.91570  0.89570  0.66594  Biso   1.000  C
  C416     1.0000 0.99779  0.43850  0.14557  Biso   1.000  C
  C417     1.0000 0.97900  0.42018  0.16447  Biso   1.000  C
  C418     1.0000 0.98412  0.41452  0.15038  Biso   1.000  C
  C419     1.0000 0.88394  0.44263  0.37316  Biso   1.000  C
  C420     1.0000 0.30813  0.25567  0.83284  Biso   1.000  C
  C421     1.0000 0.25626  0.31334  0.74526  Biso   1.000  C
  C422     1.0000 0.94660  0.95837  0.57197  Biso   1.000  C
  C423     1.0000 0.92585  0.88751  0.59475  Biso   1.000  C
  C424     1.0000 0.95033  0.87873  0.61379  Biso   1.000  C
  C425     1.0000 0.93528  0.87361  0.61706  Biso   1.000  C
  C426     1.0000 0.92503  0.40530  0.17504  Biso   1.000  C
  C427     1.0000 0.91537  0.39605  0.16592  Biso   1.000  C
  C428     1.0000 0.99205  0.94311  0.64215  Biso   1.000  C
  C429     1.0000 0.98281  0.92209  0.66490  Biso   1.000  C
  C430     1.0000 0.98819  0.91676  0.65069  Biso   1.000  C
  C431     1.0000 0.38907  0.93093  0.37925  Biso   1.000  C
  C432     1.0000 0.81702  0.75308  0.83264  Biso   1.000  C
  C433     1.0000 0.74516  0.79782  0.73242  Biso   1.000  C
  C434     1.0000 0.44711  0.45812  0.57173  Biso   1.000  C
  C435     1.0000 0.42377  0.39371  0.60162  Biso   1.000  C
  C436     1.0000 0.44862  0.37435  0.60828  Biso   1.000  C
  C437     1.0000 0.43352  0.36971  0.61198  Biso   1.000  C
  C438     1.0000 0.42394  0.90322  0.17892  Biso   1.000  C
  C439     1.0000 0.41460  0.89382  0.16962  Biso   1.000  C
  C440     1.0000 0.48804  0.44428  0.65836  Biso   1.000  C
  C441     1.0000 0.49407  0.43917  0.64428  Biso   1.000  C
  C442     1.0000 0.48667  0.41303  0.65091  Biso   1.000  C
  C443     1.0000 0.39110  0.43564  0.87950  Biso   1.000  C
  C444     1.0000 0.81318  0.25395  0.33336  Biso   1.000  C
  C445     1.0000 0.75684  0.31488  0.24513  Biso   1.000  C
  C446     1.0000 0.44638  0.95788  0.07268  Biso   1.000  C
  C447     1.0000 0.42640  0.88751  0.09469  Biso   1.000  C
  C448     1.0000 0.45104  0.87877  0.11356  Biso   1.000  C
  C449     1.0000 0.43599  0.87376  0.11700  Biso   1.000  C
  C450     1.0000 0.42394  0.40472  0.67573  Biso   1.000  C
  C451     1.0000 0.41427  0.39545  0.66670  Biso   1.000  C
  C452     1.0000 0.49117  0.94267  0.14148  Biso   1.000  C
  C453     1.0000 0.48511  0.92115  0.16479  Biso   1.000  C
  C454     1.0000 0.49067  0.91620  0.15058  Biso   1.000  C
  C455     1.0000 0.35974  0.43011  0.87430  Biso   1.000  C
  C456     1.0000 0.94458  0.25882  0.42808  Biso   1.000  C
  C457     1.0000 0.94093  0.27413  0.42508  Biso   1.000  C
  C458     1.0000 0.00678  0.29459  0.51789  Biso   1.000  C
  C459     1.0000 0.99176  0.31189  0.50190  Biso   1.000  C
  C460     1.0000 0.30219  0.95998  0.68115  Biso   1.000  C
  C461     1.0000 0.28899  0.97107  0.65916  Biso   1.000  C
  C462     1.0000 0.30581  0.87895  0.65898  Biso   1.000  C
  C463     1.0000 0.32093  0.87440  0.65502  Biso   1.000  C
  C464     1.0000 0.30365  0.89289  0.63488  Biso   1.000  C
  C465     1.0000 0.32523  0.41068  0.08159  Biso   1.000  C
  C466     1.0000 0.33481  0.40108  0.09032  Biso   1.000  C
  C467     1.0000 0.25756  0.94355  0.60831  Biso   1.000  C
  C468     1.0000 0.27091  0.92272  0.58745  Biso   1.000  C
  C469     1.0000 0.26550  0.91752  0.60164  Biso   1.000  C
  C470     1.0000 0.94534  0.75963  0.92791  Biso   1.000  C
  C471     1.0000 0.94200  0.77500  0.92489  Biso   1.000  C
  C472     1.0000 0.99560  0.81717  0.00591  Biso   1.000  C
  C473     1.0000 0.30600  0.45470  0.17083  Biso   1.000  C
  C474     1.0000 0.30810  0.38658  0.15973  Biso   1.000  C
  C475     1.0000 0.32316  0.38196  0.15591  Biso   1.000  C
  C476     1.0000 0.29978  0.38058  0.13379  Biso   1.000  C
  C477     1.0000 0.32784  0.90363  0.57071  Biso   1.000  C
  C478     1.0000 0.33754  0.89396  0.57941  Biso   1.000  C
  C479     1.0000 0.27391  0.44564  0.09764  Biso   1.000  C
  C480     1.0000 0.26050  0.42473  0.08477  Biso   1.000  C
  C481     1.0000 0.25493  0.41966  0.09899  Biso   1.000  C
  C482     1.0000 0.85935  0.42183  0.37135  Biso   1.000  C
  C483     1.0000 0.44479  0.25827  0.92785  Biso   1.000  C
  C484     1.0000 0.44115  0.27357  0.92465  Biso   1.000  C
  C485     1.0000 0.50681  0.29513  0.01812  Biso   1.000  C
  C486     1.0000 0.49147  0.31187  0.00183  Biso   1.000  C
  C487     1.0000 0.80336  0.95875  0.17807  Biso   1.000  C
  C488     1.0000 0.81026  0.89112  0.15898  Biso   1.000  C
  C489     1.0000 0.82513  0.88608  0.15508  Biso   1.000  C
  C490     1.0000 0.80003  0.87768  0.13679  Biso   1.000  C
  C491     1.0000 0.82564  0.41145  0.58022  Biso   1.000  C
  C492     1.0000 0.83503  0.40161  0.58888  Biso   1.000  C
  C493     1.0000 0.75462  0.94050  0.10658  Biso   1.000  C
  C494     1.0000 0.77305  0.92218  0.08736  Biso   1.000  C
  C495     1.0000 0.76770  0.91629  0.10126  Biso   1.000  C
  C496     1.0000 0.85981  0.93495  0.87221  Biso   1.000  C
  C497     1.0000 0.44528  0.75968  0.42903  Biso   1.000  C
  C498     1.0000 0.44171  0.77504  0.42623  Biso   1.000  C
  C499     1.0000 0.50189  0.78901  0.51175  Biso   1.000  C
  C500     1.0000 0.49910  0.81686  0.51092  Biso   1.000  C
  C501     1.0000 0.80571  0.45460  0.66844  Biso   1.000  C
  C502     1.0000 0.80730  0.38647  0.65809  Biso   1.000  C
  C503     1.0000 0.82235  0.38187  0.65429  Biso   1.000  C
  C504     1.0000 0.79911  0.38092  0.63199  Biso   1.000  C
  C505     1.0000 0.83476  0.89443  0.08396  Biso   1.000  C
  C506     1.0000 0.77423  0.44598  0.59673  Biso   1.000  C
  C507     1.0000 0.76099  0.42518  0.58353  Biso   1.000  C
  C508     1.0000 0.75514  0.42007  0.59763  Biso   1.000  C
  C509     1.0000 0.39087  0.81653  0.37355  Biso   1.000  C
  C510     1.0000 0.80817  0.99433  0.92008  Biso   1.000  C
  C511     1.0000 0.74701  0.95846  0.01538  Biso   1.000  C
  C512     1.0000 0.75643  0.93417  0.00531  Biso   1.000  C
  C513     1.0000 0.44511  0.29368  0.17697  Biso   1.000  C
  C514     1.0000 0.46223  0.27622  0.16353  Biso   1.000  C
  C515     1.0000 0.43996  0.35369  0.15492  Biso   1.000  C
  C516     1.0000 0.42486  0.35865  0.15170  Biso   1.000  C
  C517     1.0000 0.45004  0.37626  0.14201  Biso   1.000  C
  C518     1.0000 0.41844  0.84713  0.56572  Biso   1.000  C
  C519     1.0000 0.48343  0.30331  0.09526  Biso   1.000  C
  C520     1.0000 0.48932  0.30896  0.10917  Biso   1.000  C
  C521     1.0000 0.48824  0.32807  0.08309  Biso   1.000  C
  C522     1.0000 0.80857  0.49456  0.41860  Biso   1.000  C
  C523     1.0000 0.74733  0.45905  0.51554  Biso   1.000  C
  C524     1.0000 0.75701  0.43520  0.50470  Biso   1.000  C
  C525     1.0000 0.44745  0.78963  0.68137  Biso   1.000  C
  C526     1.0000 0.46085  0.77855  0.65948  Biso   1.000  C
  C527     1.0000 0.44042  0.86122  0.65956  Biso   1.000  C
  C528     1.0000 0.42557  0.86662  0.65569  Biso   1.000  C
  C529     1.0000 0.45038  0.87145  0.63556  Biso   1.000  C
  C530     1.0000 0.42609  0.34467  0.07608  Biso   1.000  C
  C531     1.0000 0.41652  0.35388  0.08529  Biso   1.000  C
  C532     1.0000 0.48216  0.80248  0.59532  Biso   1.000  C
  C533     1.0000 0.48735  0.80704  0.60994  Biso   1.000  C
  C534     1.0000 0.49489  0.83185  0.59918  Biso   1.000  C
  C535     1.0000 0.89142  0.81689  0.87202  Biso   1.000  C
  C536     1.0000 0.30776  0.99475  0.41972  Biso   1.000  C
  C537     1.0000 0.25967  0.93817  0.50290  Biso   1.000  C
  C538     1.0000 0.94444  0.29414  0.67692  Biso   1.000  C
  C539     1.0000 0.96149  0.27685  0.66317  Biso   1.000  C
  C540     1.0000 0.93880  0.35403  0.65483  Biso   1.000  C
  C541     1.0000 0.92376  0.35891  0.65136  Biso   1.000  C
  C542     1.0000 0.94895  0.37690  0.64246  Biso   1.000  C
  C543     1.0000 0.92759  0.84151  0.07997  Biso   1.000  C
  C544     1.0000 0.98299  0.30385  0.59526  Biso   1.000  C
  C545     1.0000 0.98854  0.30980  0.60918  Biso   1.000  C
  C546     1.0000 0.98701  0.32872  0.58301  Biso   1.000  C
  C547     1.0000 0.89048  0.32263  0.37240  Biso   1.000  C
  C548     1.0000 0.31577  0.48017  0.91558  Biso   1.000  C
  C549     1.0000 0.26006  0.43732  0.00260  Biso   1.000  C
  C550     1.0000 0.94613  0.79307  0.17643  Biso   1.000  C
  C551     1.0000 0.96302  0.77588  0.16239  Biso   1.000  C
  C552     1.0000 0.94050  0.85428  0.15545  Biso   1.000  C
  C553     1.0000 0.92547  0.85942  0.15235  Biso   1.000  C
  C554     1.0000 0.95069  0.87513  0.13998  Biso   1.000  C
  C555     1.0000 0.92602  0.34449  0.57560  Biso   1.000  C
  C556     1.0000 0.91641  0.35375  0.58472  Biso   1.000  C
  C557     1.0000 0.98338  0.80292  0.09474  Biso   1.000  C
  C558     1.0000 0.98935  0.80859  0.10862  Biso   1.000  C
  C559     1.0000 0.98894  0.82740  0.08232  Biso   1.000  C
  C560     1.0000 0.85992  0.31371  0.37766  Biso   1.000  C
  C561     1.0000 0.44282  0.49096  0.81745  Biso   1.000  C
  C562     1.0000 0.43950  0.47576  0.82107  Biso   1.000  C
  C563     1.0000 0.50668  0.45098  0.73154  Biso   1.000  C
  C564     1.0000 0.48946  0.43823  0.74950  Biso   1.000  C
  C565     1.0000 0.80332  0.79421  0.57490  Biso   1.000  C
  C566     1.0000 0.78664  0.77525  0.58682  Biso   1.000  C
  C567     1.0000 0.82517  0.85655  0.60205  Biso   1.000  C
  C568     1.0000 0.80032  0.87600  0.60852  Biso   1.000  C
  C569     1.0000 0.81549  0.88091  0.61158  Biso   1.000  C
  C570     1.0000 0.82542  0.34681  0.17818  Biso   1.000  C
  C571     1.0000 0.76559  0.80384  0.65623  Biso   1.000  C
  C572     1.0000 0.75915  0.80967  0.64261  Biso   1.000  C
  C573     1.0000 0.76318  0.82904  0.66821  Biso   1.000  C
  C574     1.0000 0.44135  0.99412  0.32783  Biso   1.000  C
  C575     1.0000 0.43717  0.97892  0.33072  Biso   1.000  C
  C576     1.0000 0.49428  0.93590  0.24413  Biso   1.000  C
  C577     1.0000 0.79822  0.28664  0.06739  Biso   1.000  C
  C578     1.0000 0.79297  0.28168  0.09439  Biso   1.000  C
  C579     1.0000 0.80924  0.35738  0.09204  Biso   1.000  C
  C580     1.0000 0.82416  0.36251  0.09573  Biso   1.000  C
  C581     1.0000 0.79913  0.37155  0.11383  Biso   1.000  C
  C582     1.0000 0.82638  0.84612  0.67744  Biso   1.000  C
  C583     1.0000 0.76454  0.30099  0.15590  Biso   1.000  C
  C584     1.0000 0.76453  0.32716  0.16584  Biso   1.000  C
  C585     1.0000 0.75868  0.33242  0.15180  Biso   1.000  C
  C586     1.0000 0.35797  0.32268  0.88127  Biso   1.000  C
  C587     1.0000 0.93628  0.49676  0.33340  Biso   1.000  C
  C588     1.0000 0.98966  0.43838  0.24970  Biso   1.000  C
  C589     1.0000 0.30312  0.79197  0.07287  Biso   1.000  C
  C590     1.0000 0.28726  0.77582  0.08923  Biso   1.000  C
  C591     1.0000 0.31015  0.86186  0.08814  Biso   1.000  C
  C592     1.0000 0.30161  0.87023  0.11341  Biso   1.000  C
  C593     1.0000 0.31676  0.87465  0.11706  Biso   1.000  C
  C594     1.0000 0.32441  0.34398  0.67663  Biso   1.000  C
  C595     1.0000 0.33351  0.35393  0.66768  Biso   1.000  C
  C596     1.0000 0.26298  0.80795  0.15849  Biso   1.000  C
  C597     1.0000 0.25699  0.81346  0.14450  Biso   1.000  C
  C598     1.0000 0.26947  0.83409  0.16600  Biso   1.000  C
  C599     1.0000 0.93881  0.99669  0.83032  Biso   1.000  C
  C600     1.0000 0.00330  0.95896  0.73516  Biso   1.000  C
  C601     1.0000 0.99288  0.93548  0.74609  Biso   1.000  C
  C602     1.0000 0.30168  0.29242  0.57296  Biso   1.000  C
  C603     1.0000 0.28587  0.27563  0.58871  Biso   1.000  C
  C604     1.0000 0.30772  0.36202  0.59006  Biso   1.000  C
  C605     1.0000 0.29959  0.36993  0.61562  Biso   1.000  C
  C606     1.0000 0.31464  0.37500  0.61883  Biso   1.000  C
  C607     1.0000 0.33136  0.84602  0.18288  Biso   1.000  C
  C608     1.0000 0.26628  0.30225  0.65500  Biso   1.000  C
  C609     1.0000 0.25999  0.30843  0.64147  Biso   1.000  C
  C610     1.0000 0.26194  0.32665  0.66809  Biso   1.000  C
  C611     1.0000 0.63773  0.12596  0.57780  Biso   1.000  C
  C612     1.0000 0.06180  0.58020  0.74543  Biso   1.000  C
  C613     1.0000 0.06470  0.58340  0.72988  Biso   1.000  C
  C614     1.0000 0.99559  0.48500  0.70836  Biso   1.000  C
  C615     1.0000 0.69743  0.32244  0.04091  Biso   1.000  C
  C616     1.0000 0.71259  0.33981  0.02515  Biso   1.000  C
  C617     1.0000 0.67518  0.34244  0.11848  Biso   1.000  C
  C618     1.0000 0.69952  0.36363  0.11764  Biso   1.000  C
  C619     1.0000 0.68489  0.36829  0.12266  Biso   1.000  C
  C620     1.0000 0.67097  0.93171  0.59636  Biso   1.000  C
  C621     1.0000 0.73359  0.40442  0.05508  Biso   1.000  C
  C622     1.0000 0.73933  0.39064  0.06117  Biso   1.000  C
  C623     1.0000 0.73487  0.41608  0.08055  Biso   1.000  C
  C624     1.0000 0.63949  0.62604  0.07841  Biso   1.000  C
  C625     1.0000 0.05494  0.06989  0.24179  Biso   1.000  C
  C626     1.0000 0.05858  0.07387  0.22672  Biso   1.000  C
  C627     1.0000 0.00569  0.99353  0.21002  Biso   1.000  C
  C628     1.0000 0.69776  0.82310  0.54177  Biso   1.000  C
  C629     1.0000 0.67404  0.85087  0.60747  Biso   1.000  C
  C630     1.0000 0.69898  0.85866  0.62633  Biso   1.000  C
  C631     1.0000 0.68383  0.86209  0.63108  Biso   1.000  C
  C632     1.0000 0.67480  0.42278  0.09477  Biso   1.000  C
  C633     1.0000 0.66493  0.41387  0.10401  Biso   1.000  C
  C634     1.0000 0.73792  0.90750  0.55523  Biso   1.000  C
  C635     1.0000 0.74372  0.89350  0.56093  Biso   1.000  C
  C636     1.0000 0.73602  0.91724  0.58143  Biso   1.000  C
  C637     1.0000 0.13765  0.12549  0.07894  Biso   1.000  C
  C638     1.0000 0.55778  0.57665  0.24529  Biso   1.000  C
  C639     1.0000 0.56033  0.58054  0.22989  Biso   1.000  C
  C640     1.0000 0.50037  0.48744  0.20992  Biso   1.000  C
  C641     1.0000 0.19533  0.32375  0.54530  Biso   1.000  C
  C642     1.0000 0.21192  0.33590  0.52638  Biso   1.000  C
  C643     1.0000 0.17388  0.35181  0.60756  Biso   1.000  C
  C644     1.0000 0.19875  0.35733  0.62727  Biso   1.000  C
  C645     1.0000 0.18368  0.36105  0.63203  Biso   1.000  C
  C646     1.0000 0.17630  0.91945  0.08951  Biso   1.000  C
  C647     1.0000 0.16681  0.91043  0.09899  Biso   1.000  C
  C648     1.0000 0.23668  0.40830  0.55718  Biso   1.000  C
  C649     1.0000 0.24245  0.39418  0.56255  Biso   1.000  C
  C650     1.0000 0.23350  0.41695  0.58365  Biso   1.000  C
  C651     1.0000 0.13790  0.62735  0.57891  Biso   1.000  C
  C652     1.0000 0.56171  0.08048  0.74673  Biso   1.000  C
  C653     1.0000 0.56458  0.08376  0.73123  Biso   1.000  C
  C654     1.0000 0.50469  0.99377  0.71050  Biso   1.000  C
  C655     1.0000 0.19810  0.82215  0.04239  Biso   1.000  C
  C656     1.0000 0.17572  0.85138  0.10683  Biso   1.000  C
  C657     1.0000 0.20078  0.85960  0.12533  Biso   1.000  C
  C658     1.0000 0.18566  0.86269  0.13035  Biso   1.000  C
  C659     1.0000 0.16935  0.43287  0.59821  Biso   1.000  C
  C660     1.0000 0.23384  0.90529  0.05162  Biso   1.000  C
  C661     1.0000 0.23996  0.89155  0.05748  Biso   1.000  C
  C662     1.0000 0.23933  0.91804  0.07598  Biso   1.000  C
  C663     1.0000 0.11368  0.12431  0.05733  Biso   1.000  C
  C664     1.0000 0.68682  0.66927  0.24610  Biso   1.000  C
  C665     1.0000 0.68365  0.66577  0.23073  Biso   1.000  C
  C666     1.0000 0.74442  0.75494  0.18563  Biso   1.000  C
  C667     1.0000 0.05210  0.93021  0.53912  Biso   1.000  C
  C668     1.0000 0.03884  0.90805  0.52843  Biso   1.000  C
  C669     1.0000 0.05794  0.91077  0.61299  Biso   1.000  C
  C670     1.0000 0.05126  0.88401  0.61726  Biso   1.000  C
  C671     1.0000 0.06654  0.88099  0.62186  Biso   1.000  C
  C672     1.0000 0.07461  0.32383  0.09616  Biso   1.000  C
  C673     1.0000 0.08408  0.33321  0.10531  Biso   1.000  C
  C674     1.0000 0.02242  0.83903  0.57970  Biso   1.000  C
  C675     1.0000 0.01681  0.85342  0.58385  Biso   1.000  C
  C676     1.0000 0.01015  0.84142  0.55459  Biso   1.000  C
  C677     1.0000 0.11366  0.62689  0.55758  Biso   1.000  C
  C678     1.0000 0.69486  0.18032  0.74139  Biso   1.000  C
  C679     1.0000 0.69186  0.17734  0.72593  Biso   1.000  C
  C680     1.0000 0.74307  0.25462  0.68577  Biso   1.000  C
  C681     1.0000 0.03890  0.40964  0.02734  Biso   1.000  C
  C682     1.0000 0.06008  0.40424  0.10483  Biso   1.000  C
  C683     1.0000 0.07512  0.40090  0.10981  Biso   1.000  C
  C684     1.0000 0.04983  0.39084  0.12705  Biso   1.000  C
  C685     1.0000 0.07793  0.81801  0.59724  Biso   1.000  C
  C686     1.0000 0.01647  0.34474  0.05415  Biso   1.000  C
  C687     1.0000 0.01030  0.35846  0.05995  Biso   1.000  C
  C688     1.0000 0.01282  0.33256  0.07914  Biso   1.000  C
  C689     1.0000 0.61271  0.12447  0.55747  Biso   1.000  C
  C690     1.0000 0.19261  0.67208  0.74359  Biso   1.000  C
  C691     1.0000 0.18847  0.66881  0.72842  Biso   1.000  C
  C692     1.0000 0.24236  0.75426  0.68507  Biso   1.000  C
  C693     1.0000 0.55229  0.93051  0.03855  Biso   1.000  C
  C694     1.0000 0.53890  0.90849  0.02773  Biso   1.000  C
  C695     1.0000 0.55825  0.91001  0.11440  Biso   1.000  C
  C696     1.0000 0.55118  0.88311  0.11600  Biso   1.000  C
  C697     1.0000 0.56617  0.87950  0.12087  Biso   1.000  C
  C698     1.0000 0.57632  0.32062  0.59608  Biso   1.000  C
  C699     1.0000 0.58547  0.33024  0.60536  Biso   1.000  C
  C700     1.0000 0.52458  0.83943  0.08009  Biso   1.000  C
  C701     1.0000 0.51870  0.85388  0.08383  Biso   1.000  C
  C702     1.0000 0.51190  0.84075  0.05513  Biso   1.000  C
  C703     1.0000 0.61511  0.62493  0.05727  Biso   1.000  C
  C704     1.0000 0.18480  0.16814  0.24640  Biso   1.000  C
  C705     1.0000 0.18200  0.16510  0.23088  Biso   1.000  C
  C706     1.0000 0.24345  0.25506  0.18668  Biso   1.000  C
  C707     1.0000 0.53771  0.40836  0.52688  Biso   1.000  C
  C708     1.0000 0.55926  0.40452  0.60409  Biso   1.000  C
  C709     1.0000 0.57431  0.40114  0.60904  Biso   1.000  C
  C710     1.0000 0.54903  0.39110  0.62630  Biso   1.000  C
  C711     1.0000 0.58542  0.81436  0.09657  Biso   1.000  C
  C712     1.0000 0.59483  0.82408  0.10553  Biso   1.000  C
  C713     1.0000 0.51249  0.34260  0.55446  Biso   1.000  C
  C714     1.0000 0.50625  0.35644  0.56004  Biso   1.000  C
  C715     1.0000 0.51420  0.33291  0.58070  Biso   1.000  C
  C716     1.0000 0.14112  0.61880  0.68499  Biso   1.000  C
  C717     1.0000 0.55458  0.17819  0.50829  Biso   1.000  C
  C718     1.0000 0.55834  0.17495  0.52354  Biso   1.000  C
  C719     1.0000 0.50529  0.25645  0.56315  Biso   1.000  C
  C720     1.0000 0.19840  0.42975  0.21148  Biso   1.000  C
  C721     1.0000 0.21109  0.40748  0.22262  Biso   1.000  C
  C722     1.0000 0.19173  0.40901  0.13857  Biso   1.000  C
  C723     1.0000 0.17660  0.40509  0.13421  Biso   1.000  C
  C724     1.0000 0.20043  0.38369  0.13078  Biso   1.000  C
  C725     1.0000 0.17125  0.81934  0.65303  Biso   1.000  C
  C726     1.0000 0.16196  0.82875  0.64371  Biso   1.000  C
  C727     1.0000 0.23316  0.34283  0.19613  Biso   1.000  C
  C728     1.0000 0.23862  0.35731  0.19154  Biso   1.000  C
  C729     1.0000 0.24142  0.34776  0.16531  Biso   1.000  C
  C730     1.0000 0.55751  0.68236  0.00898  Biso   1.000  C
  C731     1.0000 0.56134  0.67869  0.02405  Biso   1.000  C
  C732     1.0000 0.50691  0.75502  0.06607  Biso   1.000  C
  C733     1.0000 0.21127  0.91181  0.72366  Biso   1.000  C
  C734     1.0000 0.19172  0.90923  0.63826  Biso   1.000  C
  C735     1.0000 0.17656  0.90526  0.63395  Biso   1.000  C
  C736     1.0000 0.20057  0.88420  0.62989  Biso   1.000  C
  C737     1.0000 0.17049  0.31690  0.15369  Biso   1.000  C
  C738     1.0000 0.23823  0.84049  0.69350  Biso   1.000  C
  C739     1.0000 0.24380  0.85498  0.68896  Biso   1.000  C
  C740     1.0000 0.22602  0.83752  0.66849  Biso   1.000  C
  C741     1.0000 0.06312  0.16860  0.00310  Biso   1.000  C
  C742     1.0000 0.06603  0.16522  0.01858  Biso   1.000  C
  C743     1.0000 0.99523  0.26695  0.04148  Biso   1.000  C
  C744     1.0000 0.00599  0.25416  0.06395  Biso   1.000  C
  C745     1.0000 0.69841  0.43011  0.71038  Biso   1.000  C
  C746     1.0000 0.71110  0.40778  0.72141  Biso   1.000  C
  C747     1.0000 0.69103  0.40954  0.63803  Biso   1.000  C
  C748     1.0000 0.67583  0.40563  0.63390  Biso   1.000  C
  C749     1.0000 0.69973  0.38451  0.62928  Biso   1.000  C
  C750     1.0000 0.66824  0.81431  0.15215  Biso   1.000  C
  C751     1.0000 0.73291  0.34271  0.69443  Biso   1.000  C
  C752     1.0000 0.73824  0.35724  0.68986  Biso   1.000  C
  C753     1.0000 0.74065  0.34791  0.66352  Biso   1.000  C
  C754     1.0000 0.05680  0.68242  0.50910  Biso   1.000  C
  C755     1.0000 0.06029  0.67922  0.52439  Biso   1.000  C
  C756     1.0000 0.00478  0.75596  0.56448  Biso   1.000  C
  C757     1.0000 0.70866  0.90442  0.22000  Biso   1.000  C
  C758     1.0000 0.69084  0.91082  0.14096  Biso   1.000  C
  C759     1.0000 0.70054  0.88769  0.12879  Biso   1.000  C
  C760     1.0000 0.68555  0.88390  0.12406  Biso   1.000  C
  C761     1.0000 0.67023  0.31736  0.65248  Biso   1.000  C
  C762     1.0000 0.73818  0.84110  0.19453  Biso   1.000  C
  C763     1.0000 0.73244  0.83498  0.16779  Biso   1.000  C
  C764     1.0000 0.73808  0.84927  0.16332  Biso   1.000  C
  C765     1.0000 0.61056  0.62891  0.18447  Biso   1.000  C
  C766     1.0000 0.19163  0.07711  0.00745  Biso   1.000  C
  C767     1.0000 0.18786  0.07953  0.02286  Biso   1.000  C
  C768     1.0000 0.25613  0.98287  0.04396  Biso   1.000  C
  C769     1.0000 0.55403  0.82247  0.70778  Biso   1.000  C
  C770     1.0000 0.53819  0.83772  0.72498  Biso   1.000  C
  C771     1.0000 0.55765  0.84100  0.63918  Biso   1.000  C
  C772     1.0000 0.57274  0.84499  0.63469  Biso   1.000  C
  C773     1.0000 0.54861  0.86593  0.63064  Biso   1.000  C
  C774     1.0000 0.57817  0.42956  0.15338  Biso   1.000  C
  C775     1.0000 0.58774  0.42038  0.14406  Biso   1.000  C
  C776     1.0000 0.51119  0.90883  0.69484  Biso   1.000  C
  C777     1.0000 0.50548  0.89440  0.69029  Biso   1.000  C
  C778     1.0000 0.52365  0.91158  0.66994  Biso   1.000  C
  C779     1.0000 0.61110  0.12801  0.68634  Biso   1.000  C
  C780     1.0000 0.18391  0.58435  0.51963  Biso   1.000  C
  C781     1.0000 0.25122  0.48684  0.54009  Biso   1.000  C
  C782     1.0000 0.55141  0.32218  0.21009  Biso   1.000  C
  C783     1.0000 0.57425  0.34250  0.13195  Biso   1.000  C
  C784     1.0000 0.55053  0.36436  0.13371  Biso   1.000  C
  C785     1.0000 0.56535  0.36882  0.12906  Biso   1.000  C
  C786     1.0000 0.57959  0.93366  0.65254  Biso   1.000  C
  C787     1.0000 0.51637  0.40531  0.19534  Biso   1.000  C
  C788     1.0000 0.51020  0.39159  0.18960  Biso   1.000  C
  C789     1.0000 0.51421  0.41689  0.16989  Biso   1.000  C
  C790     1.0000 0.11006  0.62751  0.68328  Biso   1.000  C
  C791     1.0000 0.69229  0.07634  0.50712  Biso   1.000  C
  C792     1.0000 0.68815  0.07900  0.52241  Biso   1.000  C
  C793     1.0000 0.75467  0.98530  0.54109  Biso   1.000  C
  C794     1.0000 0.05261  0.82198  0.20844  Biso   1.000  C
  C795     1.0000 0.06049  0.84053  0.14153  Biso   1.000  C
  C796     1.0000 0.07548  0.84463  0.13692  Biso   1.000  C
  C797     1.0000 0.05043  0.86295  0.12834  Biso   1.000  C
  C798     1.0000 0.07463  0.42652  0.65557  Biso   1.000  C
  C799     1.0000 0.08381  0.41748  0.64586  Biso   1.000  C
  C800     1.0000 0.01320  0.90743  0.19385  Biso   1.000  C
  C801     1.0000 0.00729  0.89341  0.18839  Biso   1.000  C
  C802     1.0000 0.01590  0.91642  0.16744  Biso   1.000  C
  C803     1.0000 0.11137  0.12790  0.18477  Biso   1.000  C
  C804     1.0000 0.69257  0.57434  0.00834  Biso   1.000  C
  C805     1.0000 0.68875  0.57695  0.02371  Biso   1.000  C
  C806     1.0000 0.74915  0.48740  0.04002  Biso   1.000  C
  C807     1.0000 0.05116  0.32293  0.70896  Biso   1.000  C
  C808     1.0000 0.05864  0.34161  0.64284  Biso   1.000  C
  C809     1.0000 0.07364  0.34557  0.63826  Biso   1.000  C
  C810     1.0000 0.04867  0.36364  0.62893  Biso   1.000  C
  C811     1.0000 0.08013  0.93239  0.15167  Biso   1.000  C
  C812     1.0000 0.01502  0.40552  0.69618  Biso   1.000  C
  C813     1.0000 0.00892  0.39185  0.69025  Biso   1.000  C
  C814     1.0000 0.01248  0.41756  0.67097  Biso   1.000  C
  C815     1.0000 0.62794  0.18644  0.60922  Biso   1.000  C
  C816     1.0000 0.08014  0.00451  0.18843  Biso   1.000  C
  C817     1.0000 0.08325  0.02009  0.18587  Biso   1.000  C
  C818     1.0000 0.98364  0.04166  0.25377  Biso   1.000  C
  C819     1.0000 0.99603  0.06487  0.24422  Biso   1.000  C
  C820     1.0000 0.82075  0.70951  0.55172  Biso   1.000  C
  C821     1.0000 0.84476  0.64599  0.55923  Biso   1.000  C
  C822     1.0000 0.84823  0.64176  0.57448  Biso   1.000  C
  C823     1.0000 0.86119  0.61890  0.56519  Biso   1.000  C
  C824     1.0000 0.42871  0.15488  0.57824  Biso   1.000  C
  C825     1.0000 0.41935  0.14537  0.58746  Biso   1.000  C
  C826     1.0000 0.90825  0.69489  0.51166  Biso   1.000  C
  C827     1.0000 0.91497  0.66809  0.51618  Biso   1.000  C
  C828     1.0000 0.90068  0.66356  0.51058  Biso   1.000  C
  C829     1.0000 0.62477  0.69178  0.11386  Biso   1.000  C
  C830     1.0000 0.06810  0.50941  0.69463  Biso   1.000  C
  C831     1.0000 0.07181  0.52438  0.69046  Biso   1.000  C
  C832     1.0000 0.98784  0.53958  0.75157  Biso   1.000  C
  C833     1.0000 0.99141  0.56702  0.74769  Biso   1.000  C
  C834     1.0000 0.84527  0.22027  0.04062  Biso   1.000  C
  C835     1.0000 0.84188  0.14225  0.05891  Biso   1.000  C
  C836     1.0000 0.84481  0.13735  0.07406  Biso   1.000  C
  C837     1.0000 0.86754  0.12376  0.06530  Biso   1.000  C
  C838     1.0000 0.42410  0.65653  0.07472  Biso   1.000  C
  C839     1.0000 0.41448  0.64689  0.08343  Biso   1.000  C
  C840     1.0000 0.90577  0.19559  0.01450  Biso   1.000  C
  C841     1.0000 0.89212  0.18982  0.00823  Biso   1.000  C
  C842     1.0000 0.91720  0.17005  0.01312  Biso   1.000  C
  C843     1.0000 0.58069  0.00474  0.68784  Biso   1.000  C
  C844     1.0000 0.58410  0.02013  0.68461  Biso   1.000  C
  C845     1.0000 0.48453  0.04232  0.75376  Biso   1.000  C
  C846     1.0000 0.49597  0.06579  0.74391  Biso   1.000  C
  C847     1.0000 0.32306  0.70996  0.05174  Biso   1.000  C
  C848     1.0000 0.34206  0.64298  0.05909  Biso   1.000  C
  C849     1.0000 0.34475  0.63789  0.07424  Biso   1.000  C
  C850     1.0000 0.36705  0.62364  0.06548  Biso   1.000  C
  C851     1.0000 0.92020  0.15951  0.07443  Biso   1.000  C
  C852     1.0000 0.91072  0.15011  0.08356  Biso   1.000  C
  C853     1.0000 0.40928  0.69609  0.01268  Biso   1.000  C
  C854     1.0000 0.41626  0.66920  0.01614  Biso   1.000  C
  C855     1.0000 0.40210  0.66477  0.01012  Biso   1.000  C
  C856     1.0000 0.12425  0.69235  0.61472  Biso   1.000  C
  C857     1.0000 0.57914  0.50678  0.19126  Biso   1.000  C
  C858     1.0000 0.58185  0.52216  0.18775  Biso   1.000  C
  C859     1.0000 0.48531  0.54229  0.25270  Biso   1.000  C
  C860     1.0000 0.49597  0.56612  0.24281  Biso   1.000  C
  C861     1.0000 0.34334  0.22151  0.54015  Biso   1.000  C
  C862     1.0000 0.34019  0.14165  0.56002  Biso   1.000  C
  C863     1.0000 0.36280  0.12858  0.55026  Biso   1.000  C
  C864     1.0000 0.36639  0.12369  0.56527  Biso   1.000  C
  C865     1.0000 0.92408  0.65630  0.57441  Biso   1.000  C
  C866     1.0000 0.91462  0.64671  0.58333  Biso   1.000  C
  C867     1.0000 0.40903  0.19425  0.51168  Biso   1.000  C
  C868     1.0000 0.39465  0.18959  0.50603  Biso   1.000  C
  C869     1.0000 0.40190  0.16285  0.51018  Biso   1.000  C
  C870     1.0000 0.62346  0.67085  0.13839  Biso   1.000  C
  C871     1.0000 0.16862  0.50446  0.56042  Biso   1.000  C
  C872     1.0000 0.25167  0.56179  0.50990  Biso   1.000  C
  C873     1.0000 0.41300  0.22398  0.21204  Biso   1.000  C
  C874     1.0000 0.40898  0.13691  0.19225  Biso   1.000  C
  C875     1.0000 0.38227  0.13382  0.19953  Biso   1.000  C
  C876     1.0000 0.37879  0.12904  0.18444  Biso   1.000  C
  C877     1.0000 0.82126  0.65295  0.17254  Biso   1.000  C
  C878     1.0000 0.83004  0.64369  0.16253  Biso   1.000  C
  C879     1.0000 0.36057  0.18230  0.22651  Biso   1.000  C
  C880     1.0000 0.33443  0.18261  0.24559  Biso   1.000  C
  C881     1.0000 0.34874  0.17832  0.25165  Biso   1.000  C
  C882     1.0000 0.62219  0.17821  0.63993  Biso   1.000  C
  C883     1.0000 0.17213  0.00658  0.05842  Biso   1.000  C
  C884     1.0000 0.16913  0.02167  0.06286  Biso   1.000  C
  C885     1.0000 0.25812  0.06656  0.00202  Biso   1.000  C
  C886     1.0000 0.43042  0.71121  0.69794  Biso   1.000  C
  C887     1.0000 0.40799  0.72190  0.71077  Biso   1.000  C
  C888     1.0000 0.41017  0.63489  0.69274  Biso   1.000  C
  C889     1.0000 0.38332  0.63297  0.69993  Biso   1.000  C
  C890     1.0000 0.37971  0.62809  0.68491  Biso   1.000  C
  C891     1.0000 0.81679  0.15396  0.66734  Biso   1.000  C
  C892     1.0000 0.82569  0.14445  0.65772  Biso   1.000  C
  C893     1.0000 0.35913  0.69244  0.73947  Biso   1.000  C
  C894     1.0000 0.33546  0.67105  0.73463  Biso   1.000  C
  C895     1.0000 0.34959  0.66614  0.74038  Biso   1.000  C
  C896     1.0000 0.12240  0.67170  0.63944  Biso   1.000  C
  C897     1.0000 0.67098  0.50580  0.05933  Biso   1.000  C
  C898     1.0000 0.66744  0.52080  0.06378  Biso   1.000  C
  C899     1.0000 0.75770  0.56530  0.00358  Biso   1.000  C
  C900     1.0000 0.91271  0.22486  0.71211  Biso   1.000  C
  C901     1.0000 0.90968  0.13783  0.69206  Biso   1.000  C
  C902     1.0000 0.88301  0.13454  0.69939  Biso   1.000  C
  C903     1.0000 0.87958  0.12955  0.68436  Biso   1.000  C
  C904     1.0000 0.31506  0.65332  0.66639  Biso   1.000  C
  C905     1.0000 0.32424  0.64404  0.65674  Biso   1.000  C
  C906     1.0000 0.86080  0.18322  0.72654  Biso   1.000  C
  C907     1.0000 0.83473  0.18341  0.74572  Biso   1.000  C
  C908     1.0000 0.84910  0.17924  0.75173  Biso   1.000  C
  C909     1.0000 0.11931  0.17888  0.14116  Biso   1.000  C
  C910     1.0000 0.66932  0.00374  0.56188  Biso   1.000  C
  C911     1.0000 0.66578  0.01905  0.56547  Biso   1.000  C
  C912     1.0000 0.75860  0.06628  0.50210  Biso   1.000  C
  C913     1.0000 0.91380  0.72327  0.21107  Biso   1.000  C
  C914     1.0000 0.90989  0.63644  0.19165  Biso   1.000  C
  C915     1.0000 0.88350  0.63245  0.19960  Biso   1.000  C
  C916     1.0000 0.87972  0.62785  0.18455  Biso   1.000  C
  C917     1.0000 0.31615  0.15385  0.16685  Biso   1.000  C
  C918     1.0000 0.32503  0.14433  0.15723  Biso   1.000  C
  C919     1.0000 0.85896  0.69181  0.24078  Biso   1.000  C
  C920     1.0000 0.83599  0.67010  0.23427  Biso   1.000  C
  C921     1.0000 0.85030  0.66522  0.23960  Biso   1.000  C
  C922     1.0000 0.12042  0.06749  0.10992  Biso   1.000  C
  C923     1.0000 0.66663  0.22839  0.68748  Biso   1.000  C
  C924     1.0000 0.75213  0.20566  0.74054  Biso   1.000  C
  C925     1.0000 0.76506  0.18470  0.75387  Biso   1.000  C
  C926     1.0000 0.92793  0.54400  0.05504  Biso   1.000  C
  C927     1.0000 0.91465  0.52645  0.03788  Biso   1.000  C
  C928     1.0000 0.90764  0.60775  0.06009  Biso   1.000  C
  C929     1.0000 0.90359  0.61271  0.07503  Biso   1.000  C
  C930     1.0000 0.88893  0.62544  0.04921  Biso   1.000  C
  C931     1.0000 0.32132  0.09658  0.07605  Biso   1.000  C
  C932     1.0000 0.85503  0.56058  0.00405  Biso   1.000  C
  C933     1.0000 0.83596  0.57887  0.02270  Biso   1.000  C
  C934     1.0000 0.85011  0.58452  0.01778  Biso   1.000  C
  C935     1.0000 0.12479  0.58177  0.61326  Biso   1.000  C
  C936     1.0000 0.66682  0.72879  0.18441  Biso   1.000  C
  C937     1.0000 0.75901  0.68568  0.24768  Biso   1.000  C
  C938     1.0000 0.92696  0.04429  0.55560  Biso   1.000  C
  C939     1.0000 0.91417  0.02657  0.53823  Biso   1.000  C
  C940     1.0000 0.90842  0.10772  0.56002  Biso   1.000  C
  C941     1.0000 0.90453  0.11281  0.57495  Biso   1.000  C
  C942     1.0000 0.88937  0.12504  0.54919  Biso   1.000  C
  C943     1.0000 0.32501  0.59581  0.57470  Biso   1.000  C
  C944     1.0000 0.83771  0.06118  0.50598  Biso   1.000  C
  C945     1.0000 0.85239  0.06550  0.50085  Biso   1.000  C
  C946     1.0000 0.84343  0.07211  0.53119  Biso   1.000  C
  C947     1.0000 0.61922  0.06903  0.60903  Biso   1.000  C
  C948     1.0000 0.16573  0.22897  0.18524  Biso   1.000  C
  C949     1.0000 0.25250  0.20679  0.24064  Biso   1.000  C
  C950     1.0000 0.26365  0.18401  0.25249  Biso   1.000  C
  C951     1.0000 0.42726  0.54360  0.55513  Biso   1.000  C
  C952     1.0000 0.41430  0.52615  0.53765  Biso   1.000  C
  C953     1.0000 0.40830  0.60742  0.56048  Biso   1.000  C
  C954     1.0000 0.40463  0.61268  0.57545  Biso   1.000  C
  C955     1.0000 0.38955  0.62510  0.54972  Biso   1.000  C
  C956     1.0000 0.82097  0.09708  0.57681  Biso   1.000  C
  C957     1.0000 0.33444  0.57881  0.51509  Biso   1.000  C
  C958     1.0000 0.34863  0.58399  0.50971  Biso   1.000  C
  C959     1.0000 0.34439  0.55264  0.51586  Biso   1.000  C
  C960     1.0000 0.62383  0.58124  0.11356  Biso   1.000  C
  C961     1.0000 0.16633  0.72805  0.68578  Biso   1.000  C
  C962     1.0000 0.25970  0.68515  0.74802  Biso   1.000  C
  C963     1.0000 0.42742  0.04349  0.05623  Biso   1.000  C
  C964     1.0000 0.41464  0.02581  0.03884  Biso   1.000  C
  C965     1.0000 0.40861  0.10712  0.06049  Biso   1.000  C
  C966     1.0000 0.40458  0.11233  0.07535  Biso   1.000  C
  C967     1.0000 0.38965  0.12439  0.04938  Biso   1.000  C
  C968     1.0000 0.82561  0.59363  0.07519  Biso   1.000  C
  C969     1.0000 0.83452  0.60298  0.08500  Biso   1.000  C
  C970     1.0000 0.33808  0.06066  0.00518  Biso   1.000  C
  C971     1.0000 0.35290  0.06488  0.00032  Biso   1.000  C
  C972     1.0000 0.34385  0.07054  0.03081  Biso   1.000  C
  C973     1.0000 0.12405  0.55823  0.63536  Biso   1.000  C
  C974     1.0000 0.57687  0.74378  0.05847  Biso   1.000  C
  C975     1.0000 0.58052  0.72833  0.06093  Biso   1.000  C
  C976     1.0000 0.49760  0.70934  0.00893  Biso   1.000  C
  C977     1.0000 0.48608  0.68670  0.99721  Biso   1.000  C
  C978     1.0000 0.32210  0.04158  0.69707  Biso   1.000  C
  C979     1.0000 0.33965  0.11128  0.69057  Biso   1.000  C
  C980     1.0000 0.34376  0.11640  0.67569  Biso   1.000  C
  C981     1.0000 0.36333  0.12209  0.70083  Biso   1.000  C
  C982     1.0000 0.36760  0.12684  0.68595  Biso   1.000  C
  C983     1.0000 0.92905  0.59652  0.67202  Biso   1.000  C
  C984     1.0000 0.91984  0.60578  0.66248  Biso   1.000  C
  C985     1.0000 0.39423  0.06103  0.74579  Biso   1.000  C
  C986     1.0000 0.41358  0.08004  0.72821  Biso   1.000  C
  C987     1.0000 0.39941  0.08553  0.73321  Biso   1.000  C
  C988     1.0000 0.57485  0.24369  0.55795  Biso   1.000  C
  C989     1.0000 0.57874  0.22834  0.56057  Biso   1.000  C
  C990     1.0000 0.48542  0.18599  0.49707  Biso   1.000  C
  C991     1.0000 0.32826  0.54497  0.19393  Biso   1.000  C
  C992     1.0000 0.34021  0.61270  0.19171  Biso   1.000  C
  C993     1.0000 0.34397  0.61707  0.17653  Biso   1.000  C
  C994     1.0000 0.36578  0.61997  0.20006  Biso   1.000  C
  C995     1.0000 0.92743  0.09686  0.17449  Biso   1.000  C
  C996     1.0000 0.40557  0.55348  0.23453  Biso   1.000  C
  C997     1.0000 0.39137  0.55912  0.23962  Biso   1.000  C
  C998     1.0000 0.41469  0.57966  0.23093  Biso   1.000  C
  C999     1.0000 0.62347  0.55941  0.13734  Biso   1.000  C
  C1000    1.0000 0.07576  0.74470  0.55921  Biso   1.000  C
  C1001    1.0000 0.07960  0.72941  0.56210  Biso   1.000  C
  C1002    1.0000 0.99710  0.70867  0.50850  Biso   1.000  C
  C1003    1.0000 0.98589  0.68607  0.49636  Biso   1.000  C
  C1004    1.0000 0.82195  0.04203  0.19623  Biso   1.000  C
  C1005    1.0000 0.83805  0.02645  0.21288  Biso   1.000  C
  C1006    1.0000 0.84528  0.10449  0.19007  Biso   1.000  C
  C1007    1.0000 0.84876  0.10938  0.17504  Biso   1.000  C
  C1008    1.0000 0.85826  0.12696  0.20028  Biso   1.000  C
  C1009    1.0000 0.42400  0.59431  0.17469  Biso   1.000  C
  C1010    1.0000 0.41494  0.60360  0.16509  Biso   1.000  C
  C1011    1.0000 0.90612  0.05319  0.23351  Biso   1.000  C
  C1012    1.0000 0.91606  0.07937  0.23412  Biso   1.000  C
  C1013    1.0000 0.90192  0.08455  0.23965  Biso   1.000  C
  C1014    1.0000 0.06970  0.24074  0.05564  Biso   1.000  C
  C1015    1.0000 0.07294  0.22539  0.05873  Biso   1.000  C
  C1016    1.0000 0.99598  0.18473  0.00701  Biso   1.000  C
  C1017    1.0000 0.82037  0.54105  0.69754  Biso   1.000  C
  C1018    1.0000 0.84071  0.60843  0.69019  Biso   1.000  C
  C1019    1.0000 0.84479  0.61329  0.67527  Biso   1.000  C
  C1020    1.0000 0.86353  0.62080  0.70037  Biso   1.000  C
  C1021    1.0000 0.42400  0.09584  0.67495  Biso   1.000  C
  C1022    1.0000 0.41501  0.10507  0.66508  Biso   1.000  C
  C1023    1.0000 0.91250  0.56101  0.74494  Biso   1.000  C
  C1024    1.0000 0.89778  0.56516  0.75015  Biso   1.000  C
  C1025    1.0000 0.90599  0.57059  0.71938  Biso   1.000  C
  C1026    1.0000 0.68445  0.13871  0.62113  Biso   1.000  C
  C1027    1.0000 0.51941  0.56513  0.16424  Biso   1.000  C
  C1028    1.0000 0.53840  0.50508  0.25660  Biso   1.000  C
  C1029    1.0000 0.56375  0.49714  0.26528  Biso   1.000  C
  C1030    1.0000 0.21110  0.19813  0.43107  Biso   1.000  C
  C1031    1.0000 0.22211  0.21166  0.40921  Biso   1.000  C
  C1032    1.0000 0.12664  0.17712  0.40599  Biso   1.000  C
  C1033    1.0000 0.13584  0.19824  0.38339  Biso   1.000  C
  C1034    1.0000 0.13068  0.18351  0.37915  Biso   1.000  C
  C1035    1.0000 0.65106  0.16619  0.84116  Biso   1.000  C
  C1036    1.0000 0.19677  0.22598  0.34784  Biso   1.000  C
  C1037    1.0000 0.19170  0.23228  0.36179  Biso   1.000  C
  C1038    1.0000 0.17769  0.24112  0.33402  Biso   1.000  C
  C1039    1.0000 0.68068  0.63853  0.12076  Biso   1.000  C
  C1040    1.0000 0.50437  0.06228  0.66758  Biso   1.000  C
  C1041    1.0000 0.53834  0.99896  0.76103  Biso   1.000  C
  C1042    1.0000 0.56625  0.00102  0.76076  Biso   1.000  C
  C1043    1.0000 0.21346  0.70095  0.93170  Biso   1.000  C
  C1044    1.0000 0.22019  0.70847  0.90568  Biso   1.000  C
  C1045    1.0000 0.13127  0.67571  0.90799  Biso   1.000  C
  C1046    1.0000 0.13261  0.69961  0.88629  Biso   1.000  C
  C1047    1.0000 0.12769  0.68489  0.88184  Biso   1.000  C
  C1048    1.0000 0.64294  0.66155  0.32815  Biso   1.000  C
  C1049    1.0000 0.19558  0.73389  0.84520  Biso   1.000  C
  C1050    1.0000 0.18972  0.73975  0.85903  Biso   1.000  C
  C1051    1.0000 0.17017  0.73586  0.83358  Biso   1.000  C
  C1052    1.0000 0.17968  0.13945  0.12032  Biso   1.000  C
  C1053    1.0000 0.00253  0.56286  0.66756  Biso   1.000  C
  C1054    1.0000 0.03921  0.50588  0.75667  Biso   1.000  C
  C1055    1.0000 0.06384  0.49670  0.76618  Biso   1.000  C
  C1056    1.0000 0.71290  0.20109  0.93183  Biso   1.000  C
  C1057    1.0000 0.71995  0.20857  0.90587  Biso   1.000  C
  C1058    1.0000 0.63687  0.17457  0.90652  Biso   1.000  C
  C1059    1.0000 0.62792  0.19965  0.88842  Biso   1.000  C
  C1060    1.0000 0.62286  0.18470  0.88463  Biso   1.000  C
  C1061    1.0000 0.14238  0.16054  0.32850  Biso   1.000  C
  C1062    1.0000 0.69653  0.23362  0.84465  Biso   1.000  C
  C1063    1.0000 0.69070  0.23960  0.85848  Biso   1.000  C
  C1064    1.0000 0.67108  0.23551  0.83312  Biso   1.000  C
  C1065    1.0000 0.17976  0.63894  0.62083  Biso   1.000  C
  C1066    1.0000 0.00477  0.06196  0.16683  Biso   1.000  C
  C1067    1.0000 0.04279  0.99557  0.26412  Biso   1.000  C
  C1068    1.0000 0.06742  0.00532  0.25519  Biso   1.000  C
  C1069    1.0000 0.70879  0.69803  0.42737  Biso   1.000  C
  C1070    1.0000 0.72505  0.71413  0.41136  Biso   1.000  C
  C1071    1.0000 0.63179  0.67582  0.40758  Biso   1.000  C
  C1072    1.0000 0.63372  0.69971  0.38592  Biso   1.000  C
  C1073    1.0000 0.62899  0.68495  0.38131  Biso   1.000  C
  C1074    1.0000 0.15421  0.67505  0.82443  Biso   1.000  C
  C1075    1.0000 0.69579  0.73405  0.34583  Biso   1.000  C
  C1076    1.0000 0.68995  0.73996  0.35967  Biso   1.000  C
  C1077    1.0000 0.67061  0.73710  0.33392  Biso   1.000  C
  C1078    1.0000 0.02016  0.18542  0.08506  Biso   1.000  C
  C1079    1.0000 0.03969  0.25190  0.98613  Biso   1.000  C
  C1080    1.0000 0.72324  0.53762  0.83822  Biso   1.000  C
  C1081    1.0000 0.64070  0.55856  0.83910  Biso   1.000  C
  C1082    1.0000 0.62730  0.54953  0.86186  Biso   1.000  C
  C1083    1.0000 0.62275  0.56476  0.86520  Biso   1.000  C
  C1084    1.0000 0.15375  0.57703  0.42846  Biso   1.000  C
  C1085    1.0000 0.14454  0.58652  0.41910  Biso   1.000  C
  C1086    1.0000 0.68990  0.50399  0.89392  Biso   1.000  C
  C1087    1.0000 0.67065  0.52089  0.91364  Biso   1.000  C
  C1088    1.0000 0.66509  0.51571  0.89953  Biso   1.000  C
  C1089    1.0000 0.00255  0.68662  0.58231  Biso   1.000  C
  C1090    1.0000 0.04136  0.75198  0.48552  Biso   1.000  C
  C1091    1.0000 0.06619  0.74390  0.49539  Biso   1.000  C
  C1092    1.0000 0.72364  0.03820  0.33769  Biso   1.000  C
  C1093    1.0000 0.64159  0.05936  0.33827  Biso   1.000  C
  C1094    1.0000 0.62787  0.05016  0.36078  Biso   1.000  C
  C1095    1.0000 0.62325  0.06534  0.36417  Biso   1.000  C
  C1096    1.0000 0.15509  0.07597  0.92255  Biso   1.000  C
  C1097    1.0000 0.14610  0.08560  0.91317  Biso   1.000  C
  C1098    1.0000 0.68981  0.00439  0.39363  Biso   1.000  C
  C1099    1.0000 0.67075  0.02167  0.41321  Biso   1.000  C
  C1100    1.0000 0.66520  0.01662  0.39901  Biso   1.000  C
  C1101    1.0000 0.52066  0.18836  0.58360  Biso   1.000  C
  C1102    1.0000 0.54185  0.25173  0.48508  Biso   1.000  C
  C1103    1.0000 0.56551  0.24180  0.49612  Biso   1.000  C
  C1104    1.0000 0.22391  0.53773  0.33913  Biso   1.000  C
  C1105    1.0000 0.14228  0.55892  0.33965  Biso   1.000  C
  C1106    1.0000 0.12905  0.55016  0.36260  Biso   1.000  C
  C1107    1.0000 0.12432  0.56539  0.36566  Biso   1.000  C
  C1108    1.0000 0.65887  0.57393  0.92018  Biso   1.000  C
  C1109    1.0000 0.64945  0.58335  0.91102  Biso   1.000  C
  C1110    1.0000 0.19149  0.50516  0.39377  Biso   1.000  C
  C1111    1.0000 0.17020  0.51493  0.41601  Biso   1.000  C
  C1112    1.0000 0.16505  0.50954  0.40184  Biso   1.000  C
  C1113    1.0000 0.52160  0.68684  0.08313  Biso   1.000  C
  C1114    1.0000 0.54158  0.75195  0.98593  Biso   1.000  C
  C1115    1.0000 0.56665  0.74378  0.99509  Biso   1.000  C
  C1116    1.0000 0.22370  0.03722  0.83580  Biso   1.000  C
  C1117    1.0000 0.13747  0.05850  0.83720  Biso   1.000  C
  C1118    1.0000 0.12965  0.05036  0.86270  Biso   1.000  C
  C1119    1.0000 0.12532  0.06551  0.86622  Biso   1.000  C
  C1120    1.0000 0.65927  0.07445  0.41908  Biso   1.000  C
  C1121    1.0000 0.64984  0.08388  0.40994  Biso   1.000  C
  C1122    1.0000 0.19550  0.01715  0.90507  Biso   1.000  C
  C1123    1.0000 0.19003  0.01194  0.89086  Biso   1.000  C
  C1124    1.0000 0.16921  0.02101  0.91379  Biso   1.000  C
  C1125    1.0000 0.57010  0.64075  0.12749  Biso   1.000  C
  C1126    1.0000 0.74516  0.06068  0.57972  Biso   1.000  C
  C1127    1.0000 0.70344  0.99369  0.48175  Biso   1.000  C
  C1128    1.0000 0.69085  0.01151  0.49923  Biso   1.000  C
  C1129    1.0000 0.02698  0.71214  0.33554  Biso   1.000  C
  C1130    1.0000 0.11449  0.69230  0.33856  Biso   1.000  C
  C1131    1.0000 0.11780  0.69872  0.36558  Biso   1.000  C
  C1132    1.0000 0.12269  0.68355  0.36854  Biso   1.000  C
  C1133    1.0000 0.59709  0.66497  0.90775  Biso   1.000  C
  C1134    1.0000 0.05844  0.74291  0.39237  Biso   1.000  C
  C1135    1.0000 0.07944  0.73020  0.41341  Biso   1.000  C
  C1136    1.0000 0.08458  0.73545  0.39911  Biso   1.000  C
  C1137    1.0000 0.57174  0.14109  0.62859  Biso   1.000  C
  C1138    1.0000 0.74359  0.55469  0.07936  Biso   1.000  C
  C1139    1.0000 0.70853  0.49611  0.98509  Biso   1.000  C
  C1140    1.0000 0.68380  0.50499  0.99457  Biso   1.000  C
  C1141    1.0000 0.03598  0.20186  0.81870  Biso   1.000  C
  C1142    1.0000 0.03018  0.20838  0.84524  Biso   1.000  C
  C1143    1.0000 0.11832  0.17645  0.84152  Biso   1.000  C
  C1144    1.0000 0.11616  0.19997  0.86357  Biso   1.000  C
  C1145    1.0000 0.12113  0.18521  0.86791  Biso   1.000  C
  C1146    1.0000 0.59659  0.16479  0.40763  Biso   1.000  C
  C1147    1.0000 0.05520  0.23766  0.90725  Biso   1.000  C
  C1148    1.0000 0.06053  0.24370  0.89320  Biso   1.000  C
  C1149    1.0000 0.08166  0.23456  0.91585  Biso   1.000  C
  C1150    1.0000 0.06591  0.64036  0.62859  Biso   1.000  C
  C1151    1.0000 0.24586  0.06066  0.07921  Biso   1.000  C
  C1152    1.0000 0.18260  0.00651  0.99380  Biso   1.000  C
  C1153    1.0000 0.52740  0.71205  0.83600  Biso   1.000  C
  C1154    1.0000 0.61524  0.69156  0.83865  Biso   1.000  C
  C1155    1.0000 0.61819  0.69813  0.86566  Biso   1.000  C
  C1156    1.0000 0.62302  0.68299  0.86880  Biso   1.000  C
  C1157    1.0000 0.09792  0.66531  0.40792  Biso   1.000  C
  C1158    1.0000 0.55869  0.74230  0.89187  Biso   1.000  C
  C1159    1.0000 0.57947  0.73016  0.91344  Biso   1.000  C
  C1160    1.0000 0.58479  0.73528  0.89917  Biso   1.000  C
  C1161    1.0000 0.07181  0.14018  0.12690  Biso   1.000  C
  C1162    1.0000 0.24501  0.56251  0.58070  Biso   1.000  C
  C1163    1.0000 0.22956  0.56570  0.58377  Biso   1.000  C
  C1164    1.0000 0.21118  0.49910  0.49053  Biso   1.000  C
  C1165    1.0000 0.18330  0.50131  0.49047  Biso   1.000  C
  C1166    1.0000 0.53742  0.20157  0.31796  Biso   1.000  C
  C1167    1.0000 0.53070  0.20839  0.34420  Biso   1.000  C
  C1168    1.0000 0.61403  0.17519  0.34264  Biso   1.000  C
  C1169    1.0000 0.62187  0.19991  0.36175  Biso   1.000  C
  C1170    1.0000 0.62655  0.18487  0.36562  Biso   1.000  C
  C1171    1.0000 0.10555  0.16286  0.91734  Biso   1.000  C
  C1172    1.0000 0.55474  0.23403  0.40552  Biso   1.000  C
  C1173    1.0000 0.56060  0.24013  0.39178  Biso   1.000  C
  C1174    1.0000 0.58040  0.23451  0.41672  Biso   1.000  C
  C1175    1.0000 0.06416  0.10924  0.12196  Biso   1.000  C
  C1176    1.0000 0.24588  0.68656  0.67036  Biso   1.000  C
  C1177    1.0000 0.20342  0.75679  0.76850  Biso   1.000  C
  C1178    1.0000 0.18814  0.74058  0.75167  Biso   1.000  C
  C1179    1.0000 0.54445  0.05364  0.92469  Biso   1.000  C
  C1180    1.0000 0.52482  0.03615  0.91523  Biso   1.000  C
  C1181    1.0000 0.60321  0.05941  0.90463  Biso   1.000  C
  C1182    1.0000 0.60803  0.07447  0.90117  Biso   1.000  C
  C1183    1.0000 0.62555  0.04931  0.89134  Biso   1.000  C
  C1184    1.0000 0.09538  0.07342  0.32543  Biso   1.000  C
  C1185    1.0000 0.55504  0.01113  0.84228  Biso   1.000  C
  C1186    1.0000 0.56042  0.00524  0.85634  Biso   1.000  C
  C1187    1.0000 0.58142  0.01315  0.83308  Biso   1.000  C
  C1188    1.0000 0.24603  0.18883  0.16914  Biso   1.000  C
  C1189    1.0000 0.20389  0.25610  0.26978  Biso   1.000  C
  C1190    1.0000 0.18831  0.24016  0.25297  Biso   1.000  C
  C1191    1.0000 0.53996  0.55263  0.42881  Biso   1.000  C
  C1192    1.0000 0.52604  0.53837  0.40928  Biso   1.000  C
  C1193    1.0000 0.61194  0.55838  0.40969  Biso   1.000  C
  C1194    1.0000 0.61679  0.55070  0.38333  Biso   1.000  C
  C1195    1.0000 0.62174  0.56573  0.37995  Biso   1.000  C
  C1196    1.0000 0.09666  0.58394  0.81470  Biso   1.000  C
  C1197    1.0000 0.55747  0.50877  0.35861  Biso   1.000  C
  C1198    1.0000 0.57910  0.51644  0.33591  Biso   1.000  C
  C1199    1.0000 0.58402  0.51057  0.35001  Biso   1.000  C
  C1200    1.0000 0.56317  0.11043  0.62340  Biso   1.000  C
  C1201    1.0000 0.74649  0.68770  0.17008  Biso   1.000  C
  C1202    1.0000 0.70259  0.75761  0.26903  Biso   1.000  C
  C1203    1.0000 0.68880  0.74061  0.25167  Biso   1.000  C
  C1204    1.0000 0.04122  0.05236  0.42746  Biso   1.000  C
  C1205    1.0000 0.02473  0.03574  0.41223  Biso   1.000  C
  C1206    1.0000 0.10711  0.06066  0.40902  Biso   1.000  C
  C1207    1.0000 0.11254  0.07555  0.40542  Biso   1.000  C
  C1208    1.0000 0.12516  0.04974  0.39070  Biso   1.000  C
  C1209    1.0000 0.59731  0.07894  0.81829  Biso   1.000  C
  C1210    1.0000 0.05469  0.01529  0.34491  Biso   1.000  C
  C1211    1.0000 0.06059  0.00970  0.35884  Biso   1.000  C
  C1212    1.0000 0.08000  0.01276  0.33317  Biso   1.000  C
  C1213    1.0000 0.56366  0.60959  0.12216  Biso   1.000  C
  C1214    1.0000 0.74762  0.18684  0.66737  Biso   1.000  C
  C1215    1.0000 0.70407  0.25611  0.76824  Biso   1.000  C
  C1216    1.0000 0.68856  0.24013  0.75140  Biso   1.000  C
  C1217    1.0000 0.03920  0.55222  0.93196  Biso   1.000  C
  C1218    1.0000 0.02806  0.53897  0.91001  Biso   1.000  C
  C1219    1.0000 0.10964  0.55932  0.90920  Biso   1.000  C
  C1220    1.0000 0.12307  0.54953  0.88688  Biso   1.000  C
  C1221    1.0000 0.59676  0.58256  0.31549  Biso   1.000  C
  C1222    1.0000 0.05828  0.51033  0.85927  Biso   1.000  C
  C1223    1.0000 0.08013  0.51871  0.83703  Biso   1.000  C
  C1224    1.0000 0.08493  0.51304  0.85126  Biso   1.000  C
  C1225    1.0000 0.66726  0.68837  0.22907  Biso   1.000  C
  C1226    1.0000 0.76826  0.75445  0.20742  Biso   1.000  C
  C1227    1.0000 0.75552  0.74324  0.18514  Biso   1.000  C
  C1228    1.0000 0.91405  0.03802  0.52678  Biso   1.000  C
  C1229    1.0000 0.91099  0.05745  0.61538  Biso   1.000  C
  C1230    1.0000 0.88401  0.05093  0.61831  Biso   1.000  C
  C1231    1.0000 0.88086  0.06617  0.62290  Biso   1.000  C
  C1232    1.0000 0.32407  0.07571  0.09439  Biso   1.000  C
  C1233    1.0000 0.33332  0.08510  0.10369  Biso   1.000  C
  C1234    1.0000 0.86123  0.01485  0.55871  Biso   1.000  C
  C1235    1.0000 0.83481  0.01459  0.57722  Biso   1.000  C
  C1236    1.0000 0.84856  0.00831  0.58275  Biso   1.000  C
  C1237    1.0000 0.66452  0.17561  0.73162  Biso   1.000  C
  C1238    1.0000 0.76668  0.25416  0.70780  Biso   1.000  C
  C1239    1.0000 0.75413  0.24283  0.68549  Biso   1.000  C
  C1240    1.0000 0.91411  0.53806  0.02659  Biso   1.000  C
  C1241    1.0000 0.91053  0.55753  0.11461  Biso   1.000  C
  C1242    1.0000 0.88352  0.55082  0.11692  Biso   1.000  C
  C1243    1.0000 0.88023  0.56595  0.12179  Biso   1.000  C
  C1244    1.0000 0.32016  0.57889  0.59638  Biso   1.000  C
  C1245    1.0000 0.32948  0.58824  0.60572  Biso   1.000  C
  C1246    1.0000 0.85958  0.50984  0.05766  Biso   1.000  C
  C1247    1.0000 0.83635  0.51560  0.07938  Biso   1.000  C
  C1248    1.0000 0.85056  0.50998  0.08419  Biso   1.000  C
  C1249    1.0000 0.16781  0.68450  0.74770  Biso   1.000  C
  C1250    1.0000 0.26666  0.75402  0.70630  Biso   1.000  C
  C1251    1.0000 0.25329  0.74236  0.68463  Biso   1.000  C
  C1252    1.0000 0.41457  0.03725  0.02736  Biso   1.000  C
  C1253    1.0000 0.40960  0.05696  0.11516  Biso   1.000  C
  C1254    1.0000 0.38241  0.05096  0.11733  Biso   1.000  C
  C1255    1.0000 0.37950  0.06620  0.12212  Biso   1.000  C
  C1256    1.0000 0.82370  0.07626  0.59522  Biso   1.000  C
  C1257    1.0000 0.83318  0.08558  0.60436  Biso   1.000  C
  C1258    1.0000 0.36079  0.01348  0.05730  Biso   1.000  C
  C1259    1.0000 0.33444  0.01411  0.07594  Biso   1.000  C
  C1260    1.0000 0.34810  0.00783  0.08158  Biso   1.000  C
  C1261    1.0000 0.16681  0.18853  0.22915  Biso   1.000  C
  C1262    1.0000 0.26704  0.25399  0.20870  Biso   1.000  C
  C1263    1.0000 0.25450  0.24329  0.18607  Biso   1.000  C
  C1264    1.0000 0.41428  0.53771  0.52628  Biso   1.000  C
  C1265    1.0000 0.41013  0.55701  0.61466  Biso   1.000  C
  C1266    1.0000 0.38300  0.55080  0.61695  Biso   1.000  C
  C1267    1.0000 0.38000  0.56599  0.62178  Biso   1.000  C
  C1268    1.0000 0.81750  0.57843  0.09721  Biso   1.000  C
  C1269    1.0000 0.35757  0.50885  0.55821  Biso   1.000  C
  C1270    1.0000 0.33566  0.51776  0.58020  Biso   1.000  C
  C1271    1.0000 0.34984  0.51196  0.58494  Biso   1.000  C
  C1272    1.0000 0.12651  0.63858  0.57958  Biso   1.000  C
  C1273    1.0000 0.57979  0.05914  0.74543  Biso   1.000  C
  C1274    1.0000 0.49371  0.00549  0.71062  Biso   1.000  C
  C1275    1.0000 0.48546  0.99810  0.68495  Biso   1.000  C
  C1276    1.0000 0.32323  0.69830  0.04048  Biso   1.000  C
  C1277    1.0000 0.33987  0.71403  0.02450  Biso   1.000  C
  C1278    1.0000 0.34295  0.67559  0.11779  Biso   1.000  C
  C1279    1.0000 0.36475  0.69929  0.11542  Biso   1.000  C
  C1280    1.0000 0.36927  0.68456  0.12030  Biso   1.000  C
  C1281    1.0000 0.92234  0.66049  0.60642  Biso   1.000  C
  C1282    1.0000 0.40494  0.73324  0.05430  Biso   1.000  C
  C1283    1.0000 0.39117  0.73940  0.06001  Biso   1.000  C
  C1284    1.0000 0.41664  0.73610  0.07962  Biso   1.000  C
  C1285    1.0000 0.12626  0.13675  0.07907  Biso   1.000  C
  C1286    1.0000 0.58566  0.56862  0.23116  Biso   1.000  C
  C1287    1.0000 0.48908  0.49891  0.21089  Biso   1.000  C
  C1288    1.0000 0.49040  0.50249  0.18315  Biso   1.000  C
  C1289    1.0000 0.31850  0.20130  0.53661  Biso   1.000  C
  C1290    1.0000 0.34395  0.20986  0.52905  Biso   1.000  C
  C1291    1.0000 0.34347  0.17501  0.61163  Biso   1.000  C
  C1292    1.0000 0.36059  0.20036  0.62157  Biso   1.000  C
  C1293    1.0000 0.36448  0.18546  0.62665  Biso   1.000  C
  C1294    1.0000 0.92582  0.15667  0.10611  Biso   1.000  C
  C1295    1.0000 0.40354  0.23339  0.55258  Biso   1.000  C
  C1296    1.0000 0.38981  0.23958  0.55837  Biso   1.000  C
  C1297    1.0000 0.41562  0.23708  0.57761  Biso   1.000  C
  C1298    1.0000 0.62818  0.63739  0.07871  Biso   1.000  C
  C1299    1.0000 0.08200  0.07140  0.24886  Biso   1.000  C
  C1300    1.0000 0.99471  0.00524  0.21022  Biso   1.000  C
  C1301    1.0000 0.82095  0.69811  0.54024  Biso   1.000  C
  C1302    1.0000 0.84031  0.71255  0.52633  Biso   1.000  C
  C1303    1.0000 0.84465  0.67595  0.61627  Biso   1.000  C
  C1304    1.0000 0.86592  0.70017  0.61801  Biso   1.000  C
  C1305    1.0000 0.86992  0.68541  0.62331  Biso   1.000  C
  C1306    1.0000 0.42253  0.65996  0.10682  Biso   1.000  C
  C1307    1.0000 0.90214  0.72722  0.55378  Biso   1.000  C
  C1308    1.0000 0.88833  0.73375  0.55890  Biso   1.000  C
  C1309    1.0000 0.91610  0.74100  0.57376  Biso   1.000  C
  C1310    1.0000 0.62645  0.13734  0.57823  Biso   1.000  C
  C1311    1.0000 0.07899  0.55820  0.74400  Biso   1.000  C
  C1312    1.0000 0.98411  0.49640  0.70869  Biso   1.000  C
  C1313    1.0000 0.99260  0.50557  0.68367  Biso   1.000  C
  C1314    1.0000 0.81946  0.20165  0.03562  Biso   1.000  C
  C1315    1.0000 0.84571  0.20868  0.02939  Biso   1.000  C
  C1316    1.0000 0.84299  0.17610  0.11779  Biso   1.000  C
  C1317    1.0000 0.86489  0.19971  0.11529  Biso   1.000  C
  C1318    1.0000 0.86936  0.18496  0.12019  Biso   1.000  C
  C1319    1.0000 0.41739  0.16583  0.60638  Biso   1.000  C
  C1320    1.0000 0.90741  0.23742  0.05438  Biso   1.000  C
  C1321    1.0000 0.89342  0.24354  0.05975  Biso   1.000  C
  C1322    1.0000 0.91631  0.23484  0.08081  Biso   1.000  C
  C1323    1.0000 0.62955  0.60831  0.18456  Biso   1.000  C
  C1324    1.0000 0.08045  0.19048  0.00477  Biso   1.000  C
  C1325    1.0000 0.99416  0.24320  0.06333  Biso   1.000  C
  C1326    1.0000 0.82040  0.55239  0.70908  Biso   1.000  C
  C1327    1.0000 0.83879  0.53729  0.72367  Biso   1.000  C
  C1328    1.0000 0.83940  0.55656  0.63183  Biso   1.000  C
  C1329    1.0000 0.86599  0.55268  0.63917  Biso   1.000  C
  C1330    1.0000 0.86942  0.56771  0.63435  Biso   1.000  C
  C1331    1.0000 0.42852  0.57686  0.15339  Biso   1.000  C
  C1332    1.0000 0.88811  0.51462  0.69242  Biso   1.000  C
  C1333    1.0000 0.91471  0.51370  0.67421  Biso   1.000  C
  C1334    1.0000 0.90094  0.50759  0.66861  Biso   1.000  C
  C1335    1.0000 0.63052  0.10842  0.68167  Biso   1.000  C
  C1336    1.0000 0.08381  0.67972  0.50225  Biso   1.000  C
  C1337    1.0000 0.98160  0.75480  0.54200  Biso   1.000  C
  C1338    1.0000 0.99383  0.74408  0.56480  Biso   1.000  C
  C1339    1.0000 0.83794  0.03814  0.22395  Biso   1.000  C
  C1340    1.0000 0.84007  0.05962  0.14133  Biso   1.000  C
  C1341    1.0000 0.86255  0.04978  0.12810  Biso   1.000  C
  C1342    1.0000 0.86635  0.06482  0.12346  Biso   1.000  C
  C1343    1.0000 0.43195  0.08035  0.65308  Biso   1.000  C
  C1344    1.0000 0.89378  0.00676  0.19056  Biso   1.000  C
  C1345    1.0000 0.91522  0.01815  0.16929  Biso   1.000  C
  C1346    1.0000 0.90107  0.01267  0.16418  Biso   1.000  C
  C1347    1.0000 0.58171  0.17780  0.50144  Biso   1.000  C
  C1348    1.0000 0.48238  0.25463  0.54049  Biso   1.000  C
  C1349    1.0000 0.49419  0.24478  0.56388  Biso   1.000  C
  C1350    1.0000 0.32852  0.55668  0.20494  Biso   1.000  C
  C1351    1.0000 0.33026  0.53760  0.22526  Biso   1.000  C
  C1352    1.0000 0.33941  0.55625  0.13305  Biso   1.000  C
  C1353    1.0000 0.36646  0.55141  0.13750  Biso   1.000  C
  C1354    1.0000 0.36988  0.56647  0.13268  Biso   1.000  C
  C1355    1.0000 0.92599  0.57529  0.65417  Biso   1.000  C
  C1356    1.0000 0.39172  0.50893  0.19302  Biso   1.000  C
  C1357    1.0000 0.41445  0.51572  0.17111  Biso   1.000  C
  C1358    1.0000 0.40016  0.51033  0.16634  Biso   1.000  C
  C1359    1.0000 0.13086  0.10779  0.18458  Biso   1.000  C
  C1360    1.0000 0.58427  0.67920  0.00131  Biso   1.000  C
  C1361    1.0000 0.48276  0.75493  0.04464  Biso   1.000  C
  C1362    1.0000 0.49589  0.74320  0.06640  Biso   1.000  C
  C1363    1.0000 0.32221  0.05343  0.70815  Biso   1.000  C
  C1364    1.0000 0.33656  0.03695  0.72554  Biso   1.000  C
  C1365    1.0000 0.34041  0.06012  0.64272  Biso   1.000  C
  C1366    1.0000 0.34443  0.07510  0.63797  Biso   1.000  C
  C1367    1.0000 0.36324  0.05016  0.63018  Biso   1.000  C
  C1368    1.0000 0.92915  0.07842  0.15360  Biso   1.000  C
  C1369    1.0000 0.91985  0.08799  0.14438  Biso   1.000  C
  C1370    1.0000 0.41243  0.00692  0.69052  Biso   1.000  C
  C1371    1.0000 0.39799  0.00131  0.68588  Biso   1.000  C
  C1372    1.0000 0.40567  0.03222  0.68056  Biso   1.000  C
  C1373    1.0000 0.62248  0.13934  0.68575  Biso   1.000  C
  C1374    1.0000 0.16924  0.55981  0.50473  Biso   1.000  C
  C1375    1.0000 0.16552  0.56327  0.51993  Biso   1.000  C
  C1376    1.0000 0.26280  0.49801  0.53970  Biso   1.000  C
  C1377    1.0000 0.25731  0.50464  0.56634  Biso   1.000  C
  C1378    1.0000 0.43075  0.19726  0.20855  Biso   1.000  C
  C1379    1.0000 0.41265  0.21248  0.22346  Biso   1.000  C
  C1380    1.0000 0.40507  0.17498  0.13819  Biso   1.000  C
  C1381    1.0000 0.38666  0.19953  0.12827  Biso   1.000  C
  C1382    1.0000 0.38351  0.18444  0.12320  Biso   1.000  C
  C1383    1.0000 0.84102  0.16657  0.65030  Biso   1.000  C
  C1384    1.0000 0.34667  0.22821  0.19668  Biso   1.000  C
  C1385    1.0000 0.36059  0.23427  0.19137  Biso   1.000  C
  C1386    1.0000 0.33317  0.24055  0.17549  Biso   1.000  C
  C1387    1.0000 0.62245  0.63976  0.18463  Biso   1.000  C
  C1388    1.0000 0.16694  0.06446  0.00338  Biso   1.000  C
  C1389    1.0000 0.26793  0.99396  0.04413  Biso   1.000  C
  C1390    1.0000 0.25135  0.01123  0.05853  Biso   1.000  C
  C1391    1.0000 0.40881  0.71024  0.72193  Biso   1.000  C
  C1392    1.0000 0.40362  0.69073  0.64840  Biso   1.000  C
  C1393    1.0000 0.39391  0.69941  0.62371  Biso   1.000  C
  C1394    1.0000 0.39044  0.68407  0.61969  Biso   1.000  C
  C1395    1.0000 0.82185  0.67361  0.15375  Biso   1.000  C
  C1396    1.0000 0.35461  0.74663  0.68805  Biso   1.000  C
  C1397    1.0000 0.33560  0.72847  0.66921  Biso   1.000  C
  C1398    1.0000 0.34974  0.73364  0.66368  Biso   1.000  C
  C1399    1.0000 0.12294  0.13906  0.18485  Biso   1.000  C
  C1400    1.0000 0.66731  0.56305  0.00391  Biso   1.000  C
  C1401    1.0000 0.76087  0.49842  0.03916  Biso   1.000  C
  C1402    1.0000 0.76081  0.50063  0.06707  Biso   1.000  C
  C1403    1.0000 0.93097  0.19846  0.70883  Biso   1.000  C
  C1404    1.0000 0.91261  0.21345  0.72364  Biso   1.000  C
  C1405    1.0000 0.90507  0.17542  0.63823  Biso   1.000  C
  C1406    1.0000 0.88648  0.19980  0.62821  Biso   1.000  C
  C1407    1.0000 0.88350  0.18468  0.62312  Biso   1.000  C
  C1408    1.0000 0.34057  0.16636  0.15000  Biso   1.000  C
  C1409    1.0000 0.84630  0.22895  0.69675  Biso   1.000  C
  C1410    1.0000 0.86016  0.23502  0.69132  Biso   1.000  C
  C1411    1.0000 0.83269  0.24092  0.67539  Biso   1.000  C
  C1412    1.0000 0.12152  0.63879  0.68343  Biso   1.000  C
  C1413    1.0000 0.66743  0.06422  0.50250  Biso   1.000  C
  C1414    1.0000 0.76624  0.99658  0.54129  Biso   1.000  C
  C1415    1.0000 0.75636  0.00615  0.56563  Biso   1.000  C
  C1416    1.0000 0.93130  0.69640  0.20742  Biso   1.000  C
  C1417    1.0000 0.91345  0.71174  0.22247  Biso   1.000  C
  C1418    1.0000 0.90501  0.67482  0.13731  Biso   1.000  C
  C1419    1.0000 0.88624  0.69942  0.12827  Biso   1.000  C
  C1420    1.0000 0.88273  0.68432  0.12345  Biso   1.000  C
  C1421    1.0000 0.34202  0.66531  0.65336  Biso   1.000  C
  C1422    1.0000 0.84786  0.72560  0.19422  Biso   1.000  C
  C1423    1.0000 0.86176  0.73197  0.18926  Biso   1.000  C
  C1424    1.0000 0.83401  0.74066  0.17508  Biso   1.000  C
  C1425    1.0000 0.24397  0.66970  0.69261  Biso   1.000  C
  C1426    1.0000 0.22863  0.66675  0.68903  Biso   1.000  C
  C1427    1.0000 0.18830  0.75215  0.74042  Biso   1.000  C
  C1428    1.0000 0.52788  0.90942  0.03952  Biso   1.000  C
  C1429    1.0000 0.60788  0.90998  0.05957  Biso   1.000  C
  C1430    1.0000 0.62190  0.88754  0.05078  Biso   1.000  C
  C1431    1.0000 0.62681  0.88467  0.06598  Biso   1.000  C
  C1432    1.0000 0.09562  0.32027  0.07812  Biso   1.000  C
  C1433    1.0000 0.55284  0.84291  0.01525  Biso   1.000  C
  C1434    1.0000 0.57914  0.83330  0.01579  Biso   1.000  C
  C1435    1.0000 0.58431  0.84736  0.00998  Biso   1.000  C
  C1436    1.0000 0.06680  0.62052  0.60888  Biso   1.000  C
  C1437    1.0000 0.24474  0.16961  0.18943  Biso   1.000  C
  C1438    1.0000 0.22936  0.16692  0.18590  Biso   1.000  C
  C1439    1.0000 0.18833  0.25184  0.24184  Biso   1.000  C
  C1440    1.0000 0.53997  0.42696  0.55312  Biso   1.000  C
  C1441    1.0000 0.52597  0.40816  0.53797  Biso   1.000  C
  C1442    1.0000 0.60703  0.40808  0.56048  Biso   1.000  C
  C1443    1.0000 0.61234  0.40411  0.57534  Biso   1.000  C
  C1444    1.0000 0.62370  0.38863  0.54937  Biso   1.000  C
  C1445    1.0000 0.09310  0.82614  0.57520  Biso   1.000  C
  C1446    1.0000 0.10241  0.83511  0.58496  Biso   1.000  C
  C1447    1.0000 0.55578  0.34144  0.51131  Biso   1.000  C
  C1448    1.0000 0.56101  0.35553  0.50544  Biso   1.000  C
  C1449    1.0000 0.58683  0.34938  0.51424  Biso   1.000  C
  C1450    1.0000 0.74469  0.67001  0.19167  Biso   1.000  C
  C1451    1.0000 0.72940  0.66701  0.18794  Biso   1.000  C
  C1452    1.0000 0.68906  0.75201  0.24027  Biso   1.000  C
  C1453    1.0000 0.02779  0.90902  0.54022  Biso   1.000  C
  C1454    1.0000 0.10749  0.90698  0.55986  Biso   1.000  C
  C1455    1.0000 0.11286  0.90304  0.57471  Biso   1.000  C
  C1456    1.0000 0.12440  0.88775  0.54871  Biso   1.000  C
  C1457    1.0000 0.59494  0.32297  0.57541  Biso   1.000  C
  C1458    1.0000 0.05326  0.84460  0.51640  Biso   1.000  C
  C1459    1.0000 0.05915  0.85829  0.51033  Biso   1.000  C
  C1460    1.0000 0.07832  0.83246  0.51337  Biso   1.000  C
  C1461    1.0000 0.74360  0.17234  0.69103  Biso   1.000  C
  C1462    1.0000 0.72839  0.16967  0.68679  Biso   1.000  C
  C1463    1.0000 0.68846  0.25189  0.74034  Biso   1.000  C
  C1464    1.0000 0.04181  0.42720  0.05422  Biso   1.000  C
  C1465    1.0000 0.02716  0.40946  0.03842  Biso   1.000  C
  C1466    1.0000 0.10866  0.40784  0.06080  Biso   1.000  C
  C1467    1.0000 0.11372  0.40368  0.07571  Biso   1.000  C
  C1468    1.0000 0.12459  0.38770  0.04984  Biso   1.000  C
  C1469    1.0000 0.58885  0.83128  0.07461  Biso   1.000  C
  C1470    1.0000 0.05592  0.34141  0.01298  Biso   1.000  C
  C1471    1.0000 0.06086  0.35578  0.00755  Biso   1.000  C
  C1472    1.0000 0.08749  0.34790  0.01138  Biso   1.000  C
  C1473    1.0000 0.57228  0.13053  0.64072  Biso   1.000  C
  C1474    1.0000 0.74586  0.57870  0.06511  Biso   1.000  C
  C1475    1.0000 0.73049  0.58202  0.06843  Biso   1.000  C
  C1476    1.0000 0.70883  0.48478  0.99661  Biso   1.000  C
  C1477    1.0000 0.03947  0.32285  0.69775  Biso   1.000  C
  C1478    1.0000 0.02564  0.34229  0.71222  Biso   1.000  C
  C1479    1.0000 0.11119  0.34107  0.69196  Biso   1.000  C
  C1480    1.0000 0.11618  0.34505  0.67699  Biso   1.000  C
  C1481    1.0000 0.12098  0.36532  0.70169  Biso   1.000  C
  C1482    1.0000 0.59447  0.92464  0.67446  Biso   1.000  C
  C1483    1.0000 0.60372  0.91584  0.66450  Biso   1.000  C
  C1484    1.0000 0.05466  0.40798  0.73817  Biso   1.000  C
  C1485    1.0000 0.05988  0.39366  0.74350  Biso   1.000  C
  C1486    1.0000 0.08079  0.41450  0.73066  Biso   1.000  C
  C1487    1.0000 0.56996  0.63045  0.13983  Biso   1.000  C
  C1488    1.0000 0.74378  0.07983  0.55935  Biso   1.000  C
  C1489    1.0000 0.72837  0.08245  0.56284  Biso   1.000  C
  C1490    1.0000 0.70362  0.98247  0.49341  Biso   1.000  C
  C1491    1.0000 0.04103  0.82199  0.19712  Biso   1.000  C
  C1492    1.0000 0.02712  0.84138  0.21155  Biso   1.000  C
  C1493    1.0000 0.11278  0.84078  0.19120  Biso   1.000  C
  C1494    1.0000 0.11787  0.84479  0.17625  Biso   1.000  C
  C1495    1.0000 0.12150  0.86547  0.20079  Biso   1.000  C
  C1496    1.0000 0.60519  0.41697  0.16560  Biso   1.000  C
  C1497    1.0000 0.05423  0.90539  0.23398  Biso   1.000  C
  C1498    1.0000 0.05980  0.89136  0.23954  Biso   1.000  C
  C1499    1.0000 0.08045  0.91453  0.23072  Biso   1.000  C
  C1500    1.0000 0.07262  0.12976  0.13911  Biso   1.000  C
  C1501    1.0000 0.22873  0.58253  0.56143  Biso   1.000  C
  C1502    1.0000 0.21022  0.48751  0.50172  Biso   1.000  C
  C1503    1.0000 0.53994  0.32209  0.19866  Biso   1.000  C
  C1504    1.0000 0.52614  0.34196  0.21255  Biso   1.000  C
  C1505    1.0000 0.61192  0.34531  0.17636  Biso   1.000  C
  C1506    1.0000 0.62189  0.36359  0.20098  Biso   1.000  C
  C1507    1.0000 0.62697  0.36678  0.18588  Biso   1.000  C
  C1508    1.0000 0.09486  0.92377  0.17386  Biso   1.000  C
  C1509    1.0000 0.10430  0.91495  0.16413  Biso   1.000  C
  C1510    1.0000 0.55482  0.40791  0.23702  Biso   1.000  C
  C1511    1.0000 0.55986  0.39358  0.24252  Biso   1.000  C
  C1512    1.0000 0.58125  0.41475  0.23102  Biso   1.000  C
  C1513    1.0000 0.06621  0.62900  0.64000  Biso   1.000  C
  C1514    1.0000 0.24423  0.08007  0.05909  Biso   1.000  C
  C1515    1.0000 0.22893  0.08278  0.06294  Biso   1.000  C
  C1516    1.0000 0.54235  0.82282  0.69668  Biso   1.000  C
  C1517    1.0000 0.61222  0.84151  0.69171  Biso   1.000  C
  C1518    1.0000 0.61697  0.84561  0.67669  Biso   1.000  C
  C1519    1.0000 0.62021  0.86654  0.70106  Biso   1.000  C
  C1520    1.0000 0.10510  0.41983  0.66379  Biso   1.000  C
  C1521    1.0000 0.55504  0.90308  0.72759  Biso   1.000  C
  C1522    1.0000 0.56017  0.88928  0.73407  Biso   1.000  C
  C1523    1.0000 0.57525  0.91699  0.74108  Biso   1.000  C
  C1524    1.0000 0.18013  0.62722  0.60984  Biso   1.000  C
  C1525    1.0000 0.00545  0.08012  0.18817  Biso   1.000  C
  C1526    1.0000 0.02077  0.08364  0.18465  Biso   1.000  C
  C1527    1.0000 0.04318  0.98419  0.25266  Biso   1.000  C
  C1528    1.0000 0.70889  0.82325  0.55357  Biso   1.000  C
  C1529    1.0000 0.72510  0.83977  0.53795  Biso   1.000  C
  C1530    1.0000 0.63160  0.84346  0.57493  Biso   1.000  C
  C1531    1.0000 0.63248  0.86484  0.55070  Biso   1.000  C
  C1532    1.0000 0.62723  0.86931  0.56532  Biso   1.000  C
  C1533    1.0000 0.15510  0.42343  0.57604  Biso   1.000  C
  C1534    1.0000 0.14574  0.41462  0.58588  Biso   1.000  C
  C1535    1.0000 0.69702  0.90495  0.51610  Biso   1.000  C
  C1536    1.0000 0.69108  0.89106  0.51045  Biso   1.000  C
  C1537    1.0000 0.67194  0.91696  0.51280  Biso   1.000  C
  C1538    1.0000 0.18005  0.12741  0.10969  Biso   1.000  C
  C1539    1.0000 0.00649  0.57712  0.69137  Biso   1.000  C
  C1540    1.0000 0.02171  0.57989  0.68723  Biso   1.000  C
  C1541    1.0000 0.03903  0.49418  0.74566  Biso   1.000  C
  C1542    1.0000 0.70909  0.32255  0.05218  Biso   1.000  C
  C1543    1.0000 0.64314  0.35001  0.07591  Biso   1.000  C
  C1544    1.0000 0.62429  0.35736  0.05083  Biso   1.000  C
  C1545    1.0000 0.61948  0.36094  0.06592  Biso   1.000  C
  C1546    1.0000 0.15442  0.93558  0.08315  Biso   1.000  C
  C1547    1.0000 0.69446  0.40681  0.01327  Biso   1.000  C
  C1548    1.0000 0.68898  0.39288  0.00717  Biso   1.000  C
  C1549    1.0000 0.66812  0.41594  0.01589  Biso   1.000  C
  C1550    1.0000 0.68095  0.62647  0.11014  Biso   1.000  C
  C1551    1.0000 0.50525  0.08005  0.68922  Biso   1.000  C
  C1552    1.0000 0.52059  0.08344  0.68578  Biso   1.000  C
  C1553    1.0000 0.53910  0.98735  0.74985  Biso   1.000  C
  C1554    1.0000 0.20982  0.82216  0.05360  Biso   1.000  C
  C1555    1.0000 0.22485  0.83940  0.03762  Biso   1.000  C
  C1556    1.0000 0.13477  0.84411  0.07428  Biso   1.000  C
  C1557    1.0000 0.13099  0.86480  0.04973  Biso   1.000  C
  C1558    1.0000 0.12593  0.86873  0.06459  Biso   1.000  C
  C1559    1.0000 0.65280  0.43162  0.07991  Biso   1.000  C
  C1560    1.0000 0.17036  0.91075  0.02293  Biso   1.000  C
  C1561    1.0000 0.16622  0.89640  0.01716  Biso   1.000  C
  C1562    1.0000 0.19491  0.90909  0.00950  Biso   1.000  C
  C1563    1.0000 0.68424  0.12700  0.61003  Biso   1.000  C
  C1564    1.0000 0.50334  0.57992  0.18801  Biso   1.000  C
  C1565    1.0000 0.51878  0.58356  0.18536  Biso   1.000  C
  C1566    1.0000 0.53857  0.49351  0.24543  Biso   1.000  C
  C1567    1.0000 0.20731  0.32422  0.55613  Biso   1.000  C
  C1568    1.0000 0.13266  0.34421  0.57552  Biso   1.000  C
  C1569    1.0000 0.12950  0.36485  0.55088  Biso   1.000  C
  C1570    1.0000 0.12442  0.36898  0.56565  Biso   1.000  C
  C1571    1.0000 0.65607  0.92289  0.57438  Biso   1.000  C
  C1572    1.0000 0.64664  0.91425  0.58435  Biso   1.000  C
  C1573    1.0000 0.19498  0.40260  0.52428  Biso   1.000  C
  C1574    1.0000 0.18976  0.38864  0.51822  Biso   1.000  C
  C1575    1.0000 0.17502  0.41623  0.51014  Biso   1.000  C
  C1576    1.0000 0.68674  0.62050  0.14137  Biso   1.000  C
  C1577    1.0000 0.50385  0.16930  0.56382  Biso   1.000  C
  C1578    1.0000 0.51910  0.16564  0.56733  Biso   1.000  C
  C1579    1.0000 0.56498  0.25330  0.50746  Biso   1.000  C
  C1580    1.0000 0.22235  0.40809  0.21103  Biso   1.000  C
  C1581    1.0000 0.14260  0.40649  0.19099  Biso   1.000  C
  C1582    1.0000 0.13751  0.40248  0.17609  Biso   1.000  C
  C1583    1.0000 0.12586  0.38700  0.20192  Biso   1.000  C
  C1584    1.0000 0.66117  0.82972  0.17434  Biso   1.000  C
  C1585    1.0000 0.65181  0.83892  0.16492  Biso   1.000  C
  C1586    1.0000 0.19637  0.34465  0.23453  Biso   1.000  C
  C1587    1.0000 0.19063  0.35838  0.24068  Biso   1.000  C
  C1588    1.0000 0.17137  0.33255  0.23829  Biso   1.000  C
  C1589    1.0000 0.68378  0.11938  0.64139  Biso   1.000  C
  C1590    1.0000 0.50512  0.66872  0.06223  Biso   1.000  C
  C1591    1.0000 0.52052  0.66530  0.06529  Biso   1.000  C
  C1592    1.0000 0.56594  0.75485  0.00684  Biso   1.000  C
  C1593    1.0000 0.20804  0.92946  0.69683  Biso   1.000  C
  C1594    1.0000 0.22285  0.91151  0.71229  Biso   1.000  C
  C1595    1.0000 0.13722  0.90953  0.69175  Biso   1.000  C
  C1596    1.0000 0.13163  0.88334  0.69943  Biso   1.000  C
  C1597    1.0000 0.12712  0.87993  0.68429  Biso   1.000  C
  C1598    1.0000 0.65495  0.32562  0.67438  Biso   1.000  C
  C1599    1.0000 0.64560  0.33444  0.66448  Biso   1.000  C
  C1600    1.0000 0.19464  0.84633  0.72633  Biso   1.000  C
  C1601    1.0000 0.18952  0.86017  0.73269  Biso   1.000  C
  C1602    1.0000 0.17486  0.83244  0.74048  Biso   1.000  C
  C1603    1.0000 0.18658  0.62045  0.64077  Biso   1.000  C
  C1604    1.0000 0.00437  0.17052  0.06117  Biso   1.000  C
  C1605    1.0000 0.01977  0.16687  0.06404  Biso   1.000  C
  C1606    1.0000 0.03936  0.26335  0.99743  Biso   1.000  C
  C1607    1.0000 0.06616  0.25820  0.00346  Biso   1.000  C
  C1608    1.0000 0.72224  0.40832  0.70971  Biso   1.000  C
  C1609    1.0000 0.64218  0.40694  0.68993  Biso   1.000  C
  C1610    1.0000 0.63690  0.40280  0.67512  Biso   1.000  C
  C1611    1.0000 0.62597  0.38716  0.70117  Biso   1.000  C
  C1612    1.0000 0.15340  0.82276  0.67420  Biso   1.000  C
  C1613    1.0000 0.69637  0.34507  0.73288  Biso   1.000  C
  C1614    1.0000 0.69068  0.35881  0.73907  Biso   1.000  C
  C1615    1.0000 0.67143  0.33295  0.73693  Biso   1.000  C
  C1616    1.0000 0.18675  0.12161  0.14077  Biso   1.000  C
  C1617    1.0000 0.00670  0.67307  0.55812  Biso   1.000  C
  C1618    1.0000 0.02190  0.67017  0.56232  Biso   1.000  C
  C1619    1.0000 0.06524  0.75519  0.50689  Biso   1.000  C
  C1620    1.0000 0.71383  0.93075  0.20210  Biso   1.000  C
  C1621    1.0000 0.72006  0.90434  0.20859  Biso   1.000  C
  C1622    1.0000 0.64899  0.89780  0.19203  Biso   1.000  C
  C1623    1.0000 0.62284  0.89306  0.20054  Biso   1.000  C
  C1624    1.0000 0.61853  0.88947  0.18525  Biso   1.000  C
  C1625    1.0000 0.15521  0.32531  0.17553  Biso   1.000  C
  C1626    1.0000 0.14588  0.33407  0.16557  Biso   1.000  C
  C1627    1.0000 0.69692  0.84462  0.23314  Biso   1.000  C
  C1628    1.0000 0.69111  0.85818  0.23963  Biso   1.000  C
  C1629    1.0000 0.67195  0.83236  0.23653  Biso   1.000  C
  C1630    1.0000 0.10940  0.06776  0.12153  Biso   1.000  C
  C1631    1.0000 0.68676  0.24498  0.66858  Biso   1.000  C
  C1632    1.0000 0.68327  0.22970  0.66500  Biso   1.000  C
  C1633    1.0000 0.75352  0.18488  0.76522  Biso   1.000  C
  C1634    1.0000 0.03975  0.52783  0.91079  Biso   1.000  C
  C1635    1.0000 0.05911  0.61064  0.91227  Biso   1.000  C
  C1636    1.0000 0.05058  0.61987  0.88731  Biso   1.000  C
  C1637    1.0000 0.06569  0.62464  0.88391  Biso   1.000  C
  C1638    1.0000 0.07879  0.09522  0.32013  Biso   1.000  C
  C1639    1.0000 0.08812  0.10453  0.32950  Biso   1.000  C
  C1640    1.0000 0.01461  0.55360  0.84439  Biso   1.000  C
  C1641    1.0000 0.01577  0.58005  0.83524  Biso   1.000  C
  C1642    1.0000 0.01003  0.58508  0.84936  Biso   1.000  C
  C1643    1.0000 0.69118  0.74384  0.16965  Biso   1.000  C
  C1644    1.0000 0.68785  0.72861  0.16593  Biso   1.000  C
  C1645    1.0000 0.75233  0.71253  0.26431  Biso   1.000  C
  C1646    1.0000 0.74715  0.68563  0.25869  Biso   1.000  C
  C1647    1.0000 0.05269  0.04089  0.42744  Biso   1.000  C
  C1648    1.0000 0.07427  0.11349  0.40693  Biso   1.000  C
  C1649    1.0000 0.04947  0.12030  0.38751  Biso   1.000  C
  C1650    1.0000 0.06445  0.12510  0.38352  Biso   1.000  C
  C1651    1.0000 0.07459  0.59051  0.83050  Biso   1.000  C
  C1652    1.0000 0.08397  0.59984  0.83973  Biso   1.000  C
  C1653    1.0000 0.00654  0.05791  0.35723  Biso   1.000  C
  C1654    1.0000 0.01698  0.07875  0.33491  Biso   1.000  C
  C1655    1.0000 0.01137  0.08419  0.34885  Biso   1.000  C
  C1656    1.0000 0.60836  0.06952  0.62080  Biso   1.000  C
  C1657    1.0000 0.18971  0.24454  0.17035  Biso   1.000  C
  C1658    1.0000 0.18626  0.22945  0.16621  Biso   1.000  C
  C1659    1.0000 0.25183  0.18407  0.26353  Biso   1.000  C
  C1660    1.0000 0.55143  0.54124  0.42886  Biso   1.000  C
  C1661    1.0000 0.56012  0.60442  0.40538  Biso   1.000  C
  C1662    1.0000 0.57516  0.60922  0.40178  Biso   1.000  C
  C1663    1.0000 0.54992  0.62658  0.39186  Biso   1.000  C
  C1664    1.0000 0.57530  0.09378  0.82701  Biso   1.000  C
  C1665    1.0000 0.58515  0.10329  0.83568  Biso   1.000  C
  C1666    1.0000 0.51611  0.55490  0.34543  Biso   1.000  C
  C1667    1.0000 0.51013  0.56078  0.35918  Biso   1.000  C
  C1668    1.0000 0.51321  0.58004  0.33339  Biso   1.000  C
  C1669    1.0000 0.18986  0.74352  0.67014  Biso   1.000  C
  C1670    1.0000 0.18682  0.72817  0.66671  Biso   1.000  C
  C1671    1.0000 0.25318  0.71192  0.76484  Biso   1.000  C
  C1672    1.0000 0.24798  0.68503  0.75921  Biso   1.000  C
  C1673    1.0000 0.55532  0.04170  0.92420  Biso   1.000  C
  C1674    1.0000 0.55754  0.11202  0.91006  Biso   1.000  C
  C1675    1.0000 0.54976  0.11693  0.88371  Biso   1.000  C
  C1676    1.0000 0.56478  0.12175  0.88023  Biso   1.000  C
  C1677    1.0000 0.57464  0.59098  0.33030  Biso   1.000  C
  C1678    1.0000 0.58423  0.60053  0.33913  Biso   1.000  C
  C1679    1.0000 0.51968  0.06066  0.86245  Biso   1.000  C
  C1680    1.0000 0.50957  0.07370  0.83460  Biso   1.000  C
  C1681    1.0000 0.50324  0.07861  0.84854  Biso   1.000  C
  C1682    1.0000 0.63497  0.55878  0.12610  Biso   1.000  C
  C1683    1.0000 0.06681  0.73093  0.58707  Biso   1.000  C
  C1684    1.0000 0.99777  0.68611  0.48538  Biso   1.000  C
  C1685    1.0000 0.69650  0.04146  0.32062  Biso   1.000  C
  C1686    1.0000 0.71259  0.02647  0.33782  Biso   1.000  C
  C1687    1.0000 0.68979  0.10742  0.34177  Biso   1.000  C
  C1688    1.0000 0.67496  0.11266  0.34587  Biso   1.000  C
  C1689    1.0000 0.70094  0.12424  0.36110  Biso   1.000  C
  C1690    1.0000 0.66567  0.59601  0.93582  Biso   1.000  C
  C1691    1.0000 0.74338  0.06023  0.41150  Biso   1.000  C
  C1692    1.0000 0.74891  0.06485  0.39702  Biso   1.000  C
  C1693    1.0000 0.71805  0.07025  0.40490  Biso   1.000  C
  C1694    1.0000 0.63960  0.06617  0.62804  Biso   1.000  C
  C1695    1.0000 0.07274  0.23090  0.08622  Biso   1.000  C
  C1696    1.0000 0.00746  0.18432  0.99564  Biso   1.000  C
  C1697    1.0000 0.69606  0.54130  0.82129  Biso   1.000  C
  C1698    1.0000 0.71208  0.52598  0.83822  Biso   1.000  C
  C1699    1.0000 0.69014  0.60682  0.84242  Biso   1.000  C
  C1700    1.0000 0.67526  0.61187  0.84654  Biso   1.000  C
  C1701    1.0000 0.70114  0.62366  0.86182  Biso   1.000  C
  C1702    1.0000 0.66589  0.09650  0.43486  Biso   1.000  C
  C1703    1.0000 0.74305  0.55964  0.91256  Biso   1.000  C
  C1704    1.0000 0.74857  0.56419  0.89807  Biso   1.000  C
  C1705    1.0000 0.71786  0.57010  0.90610  Biso   1.000  C
  C1706    1.0000 0.13549  0.55819  0.62402  Biso   1.000  C
  C1707    1.0000 0.56895  0.72969  0.08646  Biso   1.000  C
  C1708    1.0000 0.49769  0.68664  0.98594  Biso   1.000  C
  C1709    1.0000 0.19529  0.04345  0.82204  Biso   1.000  C
  C1710    1.0000 0.21218  0.02586  0.83559  Biso   1.000  C
  C1711    1.0000 0.19023  0.10389  0.84383  Biso   1.000  C
  C1712    1.0000 0.17521  0.10895  0.84714  Biso   1.000  C
  C1713    1.0000 0.20054  0.12600  0.85735  Biso   1.000  C
  C1714    1.0000 0.17514  0.59459  0.42501  Biso   1.000  C
  C1715    1.0000 0.24290  0.06067  0.91239  Biso   1.000  C
  C1716    1.0000 0.24858  0.06468  0.89782  Biso   1.000  C
  C1717    1.0000 0.21755  0.07012  0.90504  Biso   1.000  C
  C1718    1.0000 0.14066  0.06572  0.12924  Biso   1.000  C
  C1719    1.0000 0.56641  0.22960  0.58576  Biso   1.000  C
  C1720    1.0000 0.50792  0.20908  0.49597  Biso   1.000  C
  C1721    1.0000 0.49649  0.18588  0.48527  Biso   1.000  C
  C1722    1.0000 0.19693  0.54081  0.32180  Biso   1.000  C
  C1723    1.0000 0.21289  0.52597  0.33923  Biso   1.000  C
  C1724    1.0000 0.19043  0.60763  0.34133  Biso   1.000  C
  C1725    1.0000 0.17556  0.61284  0.34533  Biso   1.000  C
  C1726    1.0000 0.20144  0.62462  0.36059  Biso   1.000  C
  C1727    1.0000 0.16939  0.09824  0.93161  Biso   1.000  C
  C1728    1.0000 0.24337  0.55782  0.41125  Biso   1.000  C
  C1729    1.0000 0.24841  0.56349  0.39702  Biso   1.000  C
  C1730    1.0000 0.21953  0.57227  0.40850  Biso   1.000  C
  C1731    1.0000 0.61017  0.17817  0.62927  Biso   1.000  C
  C1732    1.0000 0.18693  0.00261  0.08190  Biso   1.000  C
  C1733    1.0000 0.25255  0.04060  0.98369  Biso   1.000  C
  C1734    1.0000 0.24625  0.06685  0.99103  Biso   1.000  C
  C1735    1.0000 0.55562  0.70600  0.82178  Biso   1.000  C
  C1736    1.0000 0.53885  0.72347  0.83565  Biso   1.000  C
  C1737    1.0000 0.56004  0.64179  0.83997  Biso   1.000  C
  C1738    1.0000 0.54983  0.62628  0.86078  Biso   1.000  C
  C1739    1.0000 0.56485  0.62169  0.86470  Biso   1.000  C
  C1740    1.0000 0.58217  0.15238  0.43368  Biso   1.000  C
  C1741    1.0000 0.59171  0.14302  0.42443  Biso   1.000  C
  C1742    1.0000 0.50664  0.68951  0.89365  Biso   1.000  C
  C1743    1.0000 0.51991  0.66893  0.91462  Biso   1.000  C
  C1744    1.0000 0.51475  0.66361  0.90042  Biso   1.000  C
  C1745    1.0000 0.61203  0.67068  0.12716  Biso   1.000  C
  C1746    1.0000 0.18702  0.50503  0.58154  Biso   1.000  C
  C1747    1.0000 0.18347  0.52042  0.58422  Biso   1.000  C
  C1748    1.0000 0.25702  0.54820  0.48114  Biso   1.000  C
  C1749    1.0000 0.24001  0.56171  0.49874  Biso   1.000  C
  C1750    1.0000 0.54200  0.21984  0.34416  Biso   1.000  C
  C1751    1.0000 0.56017  0.14222  0.33952  Biso   1.000  C
  C1752    1.0000 0.55015  0.12803  0.36137  Biso   1.000  C
  C1753    1.0000 0.56509  0.12305  0.36495  Biso   1.000  C
  C1754    1.0000 0.58341  0.65334  0.93453  Biso   1.000  C
  C1755    1.0000 0.59265  0.64370  0.92531  Biso   1.000  C
  C1756    1.0000 0.49910  0.18533  0.39720  Biso   1.000  C
  C1757    1.0000 0.52980  0.17994  0.40552  Biso   1.000  C
  C1758    1.0000 0.52445  0.17505  0.39126  Biso   1.000  C
  C1759    1.0000 0.10822  0.17872  0.12958  Biso   1.000  C
  C1760    1.0000 0.68821  0.00336  0.58258  Biso   1.000  C
  C1761    1.0000 0.75340  0.04010  0.48398  Biso   1.000  C
  C1762    1.0000 0.74705  0.06647  0.49075  Biso   1.000  C
  C1763    1.0000 0.05557  0.70610  0.32208  Biso   1.000  C
  C1764    1.0000 0.03835  0.72365  0.33525  Biso   1.000  C
  C1765    1.0000 0.06027  0.64196  0.34055  Biso   1.000  C
  C1766    1.0000 0.05037  0.62722  0.36206  Biso   1.000  C
  C1767    1.0000 0.06543  0.62257  0.36580  Biso   1.000  C
  C1768    1.0000 0.07509  0.15473  0.92414  Biso   1.000  C
  C1769    1.0000 0.08419  0.14505  0.91494  Biso   1.000  C
  C1770    1.0000 0.00652  0.69050  0.39389  Biso   1.000  C
  C1771    1.0000 0.01900  0.66939  0.41489  Biso   1.000  C
  C1772    1.0000 0.01354  0.66431  0.40074  Biso   1.000  C
  C1773    1.0000 0.11087  0.67186  0.62834  Biso   1.000  C
  C1774    1.0000 0.68453  0.50179  0.08354  Biso   1.000  C
  C1775    1.0000 0.75083  0.53824  0.98755  Biso   1.000  C
  C1776    1.0000 0.74659  0.56552  0.99182  Biso   1.000  C
  C1777    1.0000 0.04133  0.21998  0.84486  Biso   1.000  C
  C1778    1.0000 0.05915  0.14744  0.84623  Biso   1.000  C
  C1779    1.0000 0.07443  0.14309  0.84924  Biso   1.000  C
  C1780    1.0000 0.06556  0.11850  0.85900  Biso   1.000  C
  C1781    1.0000 0.08429  0.65343  0.43461  Biso   1.000  C
  C1782    1.0000 0.09369  0.64394  0.42538  Biso   1.000  C
  C1783    1.0000 0.01551  0.19665  0.90501  Biso   1.000  C
  C1784    1.0000 0.00912  0.19101  0.89131  Biso   1.000  C
  C1785    1.0000 0.01203  0.17155  0.91698  Biso   1.000  C
  C1786    1.0000 0.56101  0.50513  0.17000  Biso   1.000  C
  C1787    1.0000 0.50724  0.56581  0.25438  Biso   1.000  C
  C1788    1.0000 0.21044  0.22279  0.41021  Biso   1.000  C
  C1789    1.0000 0.19033  0.14869  0.40414  Biso   1.000  C
  C1790    1.0000 0.19939  0.12476  0.39306  Biso   1.000  C
  C1791    1.0000 0.18410  0.12054  0.38962  Biso   1.000  C
  C1792    1.0000 0.17219  0.65395  0.82139  Biso   1.000  C
  C1793    1.0000 0.16274  0.64463  0.83064  Biso   1.000  C
  C1794    1.0000 0.23846  0.19358  0.34013  Biso   1.000  C
  C1795    1.0000 0.24397  0.18933  0.35471  Biso   1.000  C
  C1796    1.0000 0.23977  0.16240  0.34821  Biso   1.000  C
  C1797    1.0000 0.13930  0.18260  0.12190  Biso   1.000  C
  C1798    1.0000 0.55829  0.00643  0.67116  Biso   1.000  C
  C1799    1.0000 0.50720  0.06511  0.75550  Biso   1.000  C
  C1800    1.0000 0.20875  0.71982  0.90597  Biso   1.000  C
  C1801    1.0000 0.17514  0.63696  0.90657  Biso   1.000  C
  C1802    1.0000 0.19987  0.62886  0.88759  Biso   1.000  C
  C1803    1.0000 0.18484  0.62411  0.88378  Biso   1.000  C
  C1804    1.0000 0.17435  0.15635  0.32648  Biso   1.000  C
  C1805    1.0000 0.16547  0.14653  0.33574  Biso   1.000  C
  C1806    1.0000 0.24430  0.69103  0.85715  Biso   1.000  C
  C1807    1.0000 0.23385  0.67011  0.83487  Biso   1.000  C
  C1808    1.0000 0.23957  0.66473  0.84881  Biso   1.000  C
  C1809    1.0000 0.06997  0.50147  0.66780  Biso   1.000  C
  C1810    1.0000 0.00296  0.56701  0.75899  Biso   1.000  C
  C1811    1.0000 0.70880  0.22015  0.90611  Biso   1.000  C
  C1812    1.0000 0.68941  0.14160  0.91027  Biso   1.000  C
  C1813    1.0000 0.69935  0.12869  0.88761  Biso   1.000  C
  C1814    1.0000 0.68443  0.12383  0.88382  Biso   1.000  C
  C1815    1.0000 0.67494  0.65766  0.32621  Biso   1.000  C
  C1816    1.0000 0.66616  0.64784  0.33557  Biso   1.000  C
  C1817    1.0000 0.73779  0.19473  0.84184  Biso   1.000  C
  C1818    1.0000 0.74328  0.18995  0.85628  Biso   1.000  C
  C1819    1.0000 0.74024  0.16322  0.84843  Biso   1.000  C
  C1820    1.0000 0.05938  0.00570  0.16969  Biso   1.000  C
  C1821    1.0000 0.00685  0.06391  0.25620  Biso   1.000  C
  C1822    1.0000 0.69751  0.70966  0.42756  Biso   1.000  C
  C1823    1.0000 0.69105  0.64269  0.40804  Biso   1.000  C
  C1824    1.0000 0.67595  0.63774  0.40503  Biso   1.000  C
  C1825    1.0000 0.68496  0.62379  0.38261  Biso   1.000  C
  C1826    1.0000 0.66687  0.15360  0.81605  Biso   1.000  C
  C1827    1.0000 0.65738  0.14417  0.82519  Biso   1.000  C
  C1828    1.0000 0.73730  0.69630  0.34174  Biso   1.000  C
  C1829    1.0000 0.73360  0.66950  0.33452  Biso   1.000  C
  C1830    1.0000 0.73959  0.66490  0.34866  Biso   1.000  C
  C1831    1.0000 0.93005  0.41917  0.25255  Biso   1.000  C
  C1832    1.0000 0.92725  0.41591  0.26808  Biso   1.000  C
  C1833    1.0000 0.00238  0.51303  0.29002  Biso   1.000  C
  C1834    1.0000 0.29240  0.65562  0.97003  Biso   1.000  C
  C1835    1.0000 0.30979  0.65201  0.89855  Biso   1.000  C
  C1836    1.0000 0.30069  0.64334  0.87360  Biso   1.000  C
  C1837    1.0000 0.31592  0.63977  0.86927  Biso   1.000  C
  C1838    1.0000 0.32987  0.06794  0.40229  Biso   1.000  C
  C1839    1.0000 0.26334  0.59284  0.94504  Biso   1.000  C
  C1840    1.0000 0.25717  0.60675  0.93956  Biso   1.000  C
  C1841    1.0000 0.26600  0.58372  0.91868  Biso   1.000  C
  C1842    1.0000 0.93609  0.91999  0.75440  Biso   1.000  C
  C1843    1.0000 0.93276  0.91691  0.76986  Biso   1.000  C
  C1844    1.0000 0.30358  0.17800  0.45860  Biso   1.000  C
  C1845    1.0000 0.28823  0.15983  0.47319  Biso   1.000  C
  C1846    1.0000 0.30986  0.15565  0.39557  Biso   1.000  C
  C1847    1.0000 0.32488  0.15203  0.39074  Biso   1.000  C
  C1848    1.0000 0.29960  0.14202  0.37348  Biso   1.000  C
  C1849    1.0000 0.32584  0.57614  0.90726  Biso   1.000  C
  C1850    1.0000 0.33467  0.58565  0.89761  Biso   1.000  C
  C1851    1.0000 0.26339  0.09321  0.44501  Biso   1.000  C
  C1852    1.0000 0.25745  0.10723  0.43958  Biso   1.000  C
  C1853    1.0000 0.26514  0.08386  0.41865  Biso   1.000  C
  C1854    1.0000 0.43224  0.41624  0.77061  Biso   1.000  C
  C1855    1.0000 0.50139  0.51238  0.78919  Biso   1.000  C
  C1856    1.0000 0.79229  0.65554  0.46876  Biso   1.000  C
  C1857    1.0000 0.82478  0.65818  0.38140  Biso   1.000  C
  C1858    1.0000 0.80099  0.63646  0.38356  Biso   1.000  C
  C1859    1.0000 0.81569  0.63193  0.37862  Biso   1.000  C
  C1860    1.0000 0.82885  0.06786  0.90213  Biso   1.000  C
  C1861    1.0000 0.76274  0.59231  0.44414  Biso   1.000  C
  C1862    1.0000 0.76786  0.58587  0.41734  Biso   1.000  C
  C1863    1.0000 0.76221  0.60015  0.41282  Biso   1.000  C
  C1864    1.0000 0.86009  0.37223  0.43369  Biso   1.000  C
  C1865    1.0000 0.44559  0.92940  0.25909  Biso   1.000  C
  C1866    1.0000 0.44148  0.92635  0.27427  Biso   1.000  C
  C1867    1.0000 0.50220  0.01322  0.28885  Biso   1.000  C
  C1868    1.0000 0.80305  0.17761  0.95894  Biso   1.000  C
  C1869    1.0000 0.78811  0.15912  0.97354  Biso   1.000  C
  C1870    1.0000 0.80931  0.15485  0.89598  Biso   1.000  C
  C1871    1.0000 0.82424  0.15138  0.89082  Biso   1.000  C
  C1872    1.0000 0.79874  0.14173  0.87372  Biso   1.000  C
  C1873    1.0000 0.83408  0.56543  0.40185  Biso   1.000  C
  C1874    1.0000 0.84354  0.57511  0.39289  Biso   1.000  C
  C1875    1.0000 0.76286  0.09264  0.94537  Biso   1.000  C
  C1876    1.0000 0.75678  0.10664  0.94001  Biso   1.000  C
  C1877    1.0000 0.76458  0.08341  0.91897  Biso   1.000  C
  C1878    1.0000 0.88814  0.87824  0.92219  Biso   1.000  C
  C1879    1.0000 0.31103  0.32875  0.75455  Biso   1.000  C
  C1880    1.0000 0.31349  0.33212  0.77012  Biso   1.000  C
  C1881    1.0000 0.24689  0.23421  0.79073  Biso   1.000  C
  C1882    1.0000 0.25283  0.24172  0.81704  Biso   1.000  C
  C1883    1.0000 0.94657  0.07145  0.45929  Biso   1.000  C
  C1884    1.0000 0.96232  0.08953  0.47360  Biso   1.000  C
  C1885    1.0000 0.93949  0.09033  0.39265  Biso   1.000  C
  C1886    1.0000 0.92461  0.09427  0.38749  Biso   1.000  C
  C1887    1.0000 0.95040  0.10966  0.37568  Biso   1.000  C
  C1888    1.0000 0.92206  0.67887  0.90239  Biso   1.000  C
  C1889    1.0000 0.99227  0.14228  0.43969  Biso   1.000  C
  C1890    1.0000 0.97995  0.16348  0.41869  Biso   1.000  C
  C1891    1.0000 0.98583  0.14955  0.41343  Biso   1.000  C
  C1892    1.0000 0.89121  0.38076  0.43417  Biso   1.000  C
  C1893    1.0000 0.31494  0.82999  0.25482  Biso   1.000  C
  C1894    1.0000 0.31850  0.83356  0.27009  Biso   1.000  C
  C1895    1.0000 0.24624  0.73335  0.29370  Biso   1.000  C
  C1896    1.0000 0.25769  0.74714  0.31524  Biso   1.000  C
  C1897    1.0000 0.96136  0.59038  0.97401  Biso   1.000  C
  C1898    1.0000 0.93983  0.59118  0.89289  Biso   1.000  C
  C1899    1.0000 0.92497  0.59479  0.88738  Biso   1.000  C
  C1900    1.0000 0.95066  0.61086  0.87630  Biso   1.000  C
  C1901    1.0000 0.91559  0.18385  0.40320  Biso   1.000  C
  C1902    1.0000 0.90633  0.17432  0.39390  Biso   1.000  C
  C1903    1.0000 0.98603  0.65814  0.94458  Biso   1.000  C
  C1904    1.0000 0.99200  0.64389  0.93987  Biso   1.000  C
  C1905    1.0000 0.98959  0.65186  0.91310  Biso   1.000  C
  C1906    1.0000 0.38797  0.87819  0.42210  Biso   1.000  C
  C1907    1.0000 0.81213  0.32876  0.25423  Biso   1.000  C
  C1908    1.0000 0.81568  0.33213  0.26957  Biso   1.000  C
  C1909    1.0000 0.74824  0.23587  0.28897  Biso   1.000  C
  C1910    1.0000 0.75346  0.24221  0.31572  Biso   1.000  C
  C1911    1.0000 0.44548  0.07434  0.95838  Biso   1.000  C
  C1912    1.0000 0.44127  0.08924  0.88869  Biso   1.000  C
  C1913    1.0000 0.42634  0.09305  0.88348  Biso   1.000  C
  C1914    1.0000 0.45080  0.11368  0.87912  Biso   1.000  C
  C1915    1.0000 0.42214  0.67938  0.40376  Biso   1.000  C
  C1916    1.0000 0.48855  0.14031  0.94256  Biso   1.000  C
  C1917    1.0000 0.48190  0.16323  0.92079  Biso   1.000  C
  C1918    1.0000 0.48795  0.14919  0.91599  Biso   1.000  C
  C1919    1.0000 0.38993  0.37949  0.92879  Biso   1.000  C
  C1920    1.0000 0.81437  0.82942  0.75388  Biso   1.000  C
  C1921    1.0000 0.81709  0.83280  0.76940  Biso   1.000  C
  C1922    1.0000 0.74693  0.73291  0.79215  Biso   1.000  C
  C1923    1.0000 0.75763  0.74612  0.81440  Biso   1.000  C
  C1924    1.0000 0.46190  0.59132  0.47352  Biso   1.000  C
  C1925    1.0000 0.43984  0.59243  0.39237  Biso   1.000  C
  C1926    1.0000 0.42499  0.59607  0.38689  Biso   1.000  C
  C1927    1.0000 0.45060  0.61272  0.37648  Biso   1.000  C
  C1928    1.0000 0.41544  0.18377  0.90395  Biso   1.000  C
  C1929    1.0000 0.40620  0.17425  0.89463  Biso   1.000  C
  C1930    1.0000 0.48654  0.65804  0.44581  Biso   1.000  C
  C1931    1.0000 0.49258  0.64389  0.44087  Biso   1.000  C
  C1932    1.0000 0.49086  0.65259  0.41426  Biso   1.000  C
  C1933    1.0000 0.85931  0.37995  0.31769  Biso   1.000  C
  C1934    1.0000 0.44382  0.82905  0.49421  Biso   1.000  C
  C1935    1.0000 0.43961  0.83251  0.47910  Biso   1.000  C
  C1936    1.0000 0.50201  0.73653  0.46207  Biso   1.000  C
  C1937    1.0000 0.49596  0.74185  0.43527  Biso   1.000  C
  C1938    1.0000 0.80280  0.57149  0.79096  Biso   1.000  C
  C1939    1.0000 0.78738  0.58978  0.77658  Biso   1.000  C
  C1940    1.0000 0.80989  0.59013  0.85820  Biso   1.000  C
  C1941    1.0000 0.82479  0.59424  0.86328  Biso   1.000  C
  C1942    1.0000 0.79896  0.60971  0.87485  Biso   1.000  C
  C1943    1.0000 0.83685  0.16765  0.35631  Biso   1.000  C
  C1944    1.0000 0.76341  0.65760  0.80645  Biso   1.000  C
  C1945    1.0000 0.75738  0.64356  0.81162  Biso   1.000  C
  C1946    1.0000 0.76595  0.64961  0.83756  Biso   1.000  C
  C1947    1.0000 0.86171  0.87659  0.83068  Biso   1.000  C
  C1948    1.0000 0.43922  0.32918  0.99548  Biso   1.000  C
  C1949    1.0000 0.43584  0.33252  0.98009  Biso   1.000  C
  C1950    1.0000 0.50163  0.23505  0.96040  Biso   1.000  C
  C1951    1.0000 0.78847  0.09094  0.27619  Biso   1.000  C
  C1952    1.0000 0.80969  0.09064  0.35733  Biso   1.000  C
  C1953    1.0000 0.82457  0.09441  0.36267  Biso   1.000  C
  C1954    1.0000 0.79881  0.10989  0.37442  Biso   1.000  C
  C1955    1.0000 0.82597  0.67316  0.84446  Biso   1.000  C
  C1956    1.0000 0.83556  0.66367  0.85341  Biso   1.000  C
  C1957    1.0000 0.76274  0.15886  0.30617  Biso   1.000  C
  C1958    1.0000 0.75725  0.14440  0.31080  Biso   1.000  C
  C1959    1.0000 0.76112  0.15165  0.33761  Biso   1.000  C
  C1960    1.0000 0.35785  0.37794  0.81631  Biso   1.000  C
  C1961    1.0000 0.93973  0.83071  0.99549  Biso   1.000  C
  C1962    1.0000 0.93642  0.83445  0.98016  Biso   1.000  C
  C1963    1.0000 0.99118  0.74601  0.95881  Biso   1.000  C
  C1964    1.0000 0.00261  0.73513  0.93570  Biso   1.000  C
  C1965    1.0000 0.30519  0.57282  0.29370  Biso   1.000  C
  C1966    1.0000 0.28794  0.58618  0.27631  Biso   1.000  C
  C1967    1.0000 0.31001  0.59163  0.35769  Biso   1.000  C
  C1968    1.0000 0.32492  0.59584  0.36264  Biso   1.000  C
  C1969    1.0000 0.29901  0.61023  0.37538  Biso   1.000  C
  C1970    1.0000 0.33672  0.16769  0.85775  Biso   1.000  C
  C1971    1.0000 0.26318  0.65818  0.30620  Biso   1.000  C
  C1972    1.0000 0.25740  0.64397  0.31114  Biso   1.000  C
  C1973    1.0000 0.26567  0.64991  0.33722  Biso   1.000  C
  C1974    1.0000 0.36302  0.87596  0.33113  Biso   1.000  C
  C1975    1.0000 0.93876  0.32932  0.49535  Biso   1.000  C
  C1976    1.0000 0.93512  0.33292  0.48009  Biso   1.000  C
  C1977    1.0000 0.00195  0.23508  0.45938  Biso   1.000  C
  C1978    1.0000 0.30309  0.07266  0.79140  Biso   1.000  C
  C1979    1.0000 0.28651  0.08774  0.77470  Biso   1.000  C
  C1980    1.0000 0.30863  0.08751  0.86314  Biso   1.000  C
  C1981    1.0000 0.32372  0.09114  0.86811  Biso   1.000  C
  C1982    1.0000 0.31564  0.11743  0.87263  Biso   1.000  C
  C1983    1.0000 0.32568  0.67419  0.34502  Biso   1.000  C
  C1984    1.0000 0.33530  0.66512  0.35438  Biso   1.000  C
  C1985    1.0000 0.26325  0.15810  0.80711  Biso   1.000  C
  C1986    1.0000 0.25790  0.14358  0.81167  Biso   1.000  C
  C1987    1.0000 0.26125  0.15090  0.83856  Biso   1.000  C
  C1988    1.0000 0.38914  0.37054  0.81877  Biso   1.000  C
  C1989    1.0000 0.80487  0.92806  0.99300  Biso   1.000  C
  C1990    1.0000 0.80777  0.92414  0.97768  Biso   1.000  C
  C1991    1.0000 0.74860  0.01315  0.96188  Biso   1.000  C
  C1992    1.0000 0.46041  0.15976  0.27661  Biso   1.000  C
  C1993    1.0000 0.42517  0.15695  0.36288  Biso   1.000  C
  C1994    1.0000 0.45014  0.13827  0.37096  Biso   1.000  C
  C1995    1.0000 0.43515  0.13438  0.37585  Biso   1.000  C
  C1996    1.0000 0.41962  0.56687  0.84699  Biso   1.000  C
  C1997    1.0000 0.48750  0.09274  0.30440  Biso   1.000  C
  C1998    1.0000 0.49325  0.10691  0.30964  Biso   1.000  C
  C1999    1.0000 0.48583  0.08374  0.33090  Biso   1.000  C
  C2000    1.0000 0.38647  0.87583  0.30891  Biso   1.000  C
  C2001    1.0000 0.81201  0.42005  0.49574  Biso   1.000  C
  C2002    1.0000 0.81454  0.41668  0.48018  Biso   1.000  C
  C2003    1.0000 0.74785  0.51434  0.46007  Biso   1.000  C
  C2004    1.0000 0.44677  0.67905  0.79222  Biso   1.000  C
  C2005    1.0000 0.46270  0.66346  0.77541  Biso   1.000  C
  C2006    1.0000 0.42604  0.65778  0.86497  Biso   1.000  C
  C2007    1.0000 0.45048  0.63734  0.86978  Biso   1.000  C
  C2008    1.0000 0.43546  0.63321  0.87426  Biso   1.000  C
  C2009    1.0000 0.42104  0.06837  0.34725  Biso   1.000  C
  C2010    1.0000 0.48652  0.59126  0.80502  Biso   1.000  C
  C2011    1.0000 0.48170  0.58478  0.83187  Biso   1.000  C
  C2012    1.0000 0.48713  0.59916  0.83632  Biso   1.000  C
  C2013    1.0000 0.89025  0.37151  0.31442  Biso   1.000  C
  C2014    1.0000 0.31175  0.92003  0.49577  Biso   1.000  C
  C2015    1.0000 0.31431  0.91695  0.48014  Biso   1.000  C
  C2016    1.0000 0.24884  0.01363  0.46185  Biso   1.000  C
  C2017    1.0000 0.96040  0.16014  0.77721  Biso   1.000  C
  C2018    1.0000 0.92413  0.15665  0.86240  Biso   1.000  C
  C2019    1.0000 0.94894  0.13787  0.87072  Biso   1.000  C
  C2020    1.0000 0.93390  0.13394  0.87532  Biso   1.000  C
  C2021    1.0000 0.91590  0.56506  0.34656  Biso   1.000  C
  C2022    1.0000 0.90665  0.57480  0.35566  Biso   1.000  C
  C2023    1.0000 0.98769  0.09284  0.80473  Biso   1.000  C
  C2024    1.0000 0.99341  0.10691  0.81026  Biso   1.000  C
  C2025    1.0000 0.98501  0.08371  0.83108  Biso   1.000  C
  C2026    1.0000 0.88531  0.87715  0.80866  Biso   1.000  C
  C2027    1.0000 0.31079  0.41992  0.99636  Biso   1.000  C
  C2028    1.0000 0.31427  0.41639  0.98101  Biso   1.000  C
  C2029    1.0000 0.25518  0.50726  0.96182  Biso   1.000  C
  C2030    1.0000 0.94735  0.67846  0.29168  Biso   1.000  C
  C2031    1.0000 0.96303  0.66200  0.27550  Biso   1.000  C
  C2032    1.0000 0.92652  0.65814  0.36820  Biso   1.000  C
  C2033    1.0000 0.95030  0.63633  0.36698  Biso   1.000  C
  C2034    1.0000 0.93539  0.63186  0.37143  Biso   1.000  C
  C2035    1.0000 0.91983  0.06832  0.84647  Biso   1.000  C
  C2036    1.0000 0.98788  0.59121  0.30647  Biso   1.000  C
  C2037    1.0000 0.99351  0.60543  0.31169  Biso   1.000  C
  C2038    1.0000 0.98324  0.58343  0.33300  Biso   1.000  C
  C2039    1.0000 0.37095  0.82274  0.39221  Biso   1.000  C
  C2040    1.0000 0.91900  0.99710  0.81056  Biso   1.000  C
  C2041    1.0000 0.91561  0.98169  0.81375  Biso   1.000  C
  C2042    1.0000 0.00433  0.93569  0.75744  Biso   1.000  C
  C2043    1.0000 0.16921  0.29475  0.44470  Biso   1.000  C
  C2044    1.0000 0.16911  0.27454  0.46394  Biso   1.000  C
  C2045    1.0000 0.16042  0.36308  0.44407  Biso   1.000  C
  C2046    1.0000 0.13384  0.36837  0.45079  Biso   1.000  C
  C2047    1.0000 0.13106  0.37336  0.43559  Biso   1.000  C
  C2048    1.0000 0.57410  0.84603  0.42565  Biso   1.000  C
  C2049    1.0000 0.09704  0.30408  0.47719  Biso   1.000  C
  C2050    1.0000 0.11074  0.30929  0.48384  Biso   1.000  C
  C2051    1.0000 0.08284  0.32402  0.49075  Biso   1.000  C
  C2052    1.0000 0.36980  0.32257  0.89212  Biso   1.000  C
  C2053    1.0000 0.91977  0.49516  0.31080  Biso   1.000  C
  C2054    1.0000 0.91623  0.47991  0.31457  Biso   1.000  C
  C2055    1.0000 0.01900  0.45070  0.24441  Biso   1.000  C
  C2056    1.0000 0.00066  0.43832  0.26151  Biso   1.000  C
  C2057    1.0000 0.18132  0.78879  0.94864  Biso   1.000  C
  C2058    1.0000 0.15955  0.77750  0.96208  Biso   1.000  C
  C2059    1.0000 0.16090  0.86421  0.94257  Biso   1.000  C
  C2060    1.0000 0.13378  0.86645  0.94880  Biso   1.000  C
  C2061    1.0000 0.13080  0.87167  0.93369  Biso   1.000  C
  C2062    1.0000 0.58244  0.33592  0.92488  Biso   1.000  C
  C2063    1.0000 0.09792  0.80301  0.97720  Biso   1.000  C
  C2064    1.0000 0.11184  0.80813  0.98355  Biso   1.000  C
  C2065    1.0000 0.08412  0.82274  0.99145  Biso   1.000  C
  C2066    1.0000 0.87163  0.82289  0.89089  Biso   1.000  C
  C2067    1.0000 0.41785  0.99782  0.31300  Biso   1.000  C
  C2068    1.0000 0.51747  0.95826  0.24599  Biso   1.000  C
  C2069    1.0000 0.50519  0.93517  0.25599  Biso   1.000  C
  C2070    1.0000 0.67714  0.29158  0.94735  Biso   1.000  C
  C2071    1.0000 0.66132  0.27494  0.96323  Biso   1.000  C
  C2072    1.0000 0.66075  0.36086  0.94143  Biso   1.000  C
  C2073    1.0000 0.63566  0.36994  0.94969  Biso   1.000  C
  C2074    1.0000 0.63261  0.37511  0.93463  Biso   1.000  C
  C2075    1.0000 0.07394  0.84538  0.92504  Biso   1.000  C
  C2076    1.0000 0.59555  0.30237  0.98295  Biso   1.000  C
  C2077    1.0000 0.60914  0.30822  0.98942  Biso   1.000  C
  C2078    1.0000 0.58290  0.32694  0.98747  Biso   1.000  C
  C2079    1.0000 0.41240  0.48236  0.82371  Biso   1.000  C
  C2080    1.0000 0.50117  0.43810  0.76058  Biso   1.000  C
  C2081    1.0000 0.67739  0.79166  0.44787  Biso   1.000  C
  C2082    1.0000 0.66215  0.77496  0.46427  Biso   1.000  C
  C2083    1.0000 0.65714  0.86917  0.42642  Biso   1.000  C
  C2084    1.0000 0.63557  0.86777  0.45041  Biso   1.000  C
  C2085    1.0000 0.63116  0.87308  0.43578  Biso   1.000  C
  C2086    1.0000 0.08270  0.33532  0.42470  Biso   1.000  C
  C2087    1.0000 0.59611  0.80329  0.48360  Biso   1.000  C
  C2088    1.0000 0.60987  0.80908  0.48975  Biso   1.000  C
  C2089    1.0000 0.58387  0.82815  0.48770  Biso   1.000  C
  C2090    1.0000 0.37648  0.31694  0.86110  Biso   1.000  C
  C2091    1.0000 0.83013  0.49565  0.43638  Biso   1.000  C
  C2092    1.0000 0.83311  0.48008  0.43357  Biso   1.000  C
  C2093    1.0000 0.74546  0.43565  0.49348  Biso   1.000  C
  C2094    1.0000 0.57094  0.79136  0.80363  Biso   1.000  C
  C2095    1.0000 0.58837  0.77641  0.78770  Biso   1.000  C
  C2096    1.0000 0.59227  0.85984  0.80930  Biso   1.000  C
  C2097    1.0000 0.59588  0.86481  0.82436  Biso   1.000  C
  C2098    1.0000 0.61506  0.87270  0.79954  Biso   1.000  C
  C2099    1.0000 0.17625  0.34583  0.82502  Biso   1.000  C
  C2100    1.0000 0.65463  0.80518  0.77206  Biso   1.000  C
  C2101    1.0000 0.64036  0.81011  0.76651  Biso   1.000  C
  C2102    1.0000 0.65289  0.83173  0.75392  Biso   1.000  C
  C2103    1.0000 0.37985  0.81654  0.36181  Biso   1.000  C
  C2104    1.0000 0.82976  0.99546  0.93784  Biso   1.000  C
  C2105    1.0000 0.83273  0.97988  0.93506  Biso   1.000  C
  C2106    1.0000 0.74505  0.93448  0.99391  Biso   1.000  C
  C2107    1.0000 0.56937  0.29022  0.30295  Biso   1.000  C
  C2108    1.0000 0.59083  0.27889  0.28909  Biso   1.000  C
  C2109    1.0000 0.59251  0.36274  0.30930  Biso   1.000  C
  C2110    1.0000 0.59658  0.36800  0.32413  Biso   1.000  C
  C2111    1.0000 0.61765  0.37022  0.29976  Biso   1.000  C
  C2112    1.0000 0.17704  0.84646  0.32560  Biso   1.000  C
  C2113    1.0000 0.65282  0.30481  0.27363  Biso   1.000  C
  C2114    1.0000 0.63880  0.30942  0.26720  Biso   1.000  C
  C2115    1.0000 0.66626  0.32404  0.25835  Biso   1.000  C
  C2116    1.0000 0.87997  0.32280  0.36027  Biso   1.000  C
  C2117    1.0000 0.32982  0.49558  0.94024  Biso   1.000  C
  C2118    1.0000 0.33317  0.48006  0.93756  Biso   1.000  C
  C2119    1.0000 0.23144  0.45137  0.00724  Biso   1.000  C
  C2120    1.0000 0.24908  0.43726  0.99078  Biso   1.000  C
  C2121    1.0000 0.07049  0.79205  0.30361  Biso   1.000  C
  C2122    1.0000 0.08750  0.77674  0.28761  Biso   1.000  C
  C2123    1.0000 0.09271  0.85990  0.30870  Biso   1.000  C
  C2124    1.0000 0.09614  0.86522  0.32368  Biso   1.000  C
  C2125    1.0000 0.11559  0.87257  0.29891  Biso   1.000  C
  C2126    1.0000 0.67374  0.34415  0.32628  Biso   1.000  C
  C2127    1.0000 0.66497  0.35331  0.33637  Biso   1.000  C
  C2128    1.0000 0.15412  0.80442  0.27241  Biso   1.000  C
  C2129    1.0000 0.13988  0.80901  0.26647  Biso   1.000  C
  C2130    1.0000 0.15265  0.82952  0.25233  Biso   1.000  C
  C2131    1.0000 0.88027  0.81682  0.86039  Biso   1.000  C
  C2132    1.0000 0.33065  0.99619  0.43574  Biso   1.000  C
  C2133    1.0000 0.33378  0.98074  0.43245  Biso   1.000  C
  C2134    1.0000 0.23130  0.95269  0.50765  Biso   1.000  C
  C2135    1.0000 0.24848  0.93794  0.49127  Biso   1.000  C
  C2136    1.0000 0.06813  0.29022  0.80207  Biso   1.000  C
  C2137    1.0000 0.08942  0.27858  0.78816  Biso   1.000  C
  C2138    1.0000 0.08966  0.36533  0.80782  Biso   1.000  C
  C2139    1.0000 0.11690  0.36668  0.80180  Biso   1.000  C
  C2140    1.0000 0.11988  0.37209  0.81683  Biso   1.000  C
  C2141    1.0000 0.67705  0.84534  0.82574  Biso   1.000  C
  C2142    1.0000 0.15251  0.30278  0.77208  Biso   1.000  C
  C2143    1.0000 0.13828  0.30771  0.76635  Biso   1.000  C
  C2144    1.0000 0.15118  0.32840  0.75262  Biso   1.000  C
  C2145    1.0000 0.32960  0.75722  0.30873  Biso   1.000  C
  C2146    1.0000 0.33296  0.77231  0.31300  Biso   1.000  C
  C2147    1.0000 0.23520  0.79235  0.24641  Biso   1.000  C
  C2148    1.0000 0.24542  0.81641  0.25635  Biso   1.000  C
  C2149    1.0000 0.07305  0.45693  0.94659  Biso   1.000  C
  C2150    1.0000 0.08726  0.47401  0.96346  Biso   1.000  C
  C2151    1.0000 0.09471  0.39592  0.94068  Biso   1.000  C
  C2152    1.0000 0.09829  0.39128  0.92556  Biso   1.000  C
  C2153    1.0000 0.10811  0.37359  0.95062  Biso   1.000  C
  C2154    1.0000 0.67941  0.90275  0.92303  Biso   1.000  C
  C2155    1.0000 0.67055  0.89321  0.91334  Biso   1.000  C
  C2156    1.0000 0.14574  0.43828  0.99713  Biso   1.000  C
  C2157    1.0000 0.16424  0.41987  0.97804  Biso   1.000  C
  C2158    1.0000 0.15013  0.41435  0.98321  Biso   1.000  C
  C2159    1.0000 0.33078  0.25438  0.81644  Biso   1.000  C
  C2160    1.0000 0.33375  0.26987  0.81954  Biso   1.000  C
  C2161    1.0000 0.23423  0.28992  0.74727  Biso   1.000  C
  C2162    1.0000 0.24470  0.31408  0.75652  Biso   1.000  C
  C2163    1.0000 0.06870  0.96278  0.45103  Biso   1.000  C
  C2164    1.0000 0.09462  0.96954  0.45881  Biso   1.000  C
  C2165    1.0000 0.09209  0.89240  0.43916  Biso   1.000  C
  C2166    1.0000 0.09611  0.88718  0.42427  Biso   1.000  C
  C2167    1.0000 0.11026  0.87435  0.45030  Biso   1.000  C
  C2168    1.0000 0.67294  0.40572  0.42679  Biso   1.000  C
  C2169    1.0000 0.66433  0.39615  0.41696  Biso   1.000  C
  C2170    1.0000 0.14419  0.93869  0.49659  Biso   1.000  C
  C2171    1.0000 0.16328  0.92076  0.47766  Biso   1.000  C
  C2172    1.0000 0.14922  0.91491  0.48264  Biso   1.000  C
  C2173    1.0000 0.37697  0.93067  0.38981  Biso   1.000  C
  C2174    1.0000 0.82964  0.75700  0.80790  Biso   1.000  C
  C2175    1.0000 0.83304  0.77214  0.81204  Biso   1.000  C
  C2176    1.0000 0.73335  0.79797  0.74342  Biso   1.000  C
  C2177    1.0000 0.75063  0.81016  0.76174  Biso   1.000  C
  C2178    1.0000 0.57078  0.45882  0.44813  Biso   1.000  C
  C2179    1.0000 0.59193  0.39325  0.43963  Biso   1.000  C
  C2180    1.0000 0.59582  0.38789  0.42476  Biso   1.000  C
  C2181    1.0000 0.61013  0.37526  0.45079  Biso   1.000  C
  C2182    1.0000 0.17882  0.90358  0.42297  Biso   1.000  C
  C2183    1.0000 0.16997  0.89415  0.41316  Biso   1.000  C
  C2184    1.0000 0.65565  0.44745  0.48625  Biso   1.000  C
  C2185    1.0000 0.66536  0.42119  0.48557  Biso   1.000  C
  C2186    1.0000 0.65116  0.41590  0.49088  Biso   1.000  C
  C2187    1.0000 0.83069  0.25475  0.31148  Biso   1.000  C
  C2188    1.0000 0.83403  0.27014  0.31478  Biso   1.000  C
  C2189    1.0000 0.73488  0.29139  0.24741  Biso   1.000  C
  C2190    1.0000 0.74520  0.31578  0.25628  Biso   1.000  C
  C2191    1.0000 0.56885  0.96259  0.95104  Biso   1.000  C
  C2192    1.0000 0.59531  0.96850  0.95760  Biso   1.000  C
  C2193    1.0000 0.59275  0.89136  0.93963  Biso   1.000  C
  C2194    1.0000 0.59684  0.88606  0.92481  Biso   1.000  C
  C2195    1.0000 0.61102  0.87354  0.95099  Biso   1.000  C
  C2196    1.0000 0.17069  0.40995  0.92513  Biso   1.000  C
  C2197    1.0000 0.16125  0.40044  0.91609  Biso   1.000  C
  C2198    1.0000 0.64426  0.93783  0.99636  Biso   1.000  C
  C2199    1.0000 0.66344  0.91989  0.97754  Biso   1.000  C
  C2200    1.0000 0.64954  0.91387  0.98280  Biso   1.000  C
  C2201    1.0000 0.87075  0.42163  0.36008  Biso   1.000  C
  C2202    1.0000 0.41755  0.25184  0.92804  Biso   1.000  C
  C2203    1.0000 0.50309  0.31158  0.99065  Biso   1.000  C
  C2204    1.0000 0.67770  0.95819  0.30275  Biso   1.000  C
  C2205    1.0000 0.65714  0.88099  0.32537  Biso   1.000  C
  C2206    1.0000 0.63567  0.88212  0.30127  Biso   1.000  C
  C2207    1.0000 0.63104  0.87756  0.31607  Biso   1.000  C
  C2208    1.0000 0.07463  0.40424  0.32688  Biso   1.000  C
  C2209    1.0000 0.08412  0.39519  0.33628  Biso   1.000  C
  C2210    1.0000 0.60614  0.93824  0.25459  Biso   1.000  C
  C2211    1.0000 0.58667  0.91965  0.27249  Biso   1.000  C
  C2212    1.0000 0.60068  0.91387  0.26728  Biso   1.000  C
  C2213    1.0000 0.87133  0.93563  0.86105  Biso   1.000  C
  C2214    1.0000 0.41801  0.75340  0.42957  Biso   1.000  C
  C2215    1.0000 0.51321  0.78981  0.50033  Biso   1.000  C
  C2216    1.0000 0.67690  0.45803  0.80276  Biso   1.000  C
  C2217    1.0000 0.65656  0.38709  0.82542  Biso   1.000  C
  C2218    1.0000 0.63852  0.37794  0.80034  Biso   1.000  C
  C2219    1.0000 0.63451  0.37326  0.81537  Biso   1.000  C
  C2220    1.0000 0.07403  0.90471  0.82591  Biso   1.000  C
  C2221    1.0000 0.08357  0.89562  0.83527  Biso   1.000  C
  C2222    1.0000 0.59247  0.44439  0.76333  Biso   1.000  C
  C2223    1.0000 0.60645  0.43935  0.75703  Biso   1.000  C
  C2224    1.0000 0.59976  0.41304  0.76376  Biso   1.000  C
  C2225    1.0000 0.36999  0.42974  0.86199  Biso   1.000  C
  C2226    1.0000 0.91738  0.25223  0.42758  Biso   1.000  C
  C2227    1.0000 0.00339  0.31165  0.49075  Biso   1.000  C
  C2228    1.0000 0.17019  0.97332  0.78759  Biso   1.000  C
  C2229    1.0000 0.16055  0.88550  0.80753  Biso   1.000  C
  C2230    1.0000 0.13355  0.88221  0.80129  Biso   1.000  C
  C2231    1.0000 0.13061  0.87770  0.81662  Biso   1.000  C
  C2232    1.0000 0.57379  0.40351  0.82607  Biso   1.000  C
  C2233    1.0000 0.58326  0.39452  0.83556  Biso   1.000  C
  C2234    1.0000 0.09398  0.94599  0.76681  Biso   1.000  C
  C2235    1.0000 0.10810  0.94117  0.76079  Biso   1.000  C
  C2236    1.0000 0.09997  0.91455  0.76352  Biso   1.000  C
  C2237    1.0000 0.37088  0.93620  0.35858  Biso   1.000  C
  C2238    1.0000 0.91800  0.75360  0.92779  Biso   1.000  C
  C2239    1.0000 0.17726  0.45811  0.30315  Biso   1.000  C
  C2240    1.0000 0.15691  0.38679  0.32656  Biso   1.000  C
  C2241    1.0000 0.13868  0.37758  0.30164  Biso   1.000  C
  C2242    1.0000 0.13487  0.37285  0.31671  Biso   1.000  C
  C2243    1.0000 0.57539  0.90506  0.32618  Biso   1.000  C
  C2244    1.0000 0.58448  0.89602  0.33609  Biso   1.000  C
  C2245    1.0000 0.09165  0.44357  0.26316  Biso   1.000  C
  C2246    1.0000 0.10570  0.43852  0.25703  Biso   1.000  C
  C2247    1.0000 0.09944  0.41240  0.26483  Biso   1.000  C
  C2248    1.0000 0.31533  0.85774  0.38036  Biso   1.000  C
  C2249    1.0000 0.49366  0.43682  0.83057  Biso   1.000  C
  C2250    1.0000 0.47825  0.43355  0.83370  Biso   1.000  C
  C2251    1.0000 0.46169  0.50071  0.73910  Biso   1.000  C
  C2252    1.0000 0.43379  0.49897  0.73875  Biso   1.000  C
  C2253    1.0000 0.79133  0.80502  0.57529  Biso   1.000  C
  C2254    1.0000 0.86219  0.80820  0.59062  Biso   1.000  C
  C2255    1.0000 0.86802  0.80037  0.61674  Biso   1.000  C
  C2256    1.0000 0.87283  0.81546  0.62010  Biso   1.000  C
  C2257    1.0000 0.34558  0.82398  0.17322  Biso   1.000  C
  C2258    1.0000 0.35468  0.83389  0.16416  Biso   1.000  C
  C2259    1.0000 0.80369  0.76650  0.65600  Biso   1.000  C
  C2260    1.0000 0.80820  0.76111  0.64145  Biso   1.000  C
  C2261    1.0000 0.83375  0.75564  0.65159  Biso   1.000  C
  C2262    1.0000 0.30667  0.36563  0.87425  Biso   1.000  C
  C2263    1.0000 0.49044  0.94533  0.31579  Biso   1.000  C
  C2264    1.0000 0.45698  0.00355  0.23515  Biso   1.000  C
  C2265    1.0000 0.78146  0.29290  0.09423  Biso   1.000  C
  C2266    1.0000 0.85787  0.31032  0.09047  Biso   1.000  C
  C2267    1.0000 0.87116  0.30030  0.11285  Biso   1.000  C
  C2268    1.0000 0.87587  0.31528  0.11675  Biso   1.000  C
  C2269    1.0000 0.35469  0.33583  0.66904  Biso   1.000  C
  C2270    1.0000 0.80925  0.25519  0.14284  Biso   1.000  C
  C2271    1.0000 0.83048  0.26561  0.16483  Biso   1.000  C
  C2272    1.0000 0.83564  0.26025  0.15066  Biso   1.000  C
  C2273    1.0000 0.81578  0.85749  0.87985  Biso   1.000  C
  C2274    1.0000 0.99301  0.44327  0.33009  Biso   1.000  C
  C2275    1.0000 0.96189  0.50106  0.23936  Biso   1.000  C
  C2276    1.0000 0.93402  0.49877  0.23941  Biso   1.000  C
  C2277    1.0000 0.29166  0.80345  0.07319  Biso   1.000  C
  C2278    1.0000 0.35893  0.80971  0.09128  Biso   1.000  C
  C2279    1.0000 0.37275  0.79959  0.11331  Biso   1.000  C
  C2280    1.0000 0.37788  0.81452  0.11690  Biso   1.000  C
  C2281    1.0000 0.84706  0.82736  0.67792  Biso   1.000  C
  C2282    1.0000 0.85626  0.83733  0.66904  Biso   1.000  C
  C2283    1.0000 0.30295  0.76705  0.15395  Biso   1.000  C
  C2284    1.0000 0.30862  0.76083  0.14017  Biso   1.000  C
  C2285    1.0000 0.32729  0.76119  0.16654  Biso   1.000  C
  C2286    1.0000 0.81962  0.35843  0.37936  Biso   1.000  C
  C2287    1.0000 0.99011  0.94625  0.81678  Biso   1.000  C
  C2288    1.0000 0.95878  0.00320  0.73674  Biso   1.000  C
  C2289    1.0000 0.29002  0.30369  0.57336  Biso   1.000  C
  C2290    1.0000 0.35735  0.31046  0.59062  Biso   1.000  C
  C2291    1.0000 0.37153  0.30028  0.61238  Biso   1.000  C
  C2292    1.0000 0.37618  0.31528  0.61632  Biso   1.000  C
  C2293    1.0000 0.84506  0.32701  0.17686  Biso   1.000  C
  C2294    1.0000 0.85449  0.33693  0.16816  Biso   1.000  C
  C2295    1.0000 0.30488  0.26069  0.65824  Biso   1.000  C
  C2296    1.0000 0.30960  0.25563  0.64362  Biso   1.000  C
  C2297    1.0000 0.33634  0.25916  0.65122  Biso   1.000  C
  C2298    1.0000 0.99606  0.81295  0.91846  Biso   1.000  C
  C2299    1.0000 0.98081  0.81718  0.91558  Biso   1.000  C
  C2300    1.0000 0.93539  0.75807  0.00377  Biso   1.000  C
  C2301    1.0000 0.29491  0.44308  0.17085  Biso   1.000  C
  C2302    1.0000 0.27470  0.46232  0.17109  Biso   1.000  C
  C2303    1.0000 0.36611  0.42566  0.15617  Biso   1.000  C
  C2304    1.0000 0.36793  0.44983  0.13483  Biso   1.000  C
  C2305    1.0000 0.37284  0.43498  0.13074  Biso   1.000  C
  C2306    1.0000 0.84736  0.41762  0.56378  Biso   1.000  C
  C2307    1.0000 0.30776  0.49094  0.10825  Biso   1.000  C
  C2308    1.0000 0.32968  0.48334  0.08579  Biso   1.000  C
  C2309    1.0000 0.33444  0.48856  0.10016  Biso   1.000  C
  C2310    1.0000 0.81640  0.88875  0.87191  Biso   1.000  C
  C2311    1.0000 0.99349  0.30807  0.42115  Biso   1.000  C
  C2312    1.0000 0.93628  0.25778  0.50440  Biso   1.000  C
  C2313    1.0000 0.27782  0.95937  0.65999  Biso   1.000  C
  C2314    1.0000 0.35330  0.94113  0.65499  Biso   1.000  C
  C2315    1.0000 0.37629  0.95047  0.64228  Biso   1.000  C
  C2316    1.0000 0.38030  0.93522  0.63833  Biso   1.000  C
  C2317    1.0000 0.84613  0.92143  0.07057  Biso   1.000  C
  C2318    1.0000 0.85581  0.91227  0.07982  Biso   1.000  C
  C2319    1.0000 0.31090  0.99464  0.60675  Biso   1.000  C
  C2320    1.0000 0.33164  0.98221  0.58541  Biso   1.000  C
  C2321    1.0000 0.33694  0.98732  0.59964  Biso   1.000  C
  C2322    1.0000 0.32762  0.39009  0.87247  Biso   1.000  C
  C2323    1.0000 0.48098  0.81931  0.41512  Biso   1.000  C
  C2324    1.0000 0.43883  0.76110  0.50135  Biso   1.000  C
  C2325    1.0000 0.79459  0.44301  0.66855  Biso   1.000  C
  C2326    1.0000 0.77447  0.46229  0.67001  Biso   1.000  C
  C2327    1.0000 0.86556  0.42606  0.65466  Biso   1.000  C
  C2328    1.0000 0.86765  0.45020  0.63331  Biso   1.000  C
  C2329    1.0000 0.87240  0.43528  0.62923  Biso   1.000  C
  C2330    1.0000 0.34680  0.41695  0.06499  Biso   1.000  C
  C2331    1.0000 0.80798  0.49181  0.60748  Biso   1.000  C
  C2332    1.0000 0.83006  0.48438  0.58512  Biso   1.000  C
  C2333    1.0000 0.83472  0.48972  0.59949  Biso   1.000  C
  C2334    1.0000 0.31577  0.88898  0.37238  Biso   1.000  C
  C2335    1.0000 0.49388  0.30767  0.92063  Biso   1.000  C
  C2336    1.0000 0.43603  0.25795  0.00464  Biso   1.000  C
  C2337    1.0000 0.79216  0.94703  0.17813  Biso   1.000  C
  C2338    1.0000 0.77513  0.96337  0.16319  Biso   1.000  C
  C2339    1.0000 0.85803  0.94016  0.16068  Biso   1.000  C
  C2340    1.0000 0.87217  0.95020  0.13880  Biso   1.000  C
  C2341    1.0000 0.87676  0.93519  0.13491  Biso   1.000  C
  C2342    1.0000 0.35515  0.91529  0.58315  Biso   1.000  C
  C2343    1.0000 0.81562  0.99992  0.10214  Biso   1.000  C
  C2344    1.0000 0.82432  0.97054  0.09206  Biso   1.000  C
  C2345    1.0000 0.82903  0.97574  0.10643  Biso   1.000  C
  C2346    1.0000 0.42744  0.36070  0.87089  Biso   1.000  C
  C2347    1.0000 0.25329  0.93872  0.41713  Biso   1.000  C
  C2348    1.0000 0.28945  0.00113  0.51040  Biso   1.000  C
  C2349    1.0000 0.31728  0.99837  0.50961  Biso   1.000  C
  C2350    1.0000 0.97287  0.28835  0.66299  Biso   1.000  C
  C2351    1.0000 0.88625  0.30796  0.65897  Biso   1.000  C
  C2352    1.0000 0.88150  0.30013  0.63264  Biso   1.000  C
  C2353    1.0000 0.87693  0.31521  0.62904  Biso   1.000  C
  C2354    1.0000 0.40461  0.32765  0.07089  Biso   1.000  C
  C2355    1.0000 0.94181  0.25839  0.60795  Biso   1.000  C
  C2356    1.0000 0.92047  0.26612  0.58501  Biso   1.000  C
  C2357    1.0000 0.91533  0.26056  0.59916  Biso   1.000  C
  C2358    1.0000 0.42213  0.86345  0.37417  Biso   1.000  C
  C2359    1.0000 0.25730  0.44365  0.92224  Biso   1.000  C
  C2360    1.0000 0.28935  0.50113  0.01104  Biso   1.000  C
  C2361    1.0000 0.31707  0.49759  0.00976  Biso   1.000  C
  C2362    1.0000 0.97442  0.78739  0.16218  Biso   1.000  C
  C2363    1.0000 0.88794  0.80724  0.15948  Biso   1.000  C
  C2364    1.0000 0.88336  0.79996  0.13295  Biso   1.000  C
  C2365    1.0000 0.87887  0.81512  0.12963  Biso   1.000  C
  C2366    1.0000 0.41076  0.82502  0.58094  Biso   1.000  C
  C2367    1.0000 0.40105  0.83447  0.58972  Biso   1.000  C
  C2368    1.0000 0.94223  0.75806  0.10689  Biso   1.000  C
  C2369    1.0000 0.92043  0.76697  0.08482  Biso   1.000  C
  C2370    1.0000 0.91558  0.76117  0.09897  Biso   1.000  C
  C2371    1.0000 0.92829  0.36090  0.37088  Biso   1.000  C
  C2372    1.0000 0.75382  0.93850  0.91712  Biso   1.000  C
  C2373    1.0000 0.81765  0.99748  0.00921  Biso   1.000  C
  C2374    1.0000 0.47365  0.28770  0.16334  Biso   1.000  C
  C2375    1.0000 0.38707  0.30750  0.15970  Biso   1.000  C
  C2376    1.0000 0.38221  0.29990  0.13331  Biso   1.000  C
  C2377    1.0000 0.37771  0.31502  0.12985  Biso   1.000  C
  C2378    1.0000 0.90454  0.32749  0.57032  Biso   1.000  C
  C2379    1.0000 0.44208  0.25816  0.10800  Biso   1.000  C
  C2380    1.0000 0.42058  0.26634  0.08537  Biso   1.000  C
  C2381    1.0000 0.41554  0.26068  0.09951  Biso   1.000  C
  C2382    1.0000 0.93157  0.86092  0.87018  Biso   1.000  C
  C2383    1.0000 0.75314  0.43872  0.41793  Biso   1.000  C
  C2384    1.0000 0.78926  0.50094  0.50921  Biso   1.000  C
  C2385    1.0000 0.81712  0.49862  0.50881  Biso   1.000  C
  C2386    1.0000 0.47214  0.79008  0.66055  Biso   1.000  C
  C2387    1.0000 0.39063  0.80936  0.66009  Biso   1.000  C
  C2388    1.0000 0.37764  0.80036  0.63707  Biso   1.000  C
  C2389    1.0000 0.37302  0.81555  0.63377  Biso   1.000  C
  C2390    1.0000 0.90461  0.83292  0.06675  Biso   1.000  C
  C2391    1.0000 0.89564  0.84277  0.07599  Biso   1.000  C
  C2392    1.0000 0.44013  0.75392  0.60581  Biso   1.000  C
  C2393    1.0000 0.42116  0.77067  0.58569  Biso   1.000  C
  C2394    1.0000 0.41535  0.76548  0.59968  Biso   1.000  C
  C2395    1.0000 0.75584  0.30941  0.32955  Biso   1.000  C
  C2396    1.0000 0.79233  0.24514  0.23564  Biso   1.000  C
  C2397    1.0000 0.45790  0.94662  0.07193  Biso   1.000  C
  C2398    1.0000 0.47429  0.96227  0.08822  Biso   1.000  C
  C2399    1.0000 0.38918  0.94091  0.09171  Biso   1.000  C
  C2400    1.0000 0.38437  0.92585  0.09551  Biso   1.000  C
  C2401    1.0000 0.37696  0.95060  0.11490  Biso   1.000  C
  C2402    1.0000 0.90397  0.92257  0.67925  Biso   1.000  C
  C2403    1.0000 0.44577  0.98523  0.15676  Biso   1.000  C
  C2404    1.0000 0.44006  0.99038  0.14265  Biso   1.000  C
  C2405    1.0000 0.41967  0.98066  0.16570  Biso   1.000  C
  C2406    1.0000 0.75655  0.80717  0.82920  Biso   1.000  C
  C2407    1.0000 0.78976  0.74760  0.73691  Biso   1.000  C
  C2408    1.0000 0.45863  0.44675  0.57169  Biso   1.000  C
  C2409    1.0000 0.47332  0.46172  0.59006  Biso   1.000  C
  C2410    1.0000 0.38300  0.42592  0.59574  Biso   1.000  C
  C2411    1.0000 0.38088  0.45046  0.61660  Biso   1.000  C
  C2412    1.0000 0.37557  0.43576  0.62079  Biso   1.000  C
  C2413    1.0000 0.90385  0.42282  0.17963  Biso   1.000  C
  C2414    1.0000 0.44203  0.48903  0.64133  Biso   1.000  C
  C2415    1.0000 0.42075  0.48389  0.66507  Biso   1.000  C
  C2416    1.0000 0.41575  0.48960  0.65095  Biso   1.000  C
  C2417    1.0000 0.25251  0.31186  0.83334  Biso   1.000  C
  C2418    1.0000 0.28911  0.24817  0.74078  Biso   1.000  C
  C2419    1.0000 0.31696  0.25077  0.74113  Biso   1.000  C
  C2420    1.0000 0.95793  0.94691  0.57168  Biso   1.000  C
  C2421    1.0000 0.97476  0.96312  0.58694  Biso   1.000  C
  C2422    1.0000 0.88906  0.94134  0.59083  Biso   1.000  C
  C2423    1.0000 0.88396  0.92633  0.59452  Biso   1.000  C
  C2424    1.0000 0.87812  0.95090  0.61468  Biso   1.000  C
  C2425    1.0000 0.40501  0.92363  0.17719  Biso   1.000  C
  C2426    1.0000 0.93900  0.99487  0.66313  Biso   1.000  C
  C2427    1.0000 0.93063  0.96924  0.65527  Biso   1.000  C
  C2428    1.0000 0.25618  0.80858  0.32964  Biso   1.000  C
  C2429    1.0000 0.31566  0.75167  0.24054  Biso   1.000  C
  C2430    1.0000 0.96048  0.44762  0.07179  Biso   1.000  C
  C2431    1.0000 0.97456  0.46206  0.09106  Biso   1.000  C
  C2432    1.0000 0.88838  0.44190  0.09031  Biso   1.000  C
  C2433    1.0000 0.88327  0.44992  0.11654  Biso   1.000  C
  C2434    1.0000 0.87811  0.43502  0.12005  Biso   1.000  C
  C2435    1.0000 0.40275  0.42222  0.68044  Biso   1.000  C
  C2436    1.0000 0.94312  0.48962  0.14128  Biso   1.000  C
  C2437    1.0000 0.92207  0.48554  0.16541  Biso   1.000  C
  C2438    1.0000 0.91702  0.49121  0.15131  Biso   1.000  C
  C2439    1.0000 0.22128  0.26798  0.80182  Biso   1.000  C
  C2440    1.0000 0.08226  0.93552  0.48362  Biso   1.000  C
  C2441    1.0000 0.09669  0.96902  0.39340  Biso   1.000  C
  C2442    1.0000 0.11073  0.90580  0.37378  Biso   1.000  C
  C2443    1.0000 0.18258  0.97469  0.44171  Biso   1.000  C
  C2444    1.0000 0.12493  0.99844  0.41972  Biso   1.000  C
  C2445    1.0000 0.22260  0.76924  0.30179  Biso   1.000  C
  C2446    1.0000 0.08278  0.43534  0.98418  Biso   1.000  C
  C2447    1.0000 0.09774  0.47028  0.89381  Biso   1.000  C
  C2448    1.0000 0.11433  0.40796  0.87332  Biso   1.000  C
  C2449    1.0000 0.18242  0.47378  0.94167  Biso   1.000  C
  C2450    1.0000 0.12382  0.49854  0.92231  Biso   1.000  C
  C2451    1.0000 0.72225  0.26916  0.30091  Biso   1.000  C
  C2452    1.0000 0.58288  0.93513  0.98314  Biso   1.000  C
  C2453    1.0000 0.59627  0.96788  0.89305  Biso   1.000  C
  C2454    1.0000 0.61106  0.90462  0.87443  Biso   1.000  C
  C2455    1.0000 0.68241  0.97391  0.94078  Biso   1.000  C
  C2456    1.0000 0.62475  0.99763  0.91861  Biso   1.000  C
  C2457    1.0000 0.72276  0.76854  0.80067  Biso   1.000  C
  C2458    1.0000 0.58146  0.43622  0.48442  Biso   1.000  C
  C2459    1.0000 0.59818  0.46956  0.39348  Biso   1.000  C
  C2460    1.0000 0.61316  0.40652  0.37422  Biso   1.000  C
  C2461    1.0000 0.68146  0.47379  0.44122  Biso   1.000  C
  C2462    1.0000 0.62296  0.49870  0.42149  Biso   1.000  C
  C2463    1.0000 0.52898  0.98107  0.30140  Biso   1.000  C
  C2464    1.0000 0.66723  0.31322  0.98445  Biso   1.000  C
  C2465    1.0000 0.65417  0.28078  0.89215  Biso   1.000  C
  C2466    1.0000 0.63743  0.34340  0.87313  Biso   1.000  C
  C2467    1.0000 0.56691  0.27434  0.93821  Biso   1.000  C
  C2468    1.0000 0.62547  0.25185  0.91832  Biso   1.000  C
  C2469    1.0000 0.52750  0.47961  0.80151  Biso   1.000  C
  C2470    1.0000 0.66827  0.81338  0.48503  Biso   1.000  C
  C2471    1.0000 0.65307  0.78116  0.39382  Biso   1.000  C
  C2472    1.0000 0.63801  0.84456  0.37596  Biso   1.000  C
  C2473    1.0000 0.56685  0.77522  0.43951  Biso   1.000  C
  C2474    1.0000 0.62523  0.75193  0.41971  Biso   1.000  C
  C2475    1.0000 0.02833  0.98141  0.80160  Biso   1.000  C
  C2476    1.0000 0.16859  0.31445  0.48382  Biso   1.000  C
  C2477    1.0000 0.15273  0.27931  0.39201  Biso   1.000  C
  C2478    1.0000 0.13696  0.34300  0.37462  Biso   1.000  C
  C2479    1.0000 0.06722  0.27546  0.43789  Biso   1.000  C
  C2480    1.0000 0.12656  0.25158  0.42030  Biso   1.000  C
  C2481    1.0000 0.02885  0.48057  0.30225  Biso   1.000  C
  C2482    1.0000 0.17050  0.81428  0.98282  Biso   1.000  C
  C2483    1.0000 0.15386  0.78096  0.89337  Biso   1.000  C
  C2484    1.0000 0.13718  0.84369  0.87368  Biso   1.000  C
  C2485    1.0000 0.06632  0.77383  0.93885  Biso   1.000  C
  C2486    1.0000 0.12526  0.75170  0.91973  Biso   1.000  C
  C2487    1.0000 0.02662  0.76954  0.94832  Biso   1.000  C
  C2488    1.0000 0.16759  0.43573  0.26652  Biso   1.000  C
  C2489    1.0000 0.15545  0.46819  0.35787  Biso   1.000  C
  C2490    1.0000 0.13675  0.40652  0.37855  Biso   1.000  C
  C2491    1.0000 0.06812  0.47253  0.31089  Biso   1.000  C
  C2492    1.0000 0.12593  0.49687  0.33247  Biso   1.000  C
  C2493    1.0000 0.02826  0.26776  0.44735  Biso   1.000  C
  C2494    1.0000 0.16848  0.93375  0.76794  Biso   1.000  C
  C2495    1.0000 0.15178  0.97061  0.85812  Biso   1.000  C
  C2496    1.0000 0.13647  0.90722  0.87689  Biso   1.000  C
  C2497    1.0000 0.06769  0.97272  0.81080  Biso   1.000  C
  C2498    1.0000 0.12686  0.99649  0.82680  Biso   1.000  C
  C2499    1.0000 0.52763  0.76944  0.44901  Biso   1.000  C
  C2500    1.0000 0.66786  0.43605  0.76566  Biso   1.000  C
  C2501    1.0000 0.65498  0.46851  0.85767  Biso   1.000  C
  C2502    1.0000 0.63606  0.40676  0.87748  Biso   1.000  C
  C2503    1.0000 0.56656  0.47185  0.81151  Biso   1.000  C
  C2504    1.0000 0.62559  0.49527  0.83152  Biso   1.000  C
  C2505    1.0000 0.52821  0.26742  0.94789  Biso   1.000  C
  C2506    1.0000 0.66802  0.93523  0.26639  Biso   1.000  C
  C2507    1.0000 0.65483  0.96936  0.35704  Biso   1.000  C
  C2508    1.0000 0.63815  0.90672  0.37624  Biso   1.000  C
  C2509    1.0000 0.56828  0.97208  0.31049  Biso   1.000  C
  C2510    1.0000 0.62664  0.99561  0.33012  Biso   1.000  C
  C2511    1.0000 0.72109  0.48165  0.44899  Biso   1.000  C
  C2512    1.0000 0.58096  0.81496  0.76785  Biso   1.000  C
  C2513    1.0000 0.59898  0.77912  0.85774  Biso   1.000  C
  C2514    1.0000 0.61253  0.84255  0.87632  Biso   1.000  C
  C2515    1.0000 0.68319  0.77551  0.80867  Biso   1.000  C
  C2516    1.0000 0.62493  0.75116  0.82872  Biso   1.000  C
  C2517    1.0000 0.72165  0.98099  0.94971  Biso   1.000  C
  C2518    1.0000 0.57976  0.31589  0.26862  Biso   1.000  C
  C2519    1.0000 0.59634  0.28112  0.35766  Biso   1.000  C
  C2520    1.0000 0.61127  0.34444  0.37612  Biso   1.000  C
  C2521    1.0000 0.68315  0.27605  0.31012  Biso   1.000  C
  C2522    1.0000 0.62499  0.25262  0.33113  Biso   1.000  C
  C2523    1.0000 0.22219  0.48115  0.94985  Biso   1.000  C
  C2524    1.0000 0.08042  0.81522  0.26748  Biso   1.000  C
  C2525    1.0000 0.09830  0.77988  0.35776  Biso   1.000  C
  C2526    1.0000 0.11201  0.84362  0.37568  Biso   1.000  C
  C2527    1.0000 0.18299  0.77645  0.30974  Biso   1.000  C
  C2528    1.0000 0.12434  0.75218  0.32904  Biso   1.000  C
  C2529    1.0000 0.22198  0.98126  0.45002  Biso   1.000  C
  C2530    1.0000 0.07887  0.31572  0.76778  Biso   1.000  C
  C2531    1.0000 0.09566  0.28174  0.85652  Biso   1.000  C
  C2532    1.0000 0.11269  0.34431  0.87617  Biso   1.000  C
  C2533    1.0000 0.18261  0.27437  0.81083  Biso   1.000  C
  C2534    1.0000 0.12385  0.25229  0.82995  Biso   1.000  C
  C2535    1.0000 0.80473  0.22175  0.27059  Biso   1.000  C
  C2536    1.0000 0.48262  0.07975  0.93576  Biso   1.000  C
  C2537    1.0000 0.39324  0.09448  0.96983  Biso   1.000  C
  C2538    1.0000 0.37423  0.10867  0.90625  Biso   1.000  C
  C2539    1.0000 0.43924  0.18303  0.97428  Biso   1.000  C
  C2540    1.0000 0.41809  0.12431  0.99704  Biso   1.000  C
  C2541    1.0000 0.80216  0.72083  0.76920  Biso   1.000  C
  C2542    1.0000 0.48407  0.58335  0.43649  Biso   1.000  C
  C2543    1.0000 0.39248  0.59485  0.46937  Biso   1.000  C
  C2544    1.0000 0.37350  0.61019  0.40599  Biso   1.000  C
  C2545    1.0000 0.43901  0.68331  0.47336  Biso   1.000  C
  C2546    1.0000 0.41695  0.62515  0.49706  Biso   1.000  C
  C2547    1.0000 0.30448  0.22190  0.77204  Biso   1.000  C
  C2548    1.0000 0.98290  0.08135  0.43585  Biso   1.000  C
  C2549    1.0000 0.89223  0.09473  0.46951  Biso   1.000  C
  C2550    1.0000 0.87289  0.10931  0.40625  Biso   1.000  C
  C2551    1.0000 0.93971  0.18324  0.47340  Biso   1.000  C
  C2552    1.0000 0.91786  0.12495  0.49651  Biso   1.000  C
  C2553    1.0000 0.30123  0.72202  0.26964  Biso   1.000  C
  C2554    1.0000 0.98363  0.58278  0.93706  Biso   1.000  C
  C2555    1.0000 0.89164  0.59490  0.96964  Biso   1.000  C
  C2556    1.0000 0.87330  0.60982  0.90617  Biso   1.000  C
  C2557    1.0000 0.93869  0.68305  0.97183  Biso   1.000  C
  C2558    1.0000 0.91695  0.62523  0.99643  Biso   1.000  C
  C2559    1.0000 0.30496  0.52847  0.98084  Biso   1.000  C
  C2560    1.0000 0.98396  0.66728  0.31392  Biso   1.000  C
  C2561    1.0000 0.89382  0.65250  0.28018  Biso   1.000  C
  C2562    1.0000 0.87379  0.63927  0.34325  Biso   1.000  C
  C2563    1.0000 0.94347  0.56856  0.27688  Biso   1.000  C
  C2564    1.0000 0.92224  0.62602  0.25120  Biso   1.000  C
  C2565    1.0000 0.30467  0.02834  0.48000  Biso   1.000  C
  C2566    1.0000 0.98395  0.16776  0.81368  Biso   1.000  C
  C2567    1.0000 0.89248  0.15396  0.78035  Biso   1.000  C
  C2568    1.0000 0.87172  0.13645  0.84220  Biso   1.000  C
  C2569    1.0000 0.94266  0.06970  0.77564  Biso   1.000  C
  C2570    1.0000 0.92084  0.12764  0.75136  Biso   1.000  C
  C2571    1.0000 0.80442  0.52820  0.47872  Biso   1.000  C
  C2572    1.0000 0.48381  0.66801  0.81380  Biso   1.000  C
  C2573    1.0000 0.39327  0.65325  0.78069  Biso   1.000  C
  C2574    1.0000 0.37281  0.63650  0.84296  Biso   1.000  C
  C2575    1.0000 0.44287  0.56877  0.77679  Biso   1.000  C
  C2576    1.0000 0.42187  0.62736  0.75309  Biso   1.000  C
  C2577    1.0000 0.80480  0.02796  0.98011  Biso   1.000  C
  C2578    1.0000 0.48433  0.16782  0.31268  Biso   1.000  C
  C2579    1.0000 0.39239  0.15339  0.28058  Biso   1.000  C
  C2580    1.0000 0.37278  0.13655  0.34298  Biso   1.000  C
  C2581    1.0000 0.44278  0.06882  0.27599  Biso   1.000  C
  C2582    1.0000 0.42044  0.12666  0.25159  Biso   1.000  C
  C2583    1.0000 0.94533  0.02953  0.76869  Biso   1.000  C
  C2584    1.0000 0.26700  0.16757  0.43548  Biso   1.000  C
  C2585    1.0000 0.35796  0.15418  0.46886  Biso   1.000  C
  C2586    1.0000 0.37798  0.13709  0.40666  Biso   1.000  C
  C2587    1.0000 0.30879  0.06836  0.47377  Biso   1.000  C
  C2588    1.0000 0.33206  0.12530  0.49808  Biso   1.000  C
  C2589    1.0000 0.94635  0.52838  0.26969  Biso   1.000  C
  C2590    1.0000 0.26652  0.66692  0.93645  Biso   1.000  C
  C2591    1.0000 0.35879  0.65551  0.96823  Biso   1.000  C
  C2592    1.0000 0.37865  0.63682  0.90640  Biso   1.000  C
  C2593    1.0000 0.30944  0.56863  0.97428  Biso   1.000  C
  C2594    1.0000 0.33347  0.62602  0.99726  Biso   1.000  C
  C2595    1.0000 0.44604  0.02817  0.26985  Biso   1.000  C
  C2596    1.0000 0.76629  0.16704  0.93614  Biso   1.000  C
  C2597    1.0000 0.85751  0.15355  0.96793  Biso   1.000  C
  C2598    1.0000 0.87701  0.13677  0.90573  Biso   1.000  C
  C2599    1.0000 0.80851  0.06803  0.97393  Biso   1.000  C
  C2600    1.0000 0.83187  0.12502  0.99782  Biso   1.000  C
  C2601    1.0000 0.44609  0.52857  0.76892  Biso   1.000  C
  C2602    1.0000 0.76577  0.66805  0.43626  Biso   1.000  C
  C2603    1.0000 0.85680  0.65512  0.46819  Biso   1.000  C
  C2604    1.0000 0.87679  0.63982  0.40533  Biso   1.000  C
  C2605    1.0000 0.80832  0.56828  0.47229  Biso   1.000  C
  C2606    1.0000 0.83068  0.62603  0.49649  Biso   1.000  C
  C2607    1.0000 0.44515  0.72359  0.47963  Biso   1.000  C
  C2608    1.0000 0.76661  0.58206  0.81445  Biso   1.000  C
  C2609    1.0000 0.85729  0.59470  0.78078  Biso   1.000  C
  C2610    1.0000 0.87652  0.60940  0.84391  Biso   1.000  C
  C2611    1.0000 0.81191  0.68233  0.77702  Biso   1.000  C
  C2612    1.0000 0.83195  0.62420  0.75294  Biso   1.000  C
  C2613    1.0000 0.44524  0.22318  0.97939  Biso   1.000  C
  C2614    1.0000 0.76599  0.08297  0.31300  Biso   1.000  C
  C2615    1.0000 0.85807  0.09502  0.28066  Biso   1.000  C
  C2616    1.0000 0.87656  0.10963  0.34407  Biso   1.000  C
  C2617    1.0000 0.80851  0.18164  0.27743  Biso   1.000  C
  C2618    1.0000 0.83289  0.12476  0.25351  Biso   1.000  C
  C2619    1.0000 0.94464  0.72319  0.97863  Biso   1.000  C
  C2620    1.0000 0.26726  0.58162  0.31483  Biso   1.000  C
  C2621    1.0000 0.35804  0.59844  0.28003  Biso   1.000  C
  C2622    1.0000 0.37637  0.61253  0.34360  Biso   1.000  C
  C2623    1.0000 0.31043  0.68299  0.27717  Biso   1.000  C
  C2624    1.0000 0.32900  0.62454  0.25239  Biso   1.000  C
  C2625    1.0000 0.94564  0.22333  0.47873  Biso   1.000  C
  C2626    1.0000 0.26626  0.08205  0.81335  Biso   1.000  C
  C2627    1.0000 0.35767  0.09565  0.78077  Biso   1.000  C
  C2628    1.0000 0.37692  0.11002  0.84406  Biso   1.000  C
  C2629    1.0000 0.30851  0.18207  0.77859  Biso   1.000  C
  C2630    1.0000 0.33152  0.12488  0.75388  Biso   1.000  C
  C2631    1.0000 0.27023  0.80284  0.22247  Biso   1.000  C
  C2632    1.0000 0.93670  0.48322  0.08172  Biso   1.000  C
  C2633    1.0000 0.96867  0.39311  0.09654  Biso   1.000  C
  C2634    1.0000 0.90528  0.37468  0.11166  Biso   1.000  C
  C2635    1.0000 0.97535  0.44127  0.18314  Biso   1.000  C
  C2636    1.0000 0.99765  0.41773  0.12526  Biso   1.000  C
  C2637    1.0000 0.26956  0.30090  0.72279  Biso   1.000  C
  C2638    1.0000 0.93561  0.98333  0.58118  Biso   1.000  C
  C2639    1.0000 0.96970  0.89312  0.59752  Biso   1.000  C
  C2640    1.0000 0.90643  0.87384  0.61158  Biso   1.000  C
  C2641    1.0000 0.97417  0.94317  0.68242  Biso   1.000  C
  C2642    1.0000 0.99797  0.92136  0.62392  Biso   1.000  C
  C2643    1.0000 0.77202  0.80375  0.72368  Biso   1.000  C
  C2644    1.0000 0.43511  0.48262  0.58147  Biso   1.000  C
  C2645    1.0000 0.46778  0.39294  0.59669  Biso   1.000  C
  C2646    1.0000 0.40463  0.37476  0.61245  Biso   1.000  C
  C2647    1.0000 0.47354  0.43999  0.68288  Biso   1.000  C
  C2648    1.0000 0.49705  0.41790  0.62476  Biso   1.000  C
  C2649    1.0000 0.77018  0.30207  0.22288  Biso   1.000  C
  C2650    1.0000 0.43502  0.98244  0.08268  Biso   1.000  C
  C2651    1.0000 0.47029  0.89295  0.09706  Biso   1.000  C
  C2652    1.0000 0.40716  0.87397  0.11181  Biso   1.000  C
  C2653    1.0000 0.47452  0.94103  0.18219  Biso   1.000  C
  C2654    1.0000 0.49871  0.92117  0.12341  Biso   1.000  C
  C2655    1.0000 0.98078  0.30327  0.52732  Biso   1.000  C
  C2656    1.0000 0.31393  0.98345  0.66812  Biso   1.000  C
  C2657    1.0000 0.28055  0.89248  0.65239  Biso   1.000  C
  C2658    1.0000 0.34325  0.87344  0.63600  Biso   1.000  C
  C2659    1.0000 0.27683  0.94354  0.56879  Biso   1.000  C
  C2660    1.0000 0.25292  0.92193  0.62701  Biso   1.000  C
  C2661    1.0000 0.98079  0.80381  0.02692  Biso   1.000  C
  C2662    1.0000 0.31461  0.48213  0.17003  Biso   1.000  C
  C2663    1.0000 0.28018  0.39138  0.15244  Biso   1.000  C
  C2664    1.0000 0.34342  0.37279  0.13731  Biso   1.000  C
  C2665    1.0000 0.27659  0.44283  0.06909  Biso   1.000  C
  C2666    1.0000 0.25289  0.42119  0.12757  Biso   1.000  C
  C2667    1.0000 0.48069  0.30350  0.02745  Biso   1.000  C
  C2668    1.0000 0.81356  0.98419  0.16843  Biso   1.000  C
  C2669    1.0000 0.78152  0.89226  0.15410  Biso   1.000  C
  C2670    1.0000 0.84440  0.87283  0.13792  Biso   1.000  C
  C2671    1.0000 0.77626  0.94299  0.06841  Biso   1.000  C
  C2672    1.0000 0.75352  0.91892  0.12607  Biso   1.000  C
  C2673    1.0000 0.48223  0.80150  0.52884  Biso   1.000  C
  C2674    1.0000 0.81441  0.48201  0.66851  Biso   1.000  C
  C2675    1.0000 0.77948  0.39146  0.65075  Biso   1.000  C
  C2676    1.0000 0.84267  0.37305  0.63567  Biso   1.000  C
  C2677    1.0000 0.77728  0.44343  0.56819  Biso   1.000  C
  C2678    1.0000 0.75251  0.42156  0.62620  Biso   1.000  C
  C2679    1.0000 0.76992  0.94617  0.02802  Biso   1.000  C
  C2680    1.0000 0.43479  0.26782  0.16899  Biso   1.000  C
  C2681    1.0000 0.46896  0.35727  0.15360  Biso   1.000  C
  C2682    1.0000 0.40561  0.37659  0.13929  Biso   1.000  C
  C2683    1.0000 0.47481  0.30755  0.06790  Biso   1.000  C
  C2684    1.0000 0.49801  0.33084  0.12544  Biso   1.000  C
  C2685    1.0000 0.77038  0.44671  0.52770  Biso   1.000  C
  C2686    1.0000 0.43557  0.76665  0.66778  Biso   1.000  C
  C2687    1.0000 0.46880  0.85752  0.65304  Biso   1.000  C
  C2688    1.0000 0.40677  0.87823  0.63659  Biso   1.000  C
  C2689    1.0000 0.47502  0.80916  0.56835  Biso   1.000  C
  C2690    1.0000 0.49761  0.82796  0.62746  Biso   1.000  C
  C2691    1.0000 0.26966  0.94644  0.52868  Biso   1.000  C
  C2692    1.0000 0.93415  0.26839  0.66874  Biso   1.000  C
  C2693    1.0000 0.96777  0.35786  0.65392  Biso   1.000  C
  C2694    1.0000 0.90472  0.37683  0.63866  Biso   1.000  C
  C2695    1.0000 0.97460  0.30763  0.56775  Biso   1.000  C
  C2696    1.0000 0.99674  0.33192  0.62537  Biso   1.000  C
  C2697    1.0000 0.26950  0.44529  0.02867  Biso   1.000  C
  C2698    1.0000 0.93567  0.76733  0.16818  Biso   1.000  C
  C2699    1.0000 0.96947  0.85692  0.15288  Biso   1.000  C
  C2700    1.0000 0.90620  0.87673  0.13922  Biso   1.000  C
  C2701    1.0000 0.97498  0.80717  0.06730  Biso   1.000  C
  C2702    1.0000 0.99852  0.83050  0.12462  Biso   1.000  C
  C2703    1.0000 0.47958  0.44521  0.72320  Biso   1.000  C
  C2704    1.0000 0.81444  0.76811  0.58137  Biso   1.000  C
  C2705    1.0000 0.78104  0.85676  0.59812  Biso   1.000  C
  C2706    1.0000 0.84444  0.87608  0.61162  Biso   1.000  C
  C2707    1.0000 0.77642  0.80798  0.68289  Biso   1.000  C
  C2708    1.0000 0.75109  0.83193  0.62639  Biso   1.000  C
  C2709    1.0000 0.48219  0.94907  0.22169  Biso   1.000  C
  C2710    1.0000 0.81406  0.26655  0.08176  Biso   1.000  C
  C2711    1.0000 0.78047  0.35657  0.09712  Biso   1.000  C
  C2712    1.0000 0.84335  0.37665  0.11234  Biso   1.000  C
  C2713    1.0000 0.77568  0.30615  0.18220  Biso   1.000  C
  C2714    1.0000 0.75176  0.32881  0.12438  Biso   1.000  C
  C2715    1.0000 0.98069  0.44539  0.22318  Biso   1.000  C
  C2716    1.0000 0.31386  0.76647  0.08232  Biso   1.000  C
  C2717    1.0000 0.28212  0.85865  0.09515  Biso   1.000  C
  C2718    1.0000 0.34510  0.87615  0.11113  Biso   1.000  C
  C2719    1.0000 0.27758  0.81263  0.18319  Biso   1.000  C
  C2720    1.0000 0.25315  0.83487  0.12538  Biso   1.000  C
  C2721    1.0000 0.97984  0.94710  0.72289  Biso   1.000  C
  C2722    1.0000 0.31274  0.26697  0.58214  Biso   1.000  C
  C2723    1.0000 0.28004  0.35770  0.59782  Biso   1.000  C
  C2724    1.0000 0.34273  0.37734  0.61214  Biso   1.000  C
  C2725    1.0000 0.27564  0.30570  0.68232  Biso   1.000  C
  C2726    1.0000 0.25092  0.33095  0.62624  Biso   1.000  C
  C2727    1.0000 0.01870  0.47231  0.69637  Biso   1.000  C
  C2728    1.0000 0.68601  0.33259  0.01599  Biso   1.000  C
  C2729    1.0000 0.71823  0.34414  0.10766  Biso   1.000  C
  C2730    1.0000 0.65676  0.36318  0.12798  Biso   1.000  C
  C2731    1.0000 0.72377  0.43145  0.05880  Biso   1.000  C
  C2732    1.0000 0.74699  0.37429  0.08339  Biso   1.000  C
  C2733    1.0000 0.01940  0.97153  0.19774  Biso   1.000  C
  C2734    1.0000 0.68717  0.83270  0.51643  Biso   1.000  C
  C2735    1.0000 0.71826  0.84708  0.60778  Biso   1.000  C
  C2736    1.0000 0.65487  0.86203  0.62630  Biso   1.000  C
  C2737    1.0000 0.72486  0.93290  0.56034  Biso   1.000  C
  C2738    1.0000 0.74863  0.87564  0.58315  Biso   1.000  C
  C2739    1.0000 0.51966  0.47201  0.19539  Biso   1.000  C
  C2740    1.0000 0.18423  0.33028  0.51918  Biso   1.000  C
  C2741    1.0000 0.21780  0.34639  0.60817  Biso   1.000  C
  C2742    1.0000 0.15485  0.36210  0.62688  Biso   1.000  C
  C2743    1.0000 0.22339  0.43344  0.56266  Biso   1.000  C
  C2744    1.0000 0.24712  0.37560  0.58419  Biso   1.000  C
  C2745    1.0000 0.51855  0.97176  0.69834  Biso   1.000  C
  C2746    1.0000 0.18614  0.83128  0.01752  Biso   1.000  C
  C2747    1.0000 0.21986  0.84830  0.10646  Biso   1.000  C
  C2748    1.0000 0.15667  0.86188  0.12606  Biso   1.000  C
  C2749    1.0000 0.22494  0.93264  0.05570  Biso   1.000  C
  C2750    1.0000 0.24913  0.87586  0.07973  Biso   1.000  C
  C2751    1.0000 0.73233  0.77781  0.19806  Biso   1.000  C
  C2752    1.0000 0.06372  0.91684  0.51593  Biso   1.000  C
  C2753    1.0000 0.03037  0.90243  0.60808  Biso   1.000  C
  C2754    1.0000 0.09419  0.88879  0.62585  Biso   1.000  C
  C2755    1.0000 0.02584  0.81778  0.56073  Biso   1.000  C
  C2756    1.0000 0.00215  0.87710  0.57893  Biso   1.000  C
  C2757    1.0000 0.73088  0.27766  0.69805  Biso   1.000  C
  C2758    1.0000 0.06510  0.41703  0.01768  Biso   1.000  C
  C2759    1.0000 0.03108  0.40292  0.10811  Biso   1.000  C
  C2760    1.0000 0.09428  0.38814  0.12756  Biso   1.000  C
  C2761    1.0000 0.02600  0.31768  0.05824  Biso   1.000  C
  C2762    1.0000 0.00183  0.37456  0.08208  Biso   1.000  C
  C2763    1.0000 0.23088  0.77759  0.69735  Biso   1.000  C
  C2764    1.0000 0.56387  0.91706  0.01538  Biso   1.000  C
  C2765    1.0000 0.53084  0.90224  0.10753  Biso   1.000  C
  C2766    1.0000 0.59365  0.88598  0.12746  Biso   1.000  C
  C2767    1.0000 0.52775  0.81735  0.06187  Biso   1.000  C
  C2768    1.0000 0.50304  0.87694  0.07848  Biso   1.000  C
  C2769    1.0000 0.23131  0.27780  0.19946  Biso   1.000  C
  C2770    1.0000 0.56350  0.41676  0.51684  Biso   1.000  C
  C2771    1.0000 0.53024  0.40315  0.60740  Biso   1.000  C
  C2772    1.0000 0.59349  0.38832  0.62676  Biso   1.000  C
  C2773    1.0000 0.52567  0.31733  0.55972  Biso   1.000  C
  C2774    1.0000 0.50064  0.37413  0.58213  Biso   1.000  C
  C2775    1.0000 0.51776  0.27877  0.55017  Biso   1.000  C
  C2776    1.0000 0.18612  0.41669  0.23452  Biso   1.000  C
  C2777    1.0000 0.21989  0.40196  0.14228  Biso   1.000  C
  C2778    1.0000 0.15657  0.38656  0.12428  Biso   1.000  C
  C2779    1.0000 0.22365  0.31659  0.18982  Biso   1.000  C
  C2780    1.0000 0.24776  0.37531  0.17064  Biso   1.000  C
  C2781    1.0000 0.51886  0.77804  0.05358  Biso   1.000  C
  C2782    1.0000 0.18458  0.91905  0.73260  Biso   1.000  C
  C2783    1.0000 0.22014  0.90246  0.64154  Biso   1.000  C
  C2784    1.0000 0.15650  0.88682  0.62351  Biso   1.000  C
  C2785    1.0000 0.22254  0.81668  0.68778  Biso   1.000  C
  C2786    1.0000 0.24709  0.87584  0.66929  Biso   1.000  C
  C2787    1.0000 0.01941  0.27761  0.05332  Biso   1.000  C
  C2788    1.0000 0.68628  0.41709  0.73348  Biso   1.000  C
  C2789    1.0000 0.71928  0.40250  0.64092  Biso   1.000  C
  C2790    1.0000 0.65578  0.38727  0.62366  Biso   1.000  C
  C2791    1.0000 0.72337  0.31644  0.68812  Biso   1.000  C
  C2792    1.0000 0.74708  0.37544  0.66896  Biso   1.000  C
  C2793    1.0000 0.01715  0.77866  0.55182  Biso   1.000  C
  C2794    1.0000 0.68670  0.91639  0.23442  Biso   1.000  C
  C2795    1.0000 0.71945  0.90477  0.14284  Biso   1.000  C
  C2796    1.0000 0.65692  0.88785  0.12331  Biso   1.000  C
  C2797    1.0000 0.72455  0.81649  0.18818  Biso   1.000  C
  C2798    1.0000 0.74770  0.87544  0.16874  Biso   1.000  C
  C2799    1.0000 0.22969  0.97346  0.05139  Biso   1.000  C
  C2800    1.0000 0.56541  0.83100  0.73306  Biso   1.000  C
  C2801    1.0000 0.52931  0.84765  0.64262  Biso   1.000  C
  C2802    1.0000 0.59262  0.86343  0.62409  Biso   1.000  C
  C2803    1.0000 0.52702  0.93252  0.68902  Biso   1.000  C
  C2804    1.0000 0.50200  0.87367  0.67051  Biso   1.000  C
  C2805    1.0000 0.22977  0.47276  0.55296  Biso   1.000  C
  C2806    1.0000 0.56391  0.33282  0.23395  Biso   1.000  C
  C2807    1.0000 0.53121  0.34498  0.14276  Biso   1.000  C
  C2808    1.0000 0.59338  0.36317  0.12366  Biso   1.000  C
  C2809    1.0000 0.52653  0.43208  0.19108  Biso   1.000  C
  C2810    1.0000 0.50221  0.37513  0.16764  Biso   1.000  C
  C2811    1.0000 0.73134  0.97245  0.55205  Biso   1.000  C
  C2812    1.0000 0.06507  0.83205  0.23255  Biso   1.000  C
  C2813    1.0000 0.03166  0.84536  0.14202  Biso   1.000  C
  C2814    1.0000 0.09466  0.86214  0.12389  Biso   1.000  C
  C2815    1.0000 0.02652  0.93256  0.18842  Biso   1.000  C
  C2816    1.0000 0.00236  0.87513  0.16663  Biso   1.000  C
  C2817    1.0000 0.73018  0.47156  0.05449  Biso   1.000  C
  C2818    1.0000 0.06371  0.33306  0.73303  Biso   1.000  C
  C2819    1.0000 0.02986  0.34646  0.64295  Biso   1.000  C
  C2820    1.0000 0.09291  0.36261  0.62485  Biso   1.000  C
  C2821    1.0000 0.02505  0.43235  0.69224  Biso   1.000  C
  C2822    1.0000 0.00087  0.37576  0.66807  Biso   1.000  C
  C2823    1.0000 0.97281  0.05429  0.23012  Biso   1.000  C
  C2824    1.0000 0.83085  0.73352  0.56423  Biso   1.000  C
  C2825    1.0000 0.84572  0.64222  0.53046  Biso   1.000  C
  C2826    1.0000 0.86087  0.62412  0.59398  Biso   1.000  C
  C2827    1.0000 0.93299  0.68845  0.52503  Biso   1.000  C
  C2828    1.0000 0.87414  0.66885  0.50190  Biso   1.000  C
  C2829    1.0000 0.97216  0.55257  0.73131  Biso   1.000  C
  C2830    1.0000 0.83284  0.23452  0.06249  Biso   1.000  C
  C2831    1.0000 0.84756  0.14289  0.03045  Biso   1.000  C
  C2832    1.0000 0.86131  0.12373  0.09383  Biso   1.000  C
  C2833    1.0000 0.93225  0.19134  0.02541  Biso   1.000  C
  C2834    1.0000 0.87553  0.16771  0.00084  Biso   1.000  C
  C2835    1.0000 0.47258  0.05484  0.73050  Biso   1.000  C
  C2836    1.0000 0.33277  0.73500  0.06274  Biso   1.000  C
  C2837    1.0000 0.34796  0.64370  0.03058  Biso   1.000  C
  C2838    1.0000 0.36082  0.62352  0.09399  Biso   1.000  C
  C2839    1.0000 0.43391  0.68936  0.02612  Biso   1.000  C
  C2840    1.0000 0.37549  0.67017  0.00186  Biso   1.000  C
  C2841    1.0000 0.47271  0.55443  0.22972  Biso   1.000  C
  C2842    1.0000 0.33133  0.23508  0.56264  Biso   1.000  C
  C2843    1.0000 0.34606  0.14301  0.53129  Biso   1.000  C
  C2844    1.0000 0.36249  0.12325  0.59393  Biso   1.000  C
  C2845    1.0000 0.43352  0.18838  0.52553  Biso   1.000  C
  C2846    1.0000 0.37513  0.16852  0.50218  Biso   1.000  C
  C2847    1.0000 0.27787  0.55455  0.51952  Biso   1.000  C
  C2848    1.0000 0.42013  0.23296  0.18537  Biso   1.000  C
  C2849    1.0000 0.40122  0.14275  0.21990  Biso   1.000  C
  C2850    1.0000 0.38544  0.12319  0.15677  Biso   1.000  C
  C2851    1.0000 0.31772  0.18908  0.22321  Biso   1.000  C
  C2852    1.0000 0.37651  0.17207  0.24789  Biso   1.000  C
  C2853    1.0000 0.27829  0.05236  0.01709  Biso   1.000  C
  C2854    1.0000 0.41709  0.73420  0.68599  Biso   1.000  C
  C2855    1.0000 0.40242  0.64190  0.72015  Biso   1.000  C
  C2856    1.0000 0.38615  0.62206  0.65721  Biso   1.000  C
  C2857    1.0000 0.31835  0.69081  0.72339  Biso   1.000  C
  C2858    1.0000 0.37685  0.67115  0.74799  Biso   1.000  C
  C2859    1.0000 0.77728  0.55189  0.02000  Biso   1.000  C
  C2860    1.0000 0.91961  0.23371  0.68534  Biso   1.000  C
  C2861    1.0000 0.90185  0.14382  0.71968  Biso   1.000  C
  C2862    1.0000 0.88619  0.12356  0.65672  Biso   1.000  C
  C2863    1.0000 0.81788  0.18958  0.72339  Biso   1.000  C
  C2864    1.0000 0.87683  0.17297  0.74782  Biso   1.000  C
  C2865    1.0000 0.77843  0.05224  0.51789  Biso   1.000  C
  C2866    1.0000 0.92090  0.73235  0.18441  Biso   1.000  C
  C2867    1.0000 0.90263  0.64174  0.21955  Biso   1.000  C
  C2868    1.0000 0.88569  0.62280  0.15661  Biso   1.000  C
  C2869    1.0000 0.81822  0.69002  0.22447  Biso   1.000  C
  C2870    1.0000 0.87730  0.67048  0.24772  Biso   1.000  C
  C2871    1.0000 0.77746  0.19681  0.73045  Biso   1.000  C
  C2872    1.0000 0.92021  0.51805  0.06531  Biso   1.000  C
  C2873    1.0000 0.90411  0.60864  0.03095  Biso   1.000  C
  C2874    1.0000 0.88632  0.62738  0.09310  Biso   1.000  C
  C2875    1.0000 0.81733  0.55771  0.02594  Biso   1.000  C
  C2876    1.0000 0.87514  0.58142  0.00406  Biso   1.000  C
  C2877    1.0000 0.77898  0.69942  0.23190  Biso   1.000  C
  C2878    1.0000 0.91913  0.01838  0.56579  Biso   1.000  C
  C2879    1.0000 0.90467  0.10838  0.53090  Biso   1.000  C
  C2880    1.0000 0.88733  0.12754  0.59311  Biso   1.000  C
  C2881    1.0000 0.81740  0.06157  0.52666  Biso   1.000  C
  C2882    1.0000 0.87657  0.08063  0.50474  Biso   1.000  C
  C2883    1.0000 0.27731  0.19685  0.23018  Biso   1.000  C
  C2884    1.0000 0.41903  0.51770  0.56528  Biso   1.000  C
  C2885    1.0000 0.40429  0.60796  0.53129  Biso   1.000  C
  C2886    1.0000 0.38775  0.62780  0.59373  Biso   1.000  C
  C2887    1.0000 0.31792  0.55790  0.52601  Biso   1.000  C
  C2888    1.0000 0.37604  0.58006  0.50343  Biso   1.000  C
  C2889    1.0000 0.27921  0.69915  0.73179  Biso   1.000  C
  C2890    1.0000 0.41940  0.01757  0.06649  Biso   1.000  C
  C2891    1.0000 0.40506  0.10762  0.03133  Biso   1.000  C
  C2892    1.0000 0.38722  0.12720  0.09322  Biso   1.000  C
  C2893    1.0000 0.31756  0.06104  0.02567  Biso   1.000  C
  C2894    1.0000 0.37722  0.07956  0.00487  Biso   1.000  C
  C2895    1.0000 0.47326  0.69895  0.02028  Biso   1.000  C
  C2896    1.0000 0.33147  0.01590  0.68720  Biso   1.000  C
  C2897    1.0000 0.34526  0.10877  0.71925  Biso   1.000  C
  C2898    1.0000 0.36310  0.12828  0.65726  Biso   1.000  C
  C2899    1.0000 0.43238  0.05912  0.72434  Biso   1.000  C
  C2900    1.0000 0.37421  0.08195  0.74646  Biso   1.000  C
  C2901    1.0000 0.47279  0.19862  0.51987  Biso   1.000  C
  C2902    1.0000 0.33012  0.51752  0.18552  Biso   1.000  C
  C2903    1.0000 0.34751  0.60893  0.21984  Biso   1.000  C
  C2904    1.0000 0.36226  0.62674  0.15620  Biso   1.000  C
  C2905    1.0000 0.43202  0.55796  0.22371  Biso   1.000  C
  C2906    1.0000 0.37364  0.58067  0.24660  Biso   1.000  C
  C2907    1.0000 0.97243  0.69834  0.51905  Biso   1.000  C
  C2908    1.0000 0.83191  0.01652  0.18638  Biso   1.000  C
  C2909    1.0000 0.84637  0.10797  0.21902  Biso   1.000  C
  C2910    1.0000 0.86116  0.12720  0.15580  Biso   1.000  C
  C2911    1.0000 0.93260  0.05837  0.22333  Biso   1.000  C
  C2912    1.0000 0.87459  0.08059  0.24646  Biso   1.000  C
  C2913    1.0000 0.97276  0.19651  0.01973  Biso   1.000  C
  C2914    1.0000 0.83029  0.51682  0.68532  Biso   1.000  C
  C2915    1.0000 0.84569  0.60721  0.71898  Biso   1.000  C
  C2916    1.0000 0.86240  0.62623  0.65614  Biso   1.000  C
  C2917    1.0000 0.93247  0.56121  0.72386  Biso   1.000  C
  C2918    1.0000 0.87326  0.57974  0.74603  Biso   1.000  C
  C2919    1.0000 0.55051  0.51938  0.27855  Biso   1.000  C
  C2920    1.0000 0.23422  0.18651  0.41762  Biso   1.000  C
  C2921    1.0000 0.14238  0.21885  0.40277  Biso   1.000  C
  C2922    1.0000 0.12139  0.15669  0.38564  Biso   1.000  C
  C2923    1.0000 0.19384  0.22243  0.31931  Biso   1.000  C
  C2924    1.0000 0.17262  0.24749  0.37695  Biso   1.000  C
  C2925    1.0000 0.55110  0.01853  0.77824  Biso   1.000  C
  C2926    1.0000 0.23447  0.68618  0.91752  Biso   1.000  C
  C2927    1.0000 0.14240  0.71863  0.90553  Biso   1.000  C
  C2928    1.0000 0.12245  0.65682  0.88735  Biso   1.000  C
  C2929    1.0000 0.19160  0.72422  0.81812  Biso   1.000  C
  C2930    1.0000 0.16766  0.74750  0.87563  Biso   1.000  C
  C2931    1.0000 0.05119  0.51953  0.77901  Biso   1.000  C
  C2932    1.0000 0.73367  0.18601  0.91766  Biso   1.000  C
  C2933    1.0000 0.64297  0.21858  0.90465  Biso   1.000  C
  C2934    1.0000 0.62310  0.15571  0.88917  Biso   1.000  C
  C2935    1.0000 0.69236  0.22363  0.81768  Biso   1.000  C
  C2936    1.0000 0.66857  0.24732  0.87507  Biso   1.000  C
  C2937    1.0000 0.05433  0.01876  0.27722  Biso   1.000  C
  C2938    1.0000 0.73397  0.68719  0.41737  Biso   1.000  C
  C2939    1.0000 0.64271  0.71883  0.40552  Biso   1.000  C
  C2940    1.0000 0.62340  0.65691  0.38675  Biso   1.000  C
  C2941    1.0000 0.69166  0.72471  0.31865  Biso   1.000  C
  C2942    1.0000 0.66785  0.74807  0.37597  Biso   1.000  C
  C2943    1.0000 0.05243  0.23063  0.97170  Biso   1.000  C
  C2944    1.0000 0.73291  0.56404  0.83182  Biso   1.000  C
  C2945    1.0000 0.64176  0.53014  0.84530  Biso   1.000  C
  C2946    1.0000 0.62362  0.59349  0.86037  Biso   1.000  C
  C2947    1.0000 0.69168  0.52538  0.93224  Biso   1.000  C
  C2948    1.0000 0.66869  0.50279  0.87413  Biso   1.000  C
  C2949    1.0000 0.05502  0.73010  0.47237  Biso   1.000  C
  C2950    1.0000 0.73303  0.06459  0.33091  Biso   1.000  C
  C2951    1.0000 0.64245  0.03088  0.34430  Biso   1.000  C
  C2952    1.0000 0.62403  0.09406  0.35954  Biso   1.000  C
  C2953    1.0000 0.69182  0.02586  0.43185  Biso   1.000  C
  C2954    1.0000 0.66878  0.00355  0.37364  Biso   1.000  C
  C2955    1.0000 0.55436  0.22883  0.47260  Biso   1.000  C
  C2956    1.0000 0.23335  0.56412  0.33229  Biso   1.000  C
  C2957    1.0000 0.14345  0.53053  0.34626  Biso   1.000  C
  C2958    1.0000 0.12460  0.59403  0.36026  Biso   1.000  C
  C2959    1.0000 0.19055  0.52459  0.43329  Biso   1.000  C
  C2960    1.0000 0.16984  0.50144  0.37489  Biso   1.000  C
  C2961    1.0000 0.55497  0.73020  0.97219  Biso   1.000  C
  C2962    1.0000 0.23342  0.06401  0.83112  Biso   1.000  C
  C2963    1.0000 0.14094  0.03034  0.84497  Biso   1.000  C
  C2964    1.0000 0.12315  0.09380  0.86078  Biso   1.000  C
  C2965    1.0000 0.19076  0.02802  0.93141  Biso   1.000  C
  C2966    1.0000 0.16877  0.00476  0.87293  Biso   1.000  C
  C2967    1.0000 0.69649  0.02032  0.47226  Biso   1.000  C
  C2968    1.0000 0.01767  0.68508  0.33129  Biso   1.000  C
  C2969    1.0000 0.10856  0.71955  0.34723  Biso   1.000  C
  C2970    1.0000 0.12713  0.65611  0.36055  Biso   1.000  C
  C2971    1.0000 0.05853  0.72385  0.43189  Biso   1.000  C
  C2972    1.0000 0.07976  0.74718  0.37333  Biso   1.000  C
  C2973    1.0000 0.69598  0.51902  0.97237  Biso   1.000  C
  C2974    1.0000 0.01582  0.18635  0.83317  Biso   1.000  C
  C2975    1.0000 0.10673  0.21929  0.84431  Biso   1.000  C
  C2976    1.0000 0.12702  0.15729  0.86201  Biso   1.000  C
  C2977    1.0000 0.06083  0.22398  0.93220  Biso   1.000  C
  C2978    1.0000 0.08210  0.24859  0.87464  Biso   1.000  C
  C2979    1.0000 0.19485  0.02070  0.97164  Biso   1.000  C
  C2980    1.0000 0.51772  0.68522  0.83129  Biso   1.000  C
  C2981    1.0000 0.60907  0.71882  0.84712  Biso   1.000  C
  C2982    1.0000 0.62726  0.65544  0.86104  Biso   1.000  C
  C2983    1.0000 0.55834  0.72385  0.93167  Biso   1.000  C
  C2984    1.0000 0.58028  0.74656  0.87314  Biso   1.000  C
  C2985    1.0000 0.19876  0.51866  0.47302  Biso   1.000  C
  C2986    1.0000 0.51651  0.18640  0.33185  Biso   1.000  C
  C2987    1.0000 0.60791  0.21910  0.34493  Biso   1.000  C
  C2988    1.0000 0.62645  0.15602  0.36059  Biso   1.000  C
  C2989    1.0000 0.55878  0.22325  0.43210  Biso   1.000  C
  C2990    1.0000 0.58269  0.24745  0.37508  Biso   1.000  C
  C2991    1.0000 0.19596  0.73027  0.77764  Biso   1.000  C
  C2992    1.0000 0.51780  0.06416  0.91963  Biso   1.000  C
  C2993    1.0000 0.60690  0.03046  0.90354  Biso   1.000  C
  C2994    1.0000 0.62575  0.09376  0.88863  Biso   1.000  C
  C2995    1.0000 0.56064  0.02453  0.81727  Biso   1.000  C
  C2996    1.0000 0.58221  0.00040  0.87460  Biso   1.000  C
  C2997    1.0000 0.19618  0.22960  0.27882  Biso   1.000  C
  C2998    1.0000 0.51577  0.56433  0.41747  Biso   1.000  C
  C2999    1.0000 0.60694  0.53058  0.40202  Biso   1.000  C
  C3000    1.0000 0.62682  0.59351  0.38641  Biso   1.000  C
  C3001    1.0000 0.55910  0.52646  0.31830  Biso   1.000  C
  C3002    1.0000 0.57890  0.50140  0.37675  Biso   1.000  C
  C3003    1.0000 0.69566  0.73096  0.27815  Biso   1.000  C
  C3004    1.0000 0.01565  0.06267  0.41787  Biso   1.000  C
  C3005    1.0000 0.10763  0.03151  0.40508  Biso   1.000  C
  C3006    1.0000 0.12791  0.09354  0.38852  Biso   1.000  C
  C3007    1.0000 0.05863  0.02450  0.31768  Biso   1.000  C
  C3008    1.0000 0.08265  0.00209  0.37545  Biso   1.000  C
  C3009    1.0000 0.69663  0.22950  0.77721  Biso   1.000  C
  C3010    1.0000 0.01595  0.56403  0.91878  Biso   1.000  C
  C3011    1.0000 0.10817  0.53079  0.90339  Biso   1.000  C
  C3012    1.0000 0.12767  0.59344  0.88714  Biso   1.000  C
  C3013    1.0000 0.06012  0.52748  0.81868  Biso   1.000  C
  C3014    1.0000 0.07948  0.50314  0.87770  Biso   1.000  C
  C3015    1.0000 0.77907  0.73016  0.19603  Biso   1.000  C
  C3016    1.0000 0.91852  0.06497  0.51740  Biso   1.000  C
  C3017    1.0000 0.90258  0.03012  0.60928  Biso   1.000  C
  C3018    1.0000 0.88859  0.09384  0.62689  Biso   1.000  C
  C3019    1.0000 0.81911  0.02797  0.55710  Biso   1.000  C
  C3020    1.0000 0.87675  0.00259  0.57963  Biso   1.000  C
  C3021    1.0000 0.77766  0.22978  0.69667  Biso   1.000  C
  C3022    1.0000 0.91812  0.56522  0.01742  Biso   1.000  C
  C3023    1.0000 0.90246  0.53028  0.10809  Biso   1.000  C
  C3024    1.0000 0.88785  0.59349  0.12650  Biso   1.000  C
  C3025    1.0000 0.81866  0.52577  0.05957  Biso   1.000  C
  C3026    1.0000 0.87757  0.50176  0.07901  Biso   1.000  C
  C3027    1.0000 0.27715  0.72950  0.69530  Biso   1.000  C
  C3028    1.0000 0.41914  0.06422  0.01786  Biso   1.000  C
  C3029    1.0000 0.40088  0.02987  0.10877  Biso   1.000  C
  C3030    1.0000 0.38778  0.09357  0.12683  Biso   1.000  C
  C3031    1.0000 0.31885  0.02731  0.05574  Biso   1.000  C
  C3032    1.0000 0.37617  0.00181  0.07873  Biso   1.000  C
  C3033    1.0000 0.27799  0.22993  0.19687  Biso   1.000  C
  C3034    1.0000 0.41874  0.56484  0.51713  Biso   1.000  C
  C3035    1.0000 0.40158  0.52991  0.60824  Biso   1.000  C
  C3036    1.0000 0.38812  0.59337  0.62660  Biso   1.000  C
  C3037    1.0000 0.31731  0.52673  0.56026  Biso   1.000  C
  C3038    1.0000 0.37615  0.50183  0.57939  Biso   1.000  C
  C3039    1.0000 0.47206  0.02019  0.69854  Biso   1.000  C
  C3040    1.0000 0.33349  0.68718  0.01549  Biso   1.000  C
  C3041    1.0000 0.34521  0.71851  0.10658  Biso   1.000  C
  C3042    1.0000 0.36366  0.65665  0.12641  Biso   1.000  C
  C3043    1.0000 0.43196  0.72355  0.05868  Biso   1.000  C
  C3044    1.0000 0.37481  0.74781  0.08202  Biso   1.000  C
  C3045    1.0000 0.47217  0.51896  0.19862  Biso   1.000  C
  C3046    1.0000 0.33293  0.18653  0.51580  Biso   1.000  C
  C3047    1.0000 0.34464  0.21919  0.60613  Biso   1.000  C
  C3048    1.0000 0.36052  0.15640  0.62616  Biso   1.000  C
  C3049    1.0000 0.43077  0.22407  0.55686  Biso   1.000  C
  C3050    1.0000 0.37373  0.24831  0.58053  Biso   1.000  C
  C3051    1.0000 0.97296  0.01981  0.19820  Biso   1.000  C
  C3052    1.0000 0.83235  0.68659  0.51598  Biso   1.000  C
  C3053    1.0000 0.84745  0.71937  0.60659  Biso   1.000  C
  C3054    1.0000 0.86426  0.65710  0.62721  Biso   1.000  C
  C3055    1.0000 0.93056  0.72292  0.55659  Biso   1.000  C
  C3056    1.0000 0.87325  0.74880  0.57820  Biso   1.000  C
  C3057    1.0000 0.97109  0.51967  0.69692  Biso   1.000  C
  C3058    1.0000 0.83386  0.18619  0.01535  Biso   1.000  C
  C3059    1.0000 0.84540  0.21892  0.10627  Biso   1.000  C
  C3060    1.0000 0.86360  0.15707  0.12629  Biso   1.000  C
  C3061    1.0000 0.93248  0.22400  0.05994  Biso   1.000  C
  C3062    1.0000 0.87512  0.24863  0.08150  Biso   1.000  C
  C3063    1.0000 0.97128  0.23140  0.05069  Biso   1.000  C
  C3064    1.0000 0.83150  0.56350  0.73367  Biso   1.000  C
  C3065    1.0000 0.84737  0.53054  0.64279  Biso   1.000  C
  C3066    1.0000 0.86303  0.59352  0.62293  Biso   1.000  C
  C3067    1.0000 0.93046  0.52728  0.69403  Biso   1.000  C
  C3068    1.0000 0.87273  0.50228  0.67140  Biso   1.000  C
  C3069    1.0000 0.97080  0.73042  0.55338  Biso   1.000  C
  C3070    1.0000 0.83204  0.06482  0.23301  Biso   1.000  C
  C3071    1.0000 0.84558  0.03087  0.14250  Biso   1.000  C
  C3072    1.0000 0.86259  0.09354  0.12325  Biso   1.000  C
  C3073    1.0000 0.93324  0.02652  0.18965  Biso   1.000  C
  C3074    1.0000 0.87461  0.00301  0.16908  Biso   1.000  C
  C3075    1.0000 0.47096  0.23114  0.55306  Biso   1.000  C
  C3076    1.0000 0.33079  0.56604  0.23220  Biso   1.000  C
  C3077    1.0000 0.34757  0.52978  0.14274  Biso   1.000  C
  C3078    1.0000 0.36307  0.59297  0.12314  Biso   1.000  C
  C3079    1.0000 0.43228  0.52570  0.19088  Biso   1.000  C
  C3080    1.0000 0.37329  0.50189  0.17168  Biso   1.000  C
  C3081    1.0000 0.47221  0.73023  0.05538  Biso   1.000  C
  C3082    1.0000 0.33174  0.06437  0.73355  Biso   1.000  C
  C3083    1.0000 0.34554  0.03131  0.64355  Biso   1.000  C
  C3084    1.0000 0.36191  0.09433  0.62493  Biso   1.000  C
  C3085    1.0000 0.43216  0.02828  0.69041  Biso   1.000  C
  C3086    1.0000 0.37367  0.00469  0.67060  Biso   1.000  C
  C3087    1.0000 0.27761  0.51952  0.55190  Biso   1.000  C
  C3088    1.0000 0.41945  0.18563  0.23248  Biso   1.000  C
  C3089    1.0000 0.40254  0.21897  0.14291  Biso   1.000  C
  C3090    1.0000 0.38875  0.15560  0.12381  Biso   1.000  C
  C3091    1.0000 0.31840  0.22344  0.19337  Biso   1.000  C
  C3092    1.0000 0.37617  0.24794  0.17146  Biso   1.000  C
  C3093    1.0000 0.27802  0.02020  0.05195  Biso   1.000  C
  C3094    1.0000 0.41953  0.68551  0.73201  Biso   1.000  C
  C3095    1.0000 0.40452  0.71918  0.64250  Biso   1.000  C
  C3096    1.0000 0.38951  0.65548  0.62539  Biso   1.000  C
  C3097    1.0000 0.31717  0.72416  0.69048  Biso   1.000  C
  C3098    1.0000 0.37490  0.74704  0.66737  Biso   1.000  C
  C3099    1.0000 0.77892  0.51738  0.05160  Biso   1.000  C
  C3100    1.0000 0.91979  0.18670  0.73273  Biso   1.000  C
  C3101    1.0000 0.90216  0.21936  0.64287  Biso   1.000  C
  C3102    1.0000 0.88903  0.15592  0.62371  Biso   1.000  C
  C3103    1.0000 0.81810  0.22387  0.69346  Biso   1.000  C
  C3104    1.0000 0.87563  0.24846  0.67119  Biso   1.000  C
  C3105    1.0000 0.77866  0.01995  0.55334  Biso   1.000  C
  C3106    1.0000 0.92026  0.68489  0.23159  Biso   1.000  C
  C3107    1.0000 0.90285  0.71883  0.14212  Biso   1.000  C
  C3108    1.0000 0.88791  0.65547  0.12383  Biso   1.000  C
  C3109    1.0000 0.81934  0.72264  0.19214  Biso   1.000  C
  C3110    1.0000 0.87700  0.74760  0.17072  Biso   1.000  C
  C3111    1.0000 0.19623  0.77789  0.73016  Biso   1.000  C
  C3112    1.0000 0.51826  0.92000  0.06452  Biso   1.000  C
  C3113    1.0000 0.60704  0.90331  0.03109  Biso   1.000  C
  C3114    1.0000 0.62634  0.88991  0.09465  Biso   1.000  C
  C3115    1.0000 0.55805  0.81695  0.02670  Biso   1.000  C
  C3116    1.0000 0.58031  0.87457  0.00266  Biso   1.000  C
  C3117    1.0000 0.19625  0.27767  0.23174  Biso   1.000  C
  C3118    1.0000 0.51514  0.41622  0.56375  Biso   1.000  C
  C3119    1.0000 0.60717  0.40437  0.53127  Biso   1.000  C
  C3120    1.0000 0.62696  0.38648  0.59333  Biso   1.000  C
  C3121    1.0000 0.55955  0.31709  0.52612  Biso   1.000  C
  C3122    1.0000 0.58215  0.37519  0.50271  Biso   1.000  C
  C3123    1.0000 0.69672  0.77787  0.23010  Biso   1.000  C
  C3124    1.0000 0.01798  0.91990  0.56511  Biso   1.000  C
  C3125    1.0000 0.10756  0.90322  0.53064  Biso   1.000  C
  C3126    1.0000 0.12786  0.88577  0.59267  Biso   1.000  C
  C3127    1.0000 0.05718  0.81761  0.52613  Biso   1.000  C
  C3128    1.0000 0.08129  0.87437  0.50200  Biso   1.000  C
  C3129    1.0000 0.69606  0.27791  0.73039  Biso   1.000  C
  C3130    1.0000 0.01658  0.41680  0.06449  Biso   1.000  C
  C3131    1.0000 0.10867  0.40396  0.03156  Biso   1.000  C
  C3132    1.0000 0.12770  0.38567  0.09390  Biso   1.000  C
  C3133    1.0000 0.06145  0.31661  0.02638  Biso   1.000  C
  C3134    1.0000 0.08230  0.37479  0.00347  Biso   1.000  C
  C3135    1.0000 0.69776  0.47136  0.01956  Biso   1.000  C
  C3136    1.0000 0.01494  0.33393  0.68648  Biso   1.000  C
  C3137    1.0000 0.10772  0.34754  0.72041  Biso   1.000  C
  C3138    1.0000 0.12689  0.36437  0.65790  Biso   1.000  C
  C3139    1.0000 0.05992  0.43274  0.72403  Biso   1.000  C
  C3140    1.0000 0.08072  0.37435  0.74821  Biso   1.000  C
  C3141    1.0000 0.69716  0.97320  0.52010  Biso   1.000  C
  C3142    1.0000 0.01661  0.83312  0.18570  Biso   1.000  C
  C3143    1.0000 0.10872  0.84742  0.21962  Biso   1.000  C
  C3144    1.0000 0.12839  0.86420  0.15704  Biso   1.000  C
  C3145    1.0000 0.05882  0.93156  0.22262  Biso   1.000  C
  C3146    1.0000 0.08120  0.87370  0.24706  Biso   1.000  C
  C3147    1.0000 0.19549  0.47132  0.52030  Biso   1.000  C
  C3148    1.0000 0.51579  0.33335  0.18673  Biso   1.000  C
  C3149    1.0000 0.60711  0.34768  0.22030  Biso   1.000  C
  C3150    1.0000 0.62625  0.36158  0.15699  Biso   1.000  C
  C3151    1.0000 0.56061  0.43287  0.22342  Biso   1.000  C
  C3152    1.0000 0.58075  0.37450  0.24843  Biso   1.000  C
  C3153    1.0000 0.19653  0.97223  0.01782  Biso   1.000  C
  C3154    1.0000 0.51701  0.83185  0.68629  Biso   1.000  C
  C3155    1.0000 0.60826  0.84818  0.72011  Biso   1.000  C
  C3156    1.0000 0.62679  0.86514  0.65724  Biso   1.000  C
  C3157    1.0000 0.55771  0.93146  0.72333  Biso   1.000  C
  C3158    1.0000 0.57934  0.87406  0.74901  Biso   1.000  C
  C3159    1.0000 0.05505  0.97173  0.22945  Biso   1.000  C
  C3160    1.0000 0.73387  0.83335  0.56491  Biso   1.000  C
  C3161    1.0000 0.64305  0.84568  0.53190  Biso   1.000  C
  C3162    1.0000 0.62190  0.86413  0.59348  Biso   1.000  C
  C3163    1.0000 0.69301  0.93223  0.52517  Biso   1.000  C
  C3164    1.0000 0.66888  0.87478  0.50248  Biso   1.000  C
  C3165    1.0000 0.05047  0.47155  0.73234  Biso   1.000  C
  C3166    1.0000 0.73393  0.33269  0.06323  Biso   1.000  C
  C3167    1.0000 0.64298  0.34578  0.03172  Biso   1.000  C
  C3168    1.0000 0.62416  0.36106  0.09492  Biso   1.000  C
  C3169    1.0000 0.68911  0.43195  0.02668  Biso   1.000  C
  C3170    1.0000 0.66712  0.37476  0.00201  Biso   1.000  C
  C3171    1.0000 0.55358  0.97138  0.73091  Biso   1.000  C
  C3172    1.0000 0.23498  0.83278  0.06405  Biso   1.000  C
  C3173    1.0000 0.14312  0.84682  0.03053  Biso   1.000  C
  C3174    1.0000 0.12351  0.86358  0.09314  Biso   1.000  C
  C3175    1.0000 0.18906  0.93231  0.02597  Biso   1.000  C
  C3176    1.0000 0.17100  0.87307  0.00182  Biso   1.000  C
  C3177    1.0000 0.55091  0.47172  0.23138  Biso   1.000  C
  C3178    1.0000 0.23333  0.33292  0.56498  Biso   1.000  C
  C3179    1.0000 0.14156  0.34671  0.53192  Biso   1.000  C
  C3180    1.0000 0.12168  0.36399  0.59414  Biso   1.000  C
  C3181    1.0000 0.19227  0.43109  0.52778  Biso   1.000  C
  C3182    1.0000 0.17056  0.37316  0.50353  Biso   1.000  C
  C3183    1.0000 0.55311  0.27649  0.51996  Biso   1.000  C
  C3184    1.0000 0.23245  0.41824  0.18597  Biso   1.000  C
  C3185    1.0000 0.14224  0.40285  0.22015  Biso   1.000  C
  C3186    1.0000 0.12289  0.38524  0.15784  Biso   1.000  C
  C3187    1.0000 0.19205  0.31767  0.22495  Biso   1.000  C
  C3188    1.0000 0.16861  0.37449  0.24914  Biso   1.000  C
  C3189    1.0000 0.55310  0.77655  0.02096  Biso   1.000  C
  C3190    1.0000 0.23231  0.91850  0.68549  Biso   1.000  C
  C3191    1.0000 0.14159  0.90168  0.71969  Biso   1.000  C
  C3192    1.0000 0.12324  0.88611  0.65624  Biso   1.000  C
  C3193    1.0000 0.19212  0.81793  0.72256  Biso   1.000  C
  C3194    1.0000 0.17061  0.87537  0.74786  Biso   1.000  C
  C3195    1.0000 0.05171  0.27806  0.01895  Biso   1.000  C
  C3196    1.0000 0.73214  0.41844  0.68459  Biso   1.000  C
  C3197    1.0000 0.64227  0.40337  0.71913  Biso   1.000  C
  C3198    1.0000 0.62215  0.38540  0.65711  Biso   1.000  C
  C3199    1.0000 0.69201  0.31801  0.72349  Biso   1.000  C
  C3200    1.0000 0.66871  0.37490  0.74784  Biso   1.000  C
  C3201    1.0000 0.05215  0.77715  0.52032  Biso   1.000  C
  C3202    1.0000 0.73458  0.91680  0.18677  Biso   1.000  C
  C3203    1.0000 0.64278  0.90202  0.22010  Biso   1.000  C
  C3204    1.0000 0.62470  0.88703  0.15671  Biso   1.000  C
  C3205    1.0000 0.69279  0.81771  0.22317  Biso   1.000  C
  C3206    1.0000 0.66899  0.87403  0.24850  Biso   1.000  C
  C3207    1.0000 0.73026  0.19711  0.77733  Biso   1.000  C
  C3208    1.0000 0.06487  0.51804  0.92099  Biso   1.000  C
  C3209    1.0000 0.03103  0.60742  0.90506  Biso   1.000  C
  C3210    1.0000 0.09404  0.62629  0.88997  Biso   1.000  C
  C3211    1.0000 0.02627  0.55895  0.81861  Biso   1.000  C
  C3212    1.0000 0.00260  0.58071  0.87649  Biso   1.000  C
  C3213    1.0000 0.73057  0.69963  0.27809  Biso   1.000  C
  C3214    1.0000 0.06357  0.01571  0.41793  Biso   1.000  C
  C3215    1.0000 0.03050  0.10652  0.40472  Biso   1.000  C
  C3216    1.0000 0.09328  0.12560  0.38857  Biso   1.000  C
  C3217    1.0000 0.02635  0.05805  0.31798  Biso   1.000  C
  C3218    1.0000 0.00230  0.07987  0.37550  Biso   1.000  C
  C3219    1.0000 0.22910  0.19676  0.27616  Biso   1.000  C
  C3220    1.0000 0.56393  0.51732  0.41856  Biso   1.000  C
  C3221    1.0000 0.53116  0.60798  0.40427  Biso   1.000  C
  C3222    1.0000 0.59432  0.62678  0.38879  Biso   1.000  C
  C3223    1.0000 0.52564  0.55881  0.31838  Biso   1.000  C
  C3224    1.0000 0.50202  0.58287  0.37537  Biso   1.000  C
  C3225    1.0000 0.23138  0.69912  0.77860  Biso   1.000  C
  C3226    1.0000 0.56358  0.01501  0.91722  Biso   1.000  C
  C3227    1.0000 0.52977  0.10703  0.90243  Biso   1.000  C
  C3228    1.0000 0.59261  0.12655  0.88656  Biso   1.000  C
  C3229    1.0000 0.52732  0.05694  0.81961  Biso   1.000  C
  C3230    1.0000 0.50218  0.07785  0.87727  Biso   1.000  C
  C3231    1.0000 0.02089  0.69847  0.47316  Biso   1.000  C
  C3232    1.0000 0.68636  0.01623  0.33105  Biso   1.000  C
  C3233    1.0000 0.71897  0.10785  0.34519  Biso   1.000  C
  C3234    1.0000 0.65706  0.12771  0.36306  Biso   1.000  C
  C3235    1.0000 0.72223  0.06031  0.43133  Biso   1.000  C
  C3236    1.0000 0.74543  0.08012  0.37280  Biso   1.000  C
  C3237    1.0000 0.02056  0.19580  0.97224  Biso   1.000  C
  C3238    1.0000 0.68571  0.51591  0.83151  Biso   1.000  C
  C3239    1.0000 0.71930  0.60741  0.84591  Biso   1.000  C
  C3240    1.0000 0.65720  0.62672  0.86377  Biso   1.000  C
  C3241    1.0000 0.72195  0.55987  0.93242  Biso   1.000  C
  C3242    1.0000 0.74525  0.57951  0.87388  Biso   1.000  C
  C3243    1.0000 0.52065  0.69879  0.97318  Biso   1.000  C
  C3244    1.0000 0.18475  0.01771  0.83009  Biso   1.000  C
  C3245    1.0000 0.21924  0.10705  0.84542  Biso   1.000  C
  C3246    1.0000 0.15609  0.12689  0.85971  Biso   1.000  C
  C3247    1.0000 0.22149  0.06121  0.93185  Biso   1.000  C
  C3248    1.0000 0.24533  0.07923  0.87320  Biso   1.000  C
  C3249    1.0000 0.51907  0.19835  0.47171  Biso   1.000  C
  C3250    1.0000 0.18674  0.51551  0.33221  Biso   1.000  C
  C3251    1.0000 0.21959  0.60800  0.34508  Biso   1.000  C
  C3252    1.0000 0.15757  0.62780  0.36257  Biso   1.000  C
  C3253    1.0000 0.22350  0.55691  0.43202  Biso   1.000  C
  C3254    1.0000 0.24523  0.58081  0.37424  Biso   1.000  C
  C3255    1.0000 0.22993  0.05305  0.97128  Biso   1.000  C
  C3256    1.0000 0.56625  0.73167  0.82997  Biso   1.000  C
  C3257    1.0000 0.53109  0.64169  0.84454  Biso   1.000  C
  C3258    1.0000 0.59364  0.62270  0.86201  Biso   1.000  C
  C3259    1.0000 0.52679  0.68959  0.93299  Biso   1.000  C
  C3260    1.0000 0.50400  0.66811  0.87423  Biso   1.000  C
  C3261    1.0000 0.23003  0.55403  0.47260  Biso   1.000  C
  C3262    1.0000 0.56408  0.23419  0.33241  Biso   1.000  C
  C3263    1.0000 0.53141  0.14311  0.34496  Biso   1.000  C
  C3264    1.0000 0.59374  0.12297  0.36144  Biso   1.000  C
  C3265    1.0000 0.52616  0.19027  0.43163  Biso   1.000  C
  C3266    1.0000 0.50321  0.16992  0.37297  Biso   1.000  C
  C3267    1.0000 0.73109  0.05239  0.47083  Biso   1.000  C
  C3268    1.0000 0.06581  0.73208  0.33005  Biso   1.000  C
  C3269    1.0000 0.03140  0.64214  0.34561  Biso   1.000  C
  C3270    1.0000 0.09418  0.62302  0.36236  Biso   1.000  C
  C3271    1.0000 0.02691  0.68978  0.43303  Biso   1.000  C
  C3272    1.0000 0.00364  0.66924  0.37441  Biso   1.000  C
  C3273    1.0000 0.73047  0.55134  0.97207  Biso   1.000  C
  C3274    1.0000 0.06280  0.23459  0.83234  Biso   1.000  C
  C3275    1.0000 0.03058  0.14271  0.84627  Biso   1.000  C
  C3276    1.0000 0.09416  0.12435  0.85949  Biso   1.000  C
  C3277    1.0000 0.02577  0.19210  0.93176  Biso   1.000  C
  C3278    1.0000 0.00089  0.16895  0.87505  Biso   1.000  C
  C3279    1.0000 0.51983  0.55412  0.27770  Biso   1.000  C
  C3280    1.0000 0.18531  0.23234  0.42060  Biso   1.000  C
  C3281    1.0000 0.21893  0.14342  0.40422  Biso   1.000  C
  C3282    1.0000 0.15538  0.12547  0.38945  Biso   1.000  C
  C3283    1.0000 0.22455  0.18700  0.31582  Biso   1.000  C
  C3284    1.0000 0.24756  0.16875  0.37490  Biso   1.000  C
  C3285    1.0000 0.51967  0.05303  0.77864  Biso   1.000  C
  C3286    1.0000 0.18644  0.73367  0.91801  Biso   1.000  C
  C3287    1.0000 0.21902  0.64303  0.90430  Biso   1.000  C
  C3288    1.0000 0.15600  0.62427  0.88879  Biso   1.000  C
  C3289    1.0000 0.22425  0.69075  0.81792  Biso   1.000  C
  C3290    1.0000 0.24831  0.66909  0.87558  Biso   1.000  C
  C3291    1.0000 0.01960  0.55381  0.77846  Biso   1.000  C
  C3292    1.0000 0.68660  0.23420  0.91792  Biso   1.000  C
  C3293    1.0000 0.71817  0.14285  0.90467  Biso   1.000  C
  C3294    1.0000 0.65583  0.12313  0.88757  Biso   1.000  C
  C3295    1.0000 0.72440  0.18866  0.81706  Biso   1.000  C
  C3296    1.0000 0.74736  0.16859  0.87551  Biso   1.000  C
  C3297    1.0000 0.01877  0.05023  0.27859  Biso   1.000  C
  C3298    1.0000 0.68670  0.73487  0.41808  Biso   1.000  C
  C3299    1.0000 0.71955  0.64356  0.40261  Biso   1.000  C
  C3300    1.0000 0.65632  0.62384  0.38851  Biso   1.000  C
  C3301    1.0000 0.72390  0.68993  0.31696  Biso   1.000  C
  C3302    1.0000 0.74816  0.67001  0.37531  Biso   1.000  C
  C3303    1.0000 0.98069  0.52699  0.30266  Biso   1.000  C
  C3304    1.0000 0.31448  0.66810  0.98384  Biso   1.000  C
  C3305    1.0000 0.28137  0.65387  0.89292  Biso   1.000  C
  C3306    1.0000 0.34460  0.63858  0.87463  Biso   1.000  C
  C3307    1.0000 0.27685  0.56775  0.93973  Biso   1.000  C
  C3308    1.0000 0.25199  0.62488  0.91769  Biso   1.000  C
  C3309    1.0000 0.98034  0.02826  0.80112  Biso   1.000  C
  C3310    1.0000 0.31421  0.16757  0.48370  Biso   1.000  C
  C3311    1.0000 0.28091  0.15449  0.39212  Biso   1.000  C
  C3312    1.0000 0.34401  0.13890  0.37329  Biso   1.000  C
  C3313    1.0000 0.27633  0.06793  0.43945  Biso   1.000  C
  C3314    1.0000 0.25209  0.12527  0.41771  Biso   1.000  C
  C3315    1.0000 0.48011  0.52690  0.80190  Biso   1.000  C
  C3316    1.0000 0.81313  0.66815  0.48410  Biso   1.000  C
  C3317    1.0000 0.78184  0.65596  0.39271  Biso   1.000  C
  C3318    1.0000 0.84364  0.63745  0.37258  Biso   1.000  C
  C3319    1.0000 0.77636  0.56762  0.43769  Biso   1.000  C
  C3320    1.0000 0.75309  0.62651  0.41813  Biso   1.000  C
  C3321    1.0000 0.48108  0.02795  0.30163  Biso   1.000  C
  C3322    1.0000 0.81415  0.16714  0.98383  Biso   1.000  C
  C3323    1.0000 0.78035  0.15376  0.89287  Biso   1.000  C
  C3324    1.0000 0.84304  0.13872  0.87276  Biso   1.000  C
  C3325    1.0000 0.77597  0.06744  0.93968  Biso   1.000  C
  C3326    1.0000 0.75124  0.12476  0.91821  Biso   1.000  C
  C3327    1.0000 0.26900  0.22153  0.80379  Biso   1.000  C
  C3328    1.0000 0.93628  0.08256  0.48410  Biso   1.000  C
  C3329    1.0000 0.96860  0.09414  0.39226  Biso   1.000  C
  C3330    1.0000 0.90650  0.11165  0.37289  Biso   1.000  C
  C3331    1.0000 0.97186  0.18144  0.43924  Biso   1.000  C
  C3332    1.0000 0.99646  0.12341  0.41803  Biso   1.000  C
  C3333    1.0000 0.27062  0.72305  0.30522  Biso   1.000  C
  C3334    1.0000 0.93524  0.58304  0.98369  Biso   1.000  C
  C3335    1.0000 0.96888  0.59557  0.89310  Biso   1.000  C
  C3336    1.0000 0.90676  0.61191  0.87253  Biso   1.000  C
  C3337    1.0000 0.97271  0.68291  0.93841  Biso   1.000  C
  C3338    1.0000 0.99738  0.62495  0.91855  Biso   1.000  C
  C3339    1.0000 0.76974  0.22219  0.30223  Biso   1.000  C
  C3340    1.0000 0.43722  0.08181  0.98483  Biso   1.000  C
  C3341    1.0000 0.46951  0.09619  0.89262  Biso   1.000  C
  C3342    1.0000 0.40720  0.11217  0.87261  Biso   1.000  C
  C3343    1.0000 0.47155  0.18082  0.94063  Biso   1.000  C
  C3344    1.0000 0.49717  0.12250  0.92127  Biso   1.000  C
  C3345    1.0000 0.77099  0.72229  0.80431  Biso   1.000  C
  C3346    1.0000 0.43609  0.58337  0.48367  Biso   1.000  C
  C3347    1.0000 0.46885  0.59706  0.39286  Biso   1.000  C
  C3348    1.0000 0.40678  0.61358  0.37250  Biso   1.000  C
  C3349    1.0000 0.47334  0.68295  0.43990  Biso   1.000  C
  C3350    1.0000 0.49798  0.62544  0.41913  Biso   1.000  C
  C3351    1.0000 0.48078  0.72157  0.44938  Biso   1.000  C
  C3352    1.0000 0.81328  0.58215  0.76596  Biso   1.000  C
  C3353    1.0000 0.78069  0.59389  0.85853  Biso   1.000  C
  C3354    1.0000 0.84299  0.61186  0.87765  Biso   1.000  C
  C3355    1.0000 0.77797  0.68203  0.81045  Biso   1.000  C
  C3356    1.0000 0.75388  0.62406  0.83282  Biso   1.000  C
  C3357    1.0000 0.48025  0.22059  0.94783  Biso   1.000  C
  C3358    1.0000 0.81445  0.08319  0.26631  Biso   1.000  C
  C3359    1.0000 0.78060  0.09479  0.35741  Biso   1.000  C
  C3360    1.0000 0.84273  0.11157  0.37752  Biso   1.000  C
  C3361    1.0000 0.77621  0.18350  0.31224  Biso   1.000  C
  C3362    1.0000 0.75291  0.12494  0.33182  Biso   1.000  C
  C3363    1.0000 0.97976  0.72193  0.94798  Biso   1.000  C
  C3364    1.0000 0.31540  0.58110  0.26779  Biso   1.000  C
  C3365    1.0000 0.28077  0.59474  0.35868  Biso   1.000  C
  C3366    1.0000 0.34305  0.61298  0.37759  Biso   1.000  C
  C3367    1.0000 0.27739  0.68272  0.31058  Biso   1.000  C
  C3368    1.0000 0.25421  0.62421  0.33213  Biso   1.000  C
  C3369    1.0000 0.98030  0.22107  0.44683  Biso   1.000  C
  C3370    1.0000 0.31360  0.08246  0.76600  Biso   1.000  C
  C3371    1.0000 0.28073  0.09446  0.85796  Biso   1.000  C
  C3372    1.0000 0.34350  0.11103  0.87741  Biso   1.000  C
  C3373    1.0000 0.27619  0.18292  0.81342  Biso   1.000  C
  C3374    1.0000 0.25333  0.12415  0.83261  Biso   1.000  C
  C3375    1.0000 0.76929  0.02805  0.94863  Biso   1.000  C
  C3376    1.0000 0.43506  0.16979  0.26721  Biso   1.000  C
  C3377    1.0000 0.46908  0.15500  0.35645  Biso   1.000  C
  C3378    1.0000 0.40622  0.13909  0.37586  Biso   1.000  C
  C3379    1.0000 0.47473  0.06746  0.31032  Biso   1.000  C
  C3380    1.0000 0.49839  0.12532  0.33127  Biso   1.000  C
  C3381    1.0000 0.76912  0.52829  0.44676  Biso   1.000  C
  C3382    1.0000 0.43561  0.67026  0.76700  Biso   1.000  C
  C3383    1.0000 0.46972  0.65541  0.85759  Biso   1.000  C
  C3384    1.0000 0.40677  0.63861  0.87546  Biso   1.000  C
  C3385    1.0000 0.47354  0.56636  0.81154  Biso   1.000  C
  C3386    1.0000 0.49650  0.62545  0.83080  Biso   1.000  C
  C3387    1.0000 0.26940  0.02857  0.44845  Biso   1.000  C
  C3388    1.0000 0.93528  0.17053  0.76752  Biso   1.000  C
  C3389    1.0000 0.96810  0.15474  0.85686  Biso   1.000  C
  C3390    1.0000 0.90508  0.13872  0.87503  Biso   1.000  C
  C3391    1.0000 0.97431  0.06774  0.81012  Biso   1.000  C
  C3392    1.0000 0.99787  0.12520  0.83212  Biso   1.000  C
  C3393    1.0000 0.26944  0.52892  0.94937  Biso   1.000  C
  C3394    1.0000 0.93625  0.66934  0.26652  Biso   1.000  C
  C3395    1.0000 0.96970  0.65566  0.35787  Biso   1.000  C
  C3396    1.0000 0.90723  0.63750  0.37643  Biso   1.000  C
  C3397    1.0000 0.97415  0.56635  0.31206  Biso   1.000  C
  C3398    1.0000 0.99767  0.62456  0.33293  Biso   1.000  C
  C3399    1.0000 0.02748  0.94700  0.77039  Biso   1.000  C
  C3400    1.0000 0.16848  0.26739  0.43545  Biso   1.000  C
  C3401    1.0000 0.15174  0.35783  0.47144  Biso   1.000  C
  C3402    1.0000 0.13890  0.37653  0.40782  Biso   1.000  C
  C3403    1.0000 0.06864  0.30648  0.47276  Biso   1.000  C
  C3404    1.0000 0.12567  0.32831  0.49931  Biso   1.000  C
  C3405    1.0000 0.02702  0.44493  0.27163  Biso   1.000  C
  C3406    1.0000 0.16797  0.76579  0.93678  Biso   1.000  C
  C3407    1.0000 0.15234  0.85723  0.96965  Biso   1.000  C
  C3408    1.0000 0.13899  0.87708  0.90634  Biso   1.000  C
  C3409    1.0000 0.06939  0.80585  0.97327  Biso   1.000  C
  C3410    1.0000 0.12713  0.82735  0.99861  Biso   1.000  C
  C3411    1.0000 0.52832  0.94599  0.26983  Biso   1.000  C
  C3412    1.0000 0.66751  0.26629  0.93622  Biso   1.000  C
  C3413    1.0000 0.65302  0.35692  0.96920  Biso   1.000  C
  C3414    1.0000 0.63912  0.37676  0.90639  Biso   1.000  C
  C3415    1.0000 0.56839  0.30638  0.97342  Biso   1.000  C
  C3416    1.0000 0.62474  0.33044  0.99865  Biso   1.000  C
  C3417    1.0000 0.52762  0.44450  0.76989  Biso   1.000  C
  C3418    1.0000 0.66766  0.76631  0.43712  Biso   1.000  C
  C3419    1.0000 0.65471  0.85735  0.46931  Biso   1.000  C
  C3420    1.0000 0.63655  0.87844  0.40762  Biso   1.000  C
  C3421    1.0000 0.56884  0.80745  0.47440  Biso   1.000  C
  C3422    1.0000 0.62587  0.83120  0.49862  Biso   1.000  C
  C3423    1.0000 0.72240  0.44751  0.48096  Biso   1.000  C
  C3424    1.0000 0.58183  0.76689  0.81458  Biso   1.000  C
  C3425    1.0000 0.59848  0.85812  0.78074  Biso   1.000  C
  C3426    1.0000 0.61415  0.87710  0.84345  Biso   1.000  C
  C3427    1.0000 0.68293  0.80817  0.77573  Biso   1.000  C
  C3428    1.0000 0.62418  0.82949  0.75247  Biso   1.000  C
  C3429    1.0000 0.72237  0.94638  0.98070  Biso   1.000  C
  C3430    1.0000 0.58248  0.26672  0.31422  Biso   1.000  C
  C3431    1.0000 0.59901  0.35813  0.28110  Biso   1.000  C
  C3432    1.0000 0.61594  0.37835  0.34327  Biso   1.000  C
  C3433    1.0000 0.68131  0.30784  0.27685  Biso   1.000  C
  C3434    1.0000 0.62323  0.32804  0.25181  Biso   1.000  C
  C3435    1.0000 0.22317  0.44503  0.98025  Biso   1.000  C
  C3436    1.0000 0.08114  0.76747  0.31464  Biso   1.000  C
  C3437    1.0000 0.09910  0.85774  0.28019  Biso   1.000  C
  C3438    1.0000 0.11411  0.87804  0.34275  Biso   1.000  C
  C3439    1.0000 0.18239  0.80773  0.27599  Biso   1.000  C
  C3440    1.0000 0.12396  0.82801  0.25165  Biso   1.000  C
  C3441    1.0000 0.22249  0.94566  0.48095  Biso   1.000  C
  C3442    1.0000 0.08116  0.26676  0.81345  Biso   1.000  C
  C3443    1.0000 0.09825  0.35777  0.78099  Biso   1.000  C
  C3444    1.0000 0.11156  0.37800  0.84397  Biso   1.000  C
  C3445    1.0000 0.18081  0.30617  0.77599  Biso   1.000  C
  C3446    1.0000 0.12248  0.32744  0.75219  Biso   1.000  C
  C3447    1.0000 0.22270  0.80434  0.26967  Biso   1.000  C
  C3448    1.0000 0.08099  0.48285  0.93623  Biso   1.000  C
  C3449    1.0000 0.09593  0.39210  0.96970  Biso   1.000  C
  C3450    1.0000 0.11122  0.37395  0.90609  Biso   1.000  C
  C3451    1.0000 0.18312  0.44082  0.97455  Biso   1.000  C
  C3452    1.0000 0.12531  0.41772  0.99729  Biso   1.000  C
  C3453    1.0000 0.22138  0.30289  0.76981  Biso   1.000  C
  C3454    1.0000 0.08289  0.98398  0.43655  Biso   1.000  C
  C3455    1.0000 0.09537  0.89159  0.46844  Biso   1.000  C
  C3456    1.0000 0.11316  0.87181  0.40640  Biso   1.000  C
  C3457    1.0000 0.18217  0.94178  0.47496  Biso   1.000  C
  C3458    1.0000 0.12429  0.91759  0.49668  Biso   1.000  C
  C3459    1.0000 0.72359  0.80430  0.77001  Biso   1.000  C
  C3460    1.0000 0.58090  0.48311  0.43603  Biso   1.000  C
  C3461    1.0000 0.59547  0.39269  0.46893  Biso   1.000  C
  C3462    1.0000 0.61296  0.37249  0.40691  Biso   1.000  C
  C3463    1.0000 0.68188  0.44250  0.47537  Biso   1.000  C
  C3464    1.0000 0.62382  0.41977  0.49769  Biso   1.000  C
  C3465    1.0000 0.72190  0.30463  0.26965  Biso   1.000  C
  C3466    1.0000 0.58303  0.98324  0.93590  Biso   1.000  C
  C3467    1.0000 0.59579  0.89081  0.96889  Biso   1.000  C
  C3468    1.0000 0.61392  0.87066  0.90707  Biso   1.000  C
  C3469    1.0000 0.68200  0.94121  0.97437  Biso   1.000  C
  C3470    1.0000 0.62466  0.91647  0.99704  Biso   1.000  C
  C3471    1.0000 0.52837  0.30254  0.98012  Biso   1.000  C
  C3472    1.0000 0.66828  0.98378  0.31280  Biso   1.000  C
  C3473    1.0000 0.65521  0.89131  0.28217  Biso   1.000  C
  C3474    1.0000 0.63636  0.87270  0.34431  Biso   1.000  C
  C3475    1.0000 0.56820  0.94091  0.27650  Biso   1.000  C
  C3476    1.0000 0.62592  0.91702  0.25390  Biso   1.000  C
  C3477    1.0000 0.52878  0.80415  0.48112  Biso   1.000  C
  C3478    1.0000 0.66766  0.48352  0.81314  Biso   1.000  C
  C3479    1.0000 0.65507  0.39244  0.78132  Biso   1.000  C
  C3480    1.0000 0.63881  0.37397  0.84435  Biso   1.000  C
  C3481    1.0000 0.56772  0.43967  0.77732  Biso   1.000  C
  C3482    1.0000 0.62569  0.41799  0.75298  Biso   1.000  C
  C3483    1.0000 0.02854  0.30253  0.48008  Biso   1.000  C
  C3484    1.0000 0.16919  0.98136  0.81568  Biso   1.000  C
  C3485    1.0000 0.15185  0.89096  0.78013  Biso   1.000  C
  C3486    1.0000 0.13869  0.87370  0.84420  Biso   1.000  C
  C3487    1.0000 0.06799  0.94102  0.77805  Biso   1.000  C
  C3488    1.0000 0.12605  0.91991  0.75276  Biso   1.000  C
  C3489    1.0000 0.02898  0.80400  0.98031  Biso   1.000  C
  C3490    1.0000 0.16803  0.48354  0.31358  Biso   1.000  C
  C3491    1.0000 0.15495  0.39218  0.28245  Biso   1.000  C
  C3492    1.0000 0.13938  0.37352  0.34565  Biso   1.000  C
  C3493    1.0000 0.06730  0.43928  0.27792  Biso   1.000  C
  C3494    1.0000 0.12534  0.41740  0.25380  Biso   1.000  C
  C3495    1.0000 0.44911  0.48113  0.72167  Biso   1.000  C
  C3496    1.0000 0.76523  0.81390  0.58376  Biso   1.000  C
  C3497    1.0000 0.85774  0.78030  0.59820  Biso   1.000  C
  C3498    1.0000 0.87712  0.84343  0.61374  Biso   1.000  C
  C3499    1.0000 0.81048  0.77515  0.68251  Biso   1.000  C
  C3500    1.0000 0.82898  0.75133  0.62355  Biso   1.000  C
  C3501    1.0000 0.44568  0.97982  0.22312  Biso   1.000  C
  C3502    1.0000 0.76579  0.31353  0.08179  Biso   1.000  C
  C3503    1.0000 0.85696  0.28149  0.09565  Biso   1.000  C
  C3504    1.0000 0.87629  0.34399  0.11313  Biso   1.000  C
  C3505    1.0000 0.81006  0.27473  0.18233  Biso   1.000  C
  C3506    1.0000 0.83088  0.25186  0.12380  Biso   1.000  C
  C3507    1.0000 0.94951  0.48159  0.22177  Biso   1.000  C
  C3508    1.0000 0.26677  0.81451  0.08328  Biso   1.000  C
  C3509    1.0000 0.35753  0.78101  0.09670  Biso   1.000  C
  C3510    1.0000 0.37832  0.84323  0.11320  Biso   1.000  C
  C3511    1.0000 0.30732  0.77573  0.18132  Biso   1.000  C
  C3512    1.0000 0.33058  0.75144  0.12437  Biso   1.000  C
  C3513    1.0000 0.94687  0.98169  0.72184  Biso   1.000  C
  C3514    1.0000 0.26490  0.31411  0.58360  Biso   1.000  C
  C3515    1.0000 0.35669  0.28163  0.59554  Biso   1.000  C
  C3516    1.0000 0.37577  0.34405  0.61326  Biso   1.000  C
  C3517    1.0000 0.31088  0.27368  0.68326  Biso   1.000  C
  C3518    1.0000 0.33080  0.25221  0.62408  Biso   1.000  C
  C3519    1.0000 0.94812  0.76916  0.02713  Biso   1.000  C
  C3520    1.0000 0.26756  0.43387  0.17022  Biso   1.000  C
  C3521    1.0000 0.35708  0.46927  0.15333  Biso   1.000  C
  C3522    1.0000 0.37647  0.40665  0.13636  Biso   1.000  C
  C3523    1.0000 0.30983  0.47416  0.06765  Biso   1.000  C
  C3524    1.0000 0.32902  0.49736  0.12691  Biso   1.000  C
  C3525    1.0000 0.94896  0.26855  0.52790  Biso   1.000  C
  C3526    1.0000 0.26765  0.93441  0.67048  Biso   1.000  C
  C3527    1.0000 0.35811  0.96971  0.65510  Biso   1.000  C
  C3528    1.0000 0.37541  0.90632  0.63848  Biso   1.000  C
  C3529    1.0000 0.31091  0.97481  0.56732  Biso   1.000  C
  C3530    1.0000 0.33231  0.99745  0.62605  Biso   1.000  C
  C3531    1.0000 0.44615  0.77024  0.52769  Biso   1.000  C
  C3532    1.0000 0.76722  0.43389  0.66874  Biso   1.000  C
  C3533    1.0000 0.85713  0.46975  0.65197  Biso   1.000  C
  C3534    1.0000 0.87585  0.40690  0.63499  Biso   1.000  C
  C3535    1.0000 0.81036  0.47506  0.56689  Biso   1.000  C
  C3536    1.0000 0.82907  0.49841  0.62623  Biso   1.000  C
  C3537    1.0000 0.44871  0.26879  0.02809  Biso   1.000  C
  C3538    1.0000 0.76677  0.93615  0.16857  Biso   1.000  C
  C3539    1.0000 0.85755  0.96902  0.15550  Biso   1.000  C
  C3540    1.0000 0.87642  0.90650  0.13812  Biso   1.000  C
  C3541    1.0000 0.81131  0.97347  0.06697  Biso   1.000  C
  C3542    1.0000 0.83144  0.99622  0.12621  Biso   1.000  C
  C3543    1.0000 0.30196  0.98161  0.52772  Biso   1.000  C
  C3544    1.0000 0.98234  0.31519  0.66809  Biso   1.000  C
  C3545    1.0000 0.89108  0.28005  0.65150  Biso   1.000  C
  C3546    1.0000 0.87258  0.34320  0.63508  Biso   1.000  C
  C3547    1.0000 0.94079  0.27581  0.56757  Biso   1.000  C
  C3548    1.0000 0.92020  0.25185  0.62611  Biso   1.000  C
  C3549    1.0000 0.30160  0.48089  0.02780  Biso   1.000  C
  C3550    1.0000 0.98401  0.81426  0.16739  Biso   1.000  C
  C3551    1.0000 0.89266  0.77949  0.15148  Biso   1.000  C
  C3552    1.0000 0.87441  0.84294  0.13626  Biso   1.000  C
  C3553    1.0000 0.94049  0.77626  0.06687  Biso   1.000  C
  C3554    1.0000 0.92101  0.75143  0.12544  Biso   1.000  C
  C3555    1.0000 0.80241  0.98059  0.02736  Biso   1.000  C
  C3556    1.0000 0.48320  0.31459  0.16828  Biso   1.000  C
  C3557    1.0000 0.39174  0.27964  0.15198  Biso   1.000  C
  C3558    1.0000 0.37339  0.34296  0.13616  Biso   1.000  C
  C3559    1.0000 0.44080  0.27597  0.06780  Biso   1.000  C
  C3560    1.0000 0.42060  0.25156  0.12628  Biso   1.000  C
  C3561    1.0000 0.80187  0.48180  0.52699  Biso   1.000  C
  C3562    1.0000 0.48196  0.81507  0.67104  Biso   1.000  C
  C3563    1.0000 0.39191  0.78099  0.65375  Biso   1.000  C
  C3564    1.0000 0.37351  0.84422  0.63883  Biso   1.000  C
  C3565    1.0000 0.44259  0.77556  0.56776  Biso   1.000  C
  C3566    1.0000 0.41867  0.75296  0.62524  Biso   1.000  C
  C3567    1.0000 0.80287  0.26840  0.22247  Biso   1.000  C
  C3568    1.0000 0.48328  0.93557  0.08058  Biso   1.000  C
  C3569    1.0000 0.39120  0.96947  0.09804  Biso   1.000  C
  C3570    1.0000 0.37267  0.90669  0.11411  Biso   1.000  C
  C3571    1.0000 0.44163  0.97358  0.18281  Biso   1.000  C
  C3572    1.0000 0.41857  0.99665  0.12474  Biso   1.000  C
  C3573    1.0000 0.80276  0.76860  0.72220  Biso   1.000  C
  C3574    1.0000 0.48335  0.43554  0.58246  Biso   1.000  C
  C3575    1.0000 0.39256  0.46933  0.59798  Biso   1.000  C
  C3576    1.0000 0.37157  0.40742  0.61535  Biso   1.000  C
  C3577    1.0000 0.44066  0.47301  0.68219  Biso   1.000  C
  C3578    1.0000 0.42056  0.49756  0.62378  Biso   1.000  C
  C3579    1.0000 0.30152  0.26697  0.72249  Biso   1.000  C
  C3580    1.0000 0.98311  0.93586  0.58075  Biso   1.000  C
  C3581    1.0000 0.89213  0.96976  0.59768  Biso   1.000  C
  C3582    1.0000 0.87252  0.90713  0.61343  Biso   1.000  C
  C3583    1.0000 0.93976  0.97305  0.68203  Biso   1.000  C
  C3584    1.0000 0.92175  0.99696  0.62343  Biso   1.000  C
  C3585    1.0000 0.30255  0.76906  0.22163  Biso   1.000  C
  C3586    1.0000 0.98470  0.43598  0.08314  Biso   1.000  C
  C3587    1.0000 0.89365  0.46970  0.09790  Biso   1.000  C
  C3588    1.0000 0.87291  0.40723  0.11392  Biso   1.000  C
  C3589    1.0000 0.94181  0.47379  0.18208  Biso   1.000  C
  C3590    1.0000 0.92165  0.49828  0.12385  Biso   1.000  C
  C3591    1.0000 0.18454  0.18537  0.26908  Biso   1.000  C
  C3592    1.0000 0.17108  0.17282  0.20535  Biso   1.000  C
  C3593    1.0000 0.18732  0.68459  0.76903  Biso   1.000  C
  C3594    1.0000 0.17076  0.67108  0.70627  Biso   1.000  C
  C3595    1.0000 0.68697  0.18426  0.76850  Biso   1.000  C
  C3596    1.0000 0.67374  0.17131  0.70451  Biso   1.000  C
  C3597    1.0000 0.68570  0.68654  0.26876  Biso   1.000  C
  C3598    1.0000 0.67150  0.67248  0.20547  Biso   1.000  C
  C3599    1.0000 0.56478  0.06291  0.76948  Biso   1.000  C
  C3600    1.0000 0.57765  0.07842  0.70622  Biso   1.000  C
  C3601    1.0000 0.56515  0.56320  0.26927  Biso   1.000  C
  C3602    1.0000 0.57675  0.57995  0.20612  Biso   1.000  C
  C3603    1.0000 0.06419  0.68552  0.48167  Biso   1.000  C
  C3604    1.0000 0.07822  0.67230  0.54536  Biso   1.000  C
  C3605    1.0000 0.06573  0.18644  0.98050  Biso   1.000  C
  C3606    1.0000 0.07830  0.17080  0.04388  Biso   1.000  C
  C3607    1.0000 0.56190  0.18358  0.48109  Biso   1.000  C
  C3608    1.0000 0.57702  0.17005  0.54456  Biso   1.000  C
  C3609    1.0000 0.68653  0.56383  0.98223  Biso   1.000  C
  C3610    1.0000 0.67100  0.57522  0.04580  Biso   1.000  C
  C3611    1.0000 0.18496  0.56303  0.48112  Biso   1.000  C
  C3612    1.0000 0.16994  0.57819  0.54406  Biso   1.000  C
  C3613    1.0000 0.26894  0.18469  0.18629  Biso   1.000  C
  C3614    1.0000 0.20526  0.17220  0.17160  Biso   1.000  C
  C3615    1.0000 0.26861  0.68380  0.68788  Biso   1.000  C
  C3616    1.0000 0.20504  0.67025  0.67320  Biso   1.000  C
  C3617    1.0000 0.76919  0.18469  0.68654  Biso   1.000  C
  C3618    1.0000 0.70616  0.17291  0.66940  Biso   1.000  C
  C3619    1.0000 0.76912  0.68462  0.18776  Biso   1.000  C
  C3620    1.0000 0.70576  0.67102  0.17243  Biso   1.000  C
  C3621    1.0000 0.76831  0.56057  0.06579  Biso   1.000  C
  C3622    1.0000 0.70507  0.57540  0.07953  Biso   1.000  C
  C3623    1.0000 0.26845  0.56409  0.56440  Biso   1.000  C
  C3624    1.0000 0.20470  0.57846  0.57666  Biso   1.000  C
  C3625    1.0000 0.48164  0.06411  0.68493  Biso   1.000  C
  C3626    1.0000 0.54473  0.07848  0.67109  Biso   1.000  C
  C3627    1.0000 0.48052  0.56320  0.18369  Biso   1.000  C
  C3628    1.0000 0.54361  0.57852  0.17161  Biso   1.000  C
  C3629    1.0000 0.98116  0.68543  0.56287  Biso   1.000  C
  C3630    1.0000 0.04415  0.67330  0.57972  Biso   1.000  C
  C3631    1.0000 0.98136  0.18706  0.06526  Biso   1.000  C
  C3632    1.0000 0.04444  0.17183  0.07815  Biso   1.000  C
  C3633    1.0000 0.48127  0.18677  0.56437  Biso   1.000  C
  C3634    1.0000 0.54429  0.17243  0.57965  Biso   1.000  C
  C3635    1.0000 0.18657  0.26766  0.18678  Biso   1.000  C
  C3636    1.0000 0.17169  0.20508  0.17031  Biso   1.000  C
  C3637    1.0000 0.18626  0.76724  0.68557  Biso   1.000  C
  C3638    1.0000 0.17244  0.70383  0.67154  Biso   1.000  C
  C3639    1.0000 0.68575  0.26780  0.68573  Biso   1.000  C
  C3640    1.0000 0.67065  0.20469  0.67173  Biso   1.000  C
  C3641    1.0000 0.68764  0.76753  0.18519  Biso   1.000  C
  C3642    1.0000 0.67296  0.70446  0.17029  Biso   1.000  C
  C3643    1.0000 0.06181  0.76851  0.56572  Biso   1.000  C
  C3644    1.0000 0.07845  0.70595  0.57870  Biso   1.000  C
  C3645    1.0000 0.06439  0.26762  0.06339  Biso   1.000  C
  C3646    1.0000 0.07836  0.20406  0.07705  Biso   1.000  C
  C3647    1.0000 0.56164  0.26776  0.56527  Biso   1.000  C
  C3648    1.0000 0.57836  0.20480  0.57722  Biso   1.000  C
  C3649    1.0000 0.68457  0.48074  0.06377  Biso   1.000  C
  C3650    1.0000 0.67065  0.54304  0.08123  Biso   1.000  C
  C3651    1.0000 0.18520  0.48142  0.56539  Biso   1.000  C
  C3652    1.0000 0.17057  0.54490  0.57756  Biso   1.000  C
  C3653    1.0000 0.56283  0.98211  0.68566  Biso   1.000  C
  C3654    1.0000 0.57826  0.04534  0.67239  Biso   1.000  C
  C3655    1.0000 0.56478  0.48228  0.18721  Biso   1.000  C
  C3656    1.0000 0.57728  0.54597  0.17271  Biso   1.000  C
  C3657    1.0000 0.93555  0.43833  0.23167  Biso   1.000  C
  C3658    1.0000 0.92277  0.42443  0.29511  Biso   1.000  C
  C3659    1.0000 0.93428  0.93755  0.73149  Biso   1.000  C
  C3660    1.0000 0.92023  0.92325  0.79485  Biso   1.000  C
  C3661    1.0000 0.81786  0.81256  0.73085  Biso   1.000  C
  C3662    1.0000 0.83052  0.82724  0.79443  Biso   1.000  C
  C3663    1.0000 0.81590  0.31252  0.23070  Biso   1.000  C
  C3664    1.0000 0.83033  0.32709  0.29373  Biso   1.000  C
  C3665    1.0000 0.31530  0.81266  0.23208  Biso   1.000  C
  C3666    1.0000 0.33077  0.82678  0.29537  Biso   1.000  C
  C3667    1.0000 0.31440  0.31101  0.73193  Biso   1.000  C
  C3668    1.0000 0.32575  0.32685  0.79555  Biso   1.000  C
  C3669    1.0000 0.43511  0.31302  0.01899  Biso   1.000  C
  C3670    1.0000 0.42133  0.32746  0.95585  Biso   1.000  C
  C3671    1.0000 0.43851  0.81637  0.51958  Biso   1.000  C
  C3672    1.0000 0.42176  0.83024  0.45705  Biso   1.000  C
  C3673    1.0000 0.93521  0.81417  0.01867  Biso   1.000  C
  C3674    1.0000 0.92192  0.82980  0.95583  Biso   1.000  C
  C3675    1.0000 0.31509  0.93742  0.51869  Biso   1.000  C
  C3676    1.0000 0.32679  0.92273  0.45487  Biso   1.000  C
  C3677    1.0000 0.81424  0.93553  0.01882  Biso   1.000  C
  C3678    1.0000 0.82582  0.91966  0.95594  Biso   1.000  C
  C3679    1.0000 0.93587  0.51866  0.31509  Biso   1.000  C
  C3680    1.0000 0.92069  0.45627  0.33013  Biso   1.000  C
  C3681    1.0000 0.93603  0.02008  0.81415  Biso   1.000  C
  C3682    1.0000 0.92017  0.95718  0.82794  Biso   1.000  C
  C3683    1.0000 0.31290  0.01896  0.43430  Biso   1.000  C
  C3684    1.0000 0.32717  0.95554  0.42065  Biso   1.000  C
  C3685    1.0000 0.81279  0.01861  0.93464  Biso   1.000  C
  C3686    1.0000 0.82687  0.95480  0.92256  Biso   1.000  C
  C3687    1.0000 0.81662  0.73180  0.81320  Biso   1.000  C
  C3688    1.0000 0.83000  0.79450  0.82940  Biso   1.000  C
  C3689    1.0000 0.81447  0.23137  0.31594  Biso   1.000  C
  C3690    1.0000 0.82888  0.29434  0.32928  Biso   1.000  C
  C3691    1.0000 0.31633  0.73211  0.31362  Biso   1.000  C
  C3692    1.0000 0.32971  0.79456  0.33039  Biso   1.000  C
  C3693    1.0000 0.31306  0.23162  0.81800  Biso   1.000  C
  C3694    1.0000 0.32676  0.29519  0.83082  Biso   1.000  C
  C3695    1.0000 0.43706  0.23128  0.93384  Biso   1.000  C
  C3696    1.0000 0.42257  0.29486  0.92033  Biso   1.000  C
  C3697    1.0000 0.43752  0.73262  0.43445  Biso   1.000  C
  C3698    1.0000 0.42327  0.79648  0.42242  Biso   1.000  C
  C3699    1.0000 0.93721  0.73271  0.93325  Biso   1.000  C
  C3700    1.0000 0.92383  0.79656  0.92070  Biso   1.000  C
  C3701    1.0000 0.01810  0.43727  0.31734  Biso   1.000  C
  C3702    1.0000 0.95441  0.42268  0.32928  Biso   1.000  C
  C3703    1.0000 0.01738  0.93813  0.81502  Biso   1.000  C
  C3704    1.0000 0.95370  0.92499  0.82746  Biso   1.000  C
  C3705    1.0000 0.51852  0.31195  0.93471  Biso   1.000  C
  C3706    1.0000 0.45539  0.32855  0.92186  Biso   1.000  C
  C3707    1.0000 0.51911  0.81385  0.43561  Biso   1.000  C
  C3708    1.0000 0.45605  0.83095  0.42388  Biso   1.000  C
  C3709    1.0000 0.01964  0.81364  0.93491  Biso   1.000  C
  C3710    1.0000 0.95675  0.83122  0.92284  Biso   1.000  C
  C3711    1.0000 0.23090  0.93708  0.43496  Biso   1.000  C
  C3712    1.0000 0.29358  0.92221  0.41991  Biso   1.000  C
  C3713    1.0000 0.73137  0.93680  0.93497  Biso   1.000  C
  C3714    1.0000 0.79387  0.92128  0.91944  Biso   1.000  C
  C3715    1.0000 0.73192  0.81220  0.81541  Biso   1.000  C
  C3716    1.0000 0.79555  0.82691  0.82732  Biso   1.000  C
  C3717    1.0000 0.73160  0.31356  0.31481  Biso   1.000  C
  C3718    1.0000 0.79543  0.32806  0.32696  Biso   1.000  C
  C3719    1.0000 0.23186  0.81320  0.31517  Biso   1.000  C
  C3720    1.0000 0.29564  0.82748  0.32760  Biso   1.000  C
  C3721    1.0000 0.23020  0.31297  0.81536  Biso   1.000  C
  C3722    1.0000 0.29281  0.32844  0.83050  Biso   1.000  C
  C3723    1.0000 0.43872  0.93420  0.23169  Biso   1.000  C
  C3724    1.0000 0.42242  0.92109  0.29477  Biso   1.000  C
  C3725    1.0000 0.43451  0.43745  0.73211  Biso   1.000  C
  C3726    1.0000 0.41845  0.42280  0.79503  Biso   1.000  C
  C3727    1.0000 0.93513  0.31277  0.51867  Biso   1.000  C
  C3728    1.0000 0.92046  0.32800  0.45592  Biso   1.000  C
  C3729    1.0000 0.31527  0.43615  0.01973  Biso   1.000  C
  C3730    1.0000 0.32927  0.42135  0.95705  Biso   1.000  C
  C3731    1.0000 0.81558  0.43765  0.51841  Biso   1.000  C
  C3732    1.0000 0.82705  0.42186  0.45480  Biso   1.000  C
  C3733    1.0000 0.23198  0.43803  0.93466  Biso   1.000  C
  C3734    1.0000 0.29545  0.42221  0.92284  Biso   1.000  C
  C3735    1.0000 0.73072  0.43727  0.43570  Biso   1.000  C
  C3736    1.0000 0.79327  0.42193  0.42057  Biso   1.000  C
  C3737    1.0000 0.51788  0.93763  0.31446  Biso   1.000  C
  C3738    1.0000 0.45455  0.92426  0.32852  Biso   1.000  C
  C3739    1.0000 0.51710  0.43515  0.81438  Biso   1.000  C
  C3740    1.0000 0.45344  0.42068  0.82687  Biso   1.000  C
  C3741    1.0000 0.01827  0.31235  0.43498  Biso   1.000  C
  C3742    1.0000 0.95499  0.32894  0.42242  Biso   1.000  C
  C3743    1.0000 0.93691  0.23170  0.43334  Biso   1.000  C
  C3744    1.0000 0.92234  0.29534  0.42056  Biso   1.000  C
  C3745    1.0000 0.31407  0.51899  0.93524  Biso   1.000  C
  C3746    1.0000 0.32835  0.45556  0.92306  Biso   1.000  C
  C3747    1.0000 0.81303  0.51872  0.43329  Biso   1.000  C
  C3748    1.0000 0.82715  0.45501  0.42102  Biso   1.000  C
  C3749    1.0000 0.43695  0.01941  0.31483  Biso   1.000  C
  C3750    1.0000 0.42016  0.95649  0.32705  Biso   1.000  C
  C3751    1.0000 0.43577  0.51818  0.81376  Biso   1.000  C
  C3752    1.0000 0.42112  0.45525  0.82853  Biso   1.000  C
  C3753    1.0000 0.06475  0.56295  0.76854  Biso   1.000  C
  C3754    1.0000 0.07732  0.57781  0.70469  Biso   1.000  C
  C3755    1.0000 0.06240  0.06421  0.26882  Biso   1.000  C
  C3756    1.0000 0.07725  0.07981  0.20608  Biso   1.000  C
  C3757    1.0000 0.56420  0.68570  0.98148  Biso   1.000  C
  C3758    1.0000 0.57962  0.67074  0.04424  Biso   1.000  C
  C3759    1.0000 0.68687  0.06515  0.48112  Biso   1.000  C
  C3760    1.0000 0.67024  0.07649  0.54434  Biso   1.000  C
  C3761    1.0000 0.18588  0.06593  0.98153  Biso   1.000  C
  C3762    1.0000 0.17061  0.07657  0.04524  Biso   1.000  C
  C3763    1.0000 0.06345  0.48206  0.68812  Biso   1.000  C
  C3764    1.0000 0.07876  0.54431  0.67153  Biso   1.000  C
  C3765    1.0000 0.06342  0.98138  0.18425  Biso   1.000  C
  C3766    1.0000 0.07820  0.04512  0.17291  Biso   1.000  C
  C3767    1.0000 0.68646  0.98074  0.56512  Biso   1.000  C
  C3768    1.0000 0.67127  0.04344  0.57964  Biso   1.000  C
  C3769    1.0000 0.18525  0.98132  0.06248  Biso   1.000  C
  C3770    1.0000 0.17266  0.04384  0.08022  Biso   1.000  C
  C3771    1.0000 0.56372  0.76784  0.06610  Biso   1.000  C
  C3772    1.0000 0.57981  0.70461  0.07735  Biso   1.000  C
  C3773    1.0000 0.98101  0.56464  0.68683  Biso   1.000  C
  C3774    1.0000 0.04405  0.57647  0.67007  Biso   1.000  C
  C3775    1.0000 0.98203  0.06377  0.18425  Biso   1.000  C
  C3776    1.0000 0.04500  0.07849  0.17016  Biso   1.000  C
  C3777    1.0000 0.48202  0.68543  0.06426  Biso   1.000  C
  C3778    1.0000 0.54559  0.67190  0.07800  Biso   1.000  C
  C3779    1.0000 0.76810  0.06503  0.56271  Biso   1.000  C
  C3780    1.0000 0.70443  0.07721  0.57742  Biso   1.000  C
  C3781    1.0000 0.26851  0.06509  0.06193  Biso   1.000  C
  C3782    1.0000 0.20526  0.07752  0.07792  Biso   1.000  C
  C3783    1.0000 0.14948  0.10164  0.06875  Biso   1.000  C
  C3784    1.0000 0.14933  0.60365  0.56793  Biso   1.000  C
  C3785    1.0000 0.64888  0.10168  0.56776  Biso   1.000  C
  C3786    1.0000 0.60198  0.14885  0.56872  Biso   1.000  C
  C3787    1.0000 0.60386  0.64891  0.06875  Biso   1.000  C
  C3788    1.0000 0.10199  0.60007  0.68157  Biso   1.000  C
  C3789    1.0000 0.10316  0.10037  0.18294  Biso   1.000  C
  C3790    1.0000 0.60177  0.60147  0.18255  Biso   1.000  C
  C3791    1.0000 0.65022  0.64674  0.18291  Biso   1.000  C
  C3792    1.0000 0.64937  0.14794  0.68144  Biso   1.000  C
  C3793    1.0000 0.14935  0.64614  0.68275  Biso   1.000  C
  C3794    1.0000 0.15042  0.14680  0.18281  Biso   1.000  C
  C3795    1.0000 0.06767  0.14636  0.09939  Biso   1.000  C
  C3796    1.0000 0.06748  0.64801  0.60085  Biso   1.000  C
  C3797    1.0000 0.56787  0.14747  0.60106  Biso   1.000  C
  C3798    1.0000 0.56707  0.60367  0.15013  Biso   1.000  C
  C3799    1.0000 0.56884  0.10363  0.65076  Biso   1.000  C
  C3800    1.0000 0.68160  0.09936  0.60256  Biso   1.000  C
  C3801    1.0000 0.18230  0.09975  0.10317  Biso   1.000  C
  C3802    1.0000 0.18209  0.59976  0.60245  Biso   1.000  C
  C3803    1.0000 0.18158  0.64792  0.64820  Biso   1.000  C
  C3804    1.0000 0.18178  0.14922  0.14741  Biso   1.000  C
  C3805    1.0000 0.68228  0.64823  0.14789  Biso   1.000  C
  C3806    1.0000 0.68274  0.14707  0.64879  Biso   1.000  C
  C3807    1.0000 0.10154  0.06866  0.14889  Biso   1.000  C
  C3808    1.0000 0.10016  0.56924  0.64682  Biso   1.000  C
  C3809    1.0000 0.59938  0.57069  0.14807  Biso   1.000  C
  C3810    1.0000 0.14696  0.56954  0.60011  Biso   1.000  C
  C3811    1.0000 0.64666  0.56877  0.10171  Biso   1.000  C
  C3812    1.0000 0.60071  0.68058  0.10278  Biso   1.000  C
  C3813    1.0000 0.60042  0.18136  0.60233  Biso   1.000  C
  C3814    1.0000 0.64968  0.18098  0.64673  Biso   1.000  C
  C3815    1.0000 0.64775  0.68066  0.14950  Biso   1.000  C
  C3816    1.0000 0.14676  0.18053  0.14957  Biso   1.000  C
  C3817    1.0000 0.14711  0.68068  0.65035  Biso   1.000  C
  C3818    1.0000 0.85191  0.39970  0.43166  Biso   1.000  C
  C3819    1.0000 0.35069  0.39719  0.93330  Biso   1.000  C
  C3820    1.0000 0.90055  0.85430  0.93191  Biso   1.000  C
  C3821    1.0000 0.89934  0.35323  0.43259  Biso   1.000  C
  C3822    1.0000 0.35091  0.35009  0.81792  Biso   1.000  C
  C3823    1.0000 0.35111  0.85276  0.31947  Biso   1.000  C
  C3824    1.0000 0.85115  0.35242  0.31722  Biso   1.000  C
  C3825    1.0000 0.85040  0.85322  0.81875  Biso   1.000  C
  C3826    1.0000 0.39747  0.90003  0.31972  Biso   1.000  C
  C3827    1.0000 0.39677  0.39805  0.81928  Biso   1.000  C
  C3828    1.0000 0.89609  0.90121  0.81997  Biso   1.000  C
  C3829    1.0000 0.89704  0.31901  0.39982  Biso   1.000  C
  C3830    1.0000 0.89889  0.82064  0.89971  Biso   1.000  C
  C3831    1.0000 0.35302  0.81965  0.35234  Biso   1.000  C
  C3832    1.0000 0.34880  0.32019  0.85407  Biso   1.000  C
  C3833    1.0000 0.85331  0.81972  0.85121  Biso   1.000  C
  C3834    1.0000 0.85331  0.31878  0.35009  Biso   1.000  C
  C3835    1.0000 0.85079  0.93139  0.89902  Biso   1.000  C
  C3836    1.0000 0.34929  0.93177  0.39634  Biso   1.000  C
  C3837    1.0000 0.39664  0.43189  0.85150  Biso   1.000  C
  C3838    1.0000 0.39877  0.93305  0.35221  Biso   1.000  C
  C3839    1.0000 0.81889  0.35030  0.35177  Biso   1.000  C
  C3840    1.0000 0.81800  0.84990  0.85232  Biso   1.000  C
  C3841    1.0000 0.31720  0.35438  0.84991  Biso   1.000  C
  C3842    1.0000 0.31799  0.85018  0.35285  Biso   1.000  C
  C3843    1.0000 0.31902  0.40059  0.89772  Biso   1.000  C
  C3844    1.0000 0.81736  0.39704  0.39919  Biso   1.000  C
  C3845    1.0000 0.81808  0.89641  0.89952  Biso   1.000  C
  C3846    1.0000 0.43189  0.85231  0.39871  Biso   1.000  C
  C3847    1.0000 0.43120  0.35117  0.89783  Biso   1.000  C
  C3848    1.0000 0.93095  0.89977  0.85079  Biso   1.000  C
  C3849    1.0000 0.93046  0.40023  0.35299  Biso   1.000  C
  C3850    1.0000 0.85195  0.89962  0.93285  Biso   1.000  C
  C3851    1.0000 0.35205  0.90047  0.43191  Biso   1.000  C
  C3852    1.0000 0.40007  0.85445  0.43267  Biso   1.000  C
  C3853    1.0000 0.39988  0.35266  0.93272  Biso   1.000  C
  C3854    1.0000 0.89903  0.39861  0.31705  Biso   1.000  C
  C3855    1.0000 0.93295  0.85260  0.89764  Biso   1.000  C
  C3856    1.0000 0.93109  0.35157  0.39801  Biso   1.000  C
  C3857    1.0000 0.43049  0.39989  0.85283  Biso   1.000  C
  C3858    1.0000 0.43151  0.89919  0.35149  Biso   1.000  C
  C3859    1.0000 0.31707  0.89671  0.39992  Biso   1.000  C
  C3860    1.0000 0.89897  0.93339  0.85344  Biso   1.000  C
  C3861    1.0000 0.89550  0.43140  0.34941  Biso   1.000  C
  C3862    1.0000 0.84842  0.43130  0.39597  Biso   1.000  C
  C3863    1.0000 0.35381  0.43241  0.90195  Biso   1.000  C
  C3864    1.0000 0.39722  0.31965  0.89985  Biso   1.000  C
  C3865    1.0000 0.39813  0.82027  0.40127  Biso   1.000  C
  C3866    1.0000 0.65058  0.60169  0.06847  Biso   1.000  C
  C3867    1.0000 0.10235  0.14843  0.06846  Biso   1.000  C
  C3868    1.0000 0.10235  0.65044  0.56974  Biso   1.000  C
  C3869    1.0000 0.60295  0.10052  0.68306  Biso   1.000  C
  C3870    1.0000 0.09963  0.68191  0.60396  Biso   1.000  C
  C3871    1.0000 0.10021  0.17993  0.10215  Biso   1.000  C
  C3872    1.0000 0.14777  0.06750  0.10144  Biso   1.000  C
  C3873    1.0000 0.64649  0.06773  0.60018  Biso   1.000  C
  C3874    1.0000 0.60087  0.06955  0.64833  Biso   1.000  C
  C3875    1.0000 0.68234  0.59871  0.10376  Biso   1.000  C
  C3876    1.0000 0.56842  0.64671  0.09968  Biso   1.000  C
  C3877    1.0000 0.06958  0.10296  0.14953  Biso   1.000  C
  C3878    1.0000 0.06754  0.60169  0.64856  Biso   1.000  C
  C3879    1.0000 0.69168  0.92820  0.92977  Biso   1.000  C
  C3880    1.0000 0.65342  0.88965  0.88982  Biso   1.000  C
  C3881    1.0000 0.69151  0.42795  0.43091  Biso   1.000  C
  C3882    1.0000 0.65426  0.38942  0.39070  Biso   1.000  C
  C3883    1.0000 0.19104  0.92899  0.43002  Biso   1.000  C
  C3884    1.0000 0.15281  0.89080  0.38962  Biso   1.000  C
  C3885    1.0000 0.19262  0.42846  0.92885  Biso   1.000  C
  C3886    1.0000 0.15338  0.38902  0.89050  Biso   1.000  C
  C3887    1.0000 0.05803  0.32087  0.42878  Biso   1.000  C
  C3888    1.0000 0.09782  0.36018  0.39169  Biso   1.000  C
  C3889    1.0000 0.05933  0.82078  0.92907  Biso   1.000  C
  C3890    1.0000 0.09708  0.86148  0.89111  Biso   1.000  C
  C3891    1.0000 0.55682  0.42662  0.82148  Biso   1.000  C
  C3892    1.0000 0.59670  0.38863  0.86048  Biso   1.000  C
  C3893    1.0000 0.55730  0.92753  0.32140  Biso   1.000  C
  C3894    1.0000 0.59633  0.89059  0.36193  Biso   1.000  C
  C3895    1.0000 0.05692  0.92792  0.82163  Biso   1.000  C
  C3896    1.0000 0.09694  0.88931  0.86023  Biso   1.000  C
  C3897    1.0000 0.19242  0.82224  0.32093  Biso   1.000  C
  C3898    1.0000 0.15383  0.86071  0.36067  Biso   1.000  C
  C3899    1.0000 0.69245  0.82117  0.82089  Biso   1.000  C
  C3900    1.0000 0.65408  0.85953  0.86096  Biso   1.000  C
  C3901    1.0000 0.92697  0.69315  0.92741  Biso   1.000  C
  C3902    1.0000 0.88925  0.65170  0.88979  Biso   1.000  C
  C3903    1.0000 0.92697  0.19156  0.42884  Biso   1.000  C
  C3904    1.0000 0.88852  0.15132  0.39075  Biso   1.000  C
  C3905    1.0000 0.42755  0.69296  0.42899  Biso   1.000  C
  C3906    1.0000 0.38915  0.65263  0.39099  Biso   1.000  C
  C3907    1.0000 0.42707  0.19118  0.92951  Biso   1.000  C
  C3908    1.0000 0.38878  0.15102  0.89138  Biso   1.000  C
  C3909    1.0000 0.42864  0.05896  0.32075  Biso   1.000  C
  C3910    1.0000 0.39045  0.09676  0.36109  Biso   1.000  C
  C3911    1.0000 0.92788  0.05940  0.81999  Biso   1.000  C
  C3912    1.0000 0.88919  0.09656  0.86019  Biso   1.000  C
  C3913    1.0000 0.82177  0.55842  0.42745  Biso   1.000  C
  C3914    1.0000 0.86097  0.59823  0.38991  Biso   1.000  C
  C3915    1.0000 0.82181  0.05812  0.92867  Biso   1.000  C
  C3916    1.0000 0.85900  0.09662  0.88803  Biso   1.000  C
  C3917    1.0000 0.32167  0.19174  0.82355  Biso   1.000  C
  C3918    1.0000 0.36075  0.15143  0.86087  Biso   1.000  C
  C3919    1.0000 0.32160  0.69272  0.32277  Biso   1.000  C
  C3920    1.0000 0.36104  0.65361  0.36066  Biso   1.000  C
  C3921    1.0000 0.82196  0.69233  0.82273  Biso   1.000  C
  C3922    1.0000 0.86122  0.65191  0.85947  Biso   1.000  C
  C3923    1.0000 0.92945  0.92820  0.69204  Biso   1.000  C
  C3924    1.0000 0.89064  0.88951  0.65291  Biso   1.000  C
  C3925    1.0000 0.92972  0.42863  0.19193  Biso   1.000  C
  C3926    1.0000 0.89002  0.38958  0.15334  Biso   1.000  C
  C3927    1.0000 0.42934  0.92863  0.19220  Biso   1.000  C
  C3928    1.0000 0.39101  0.88876  0.15362  Biso   1.000  C
  C3929    1.0000 0.42868  0.42809  0.69247  Biso   1.000  C
  C3930    1.0000 0.38896  0.38899  0.65419  Biso   1.000  C
  C3931    1.0000 0.32081  0.42873  0.05926  Biso   1.000  C
  C3932    1.0000 0.36011  0.38864  0.09646  Biso   1.000  C
  C3933    1.0000 0.32137  0.92910  0.55840  Biso   1.000  C
  C3934    1.0000 0.36115  0.89026  0.59631  Biso   1.000  C
  C3935    1.0000 0.82048  0.92756  0.05832  Biso   1.000  C
  C3936    1.0000 0.86005  0.88899  0.09709  Biso   1.000  C
  C3937    1.0000 0.42970  0.82104  0.55920  Biso   1.000  C
  C3938    1.0000 0.38930  0.85995  0.59676  Biso   1.000  C
  C3939    1.0000 0.93052  0.82212  0.05846  Biso   1.000  C
  C3940    1.0000 0.89226  0.86226  0.09735  Biso   1.000  C
  C3941    1.0000 0.82030  0.32134  0.19121  Biso   1.000  C
  C3942    1.0000 0.85903  0.36176  0.15375  Biso   1.000  C
  C3943    1.0000 0.82190  0.82118  0.69141  Biso   1.000  C
  C3944    1.0000 0.85999  0.86157  0.65350  Biso   1.000  C
  C3945    1.0000 0.67844  0.94127  0.56991  Biso   1.000  C
  C3946    1.0000 0.64007  0.90388  0.61057  Biso   1.000  C
  C3947    1.0000 0.67919  0.44135  0.07262  Biso   1.000  C
  C3948    1.0000 0.63894  0.40307  0.11032  Biso   1.000  C
  C3949    1.0000 0.07022  0.30719  0.07267  Biso   1.000  C
  C3950    1.0000 0.10914  0.34637  0.11134  Biso   1.000  C
  C3951    1.0000 0.07078  0.80778  0.57092  Biso   1.000  C
  C3952    1.0000 0.10880  0.84627  0.61085  Biso   1.000  C
  C3953    1.0000 0.57109  0.30710  0.57073  Biso   1.000  C
  C3954    1.0000 0.60891  0.34651  0.61025  Biso   1.000  C
  C3955    1.0000 0.57270  0.80742  0.07118  Biso   1.000  C
  C3956    1.0000 0.61184  0.84746  0.10881  Biso   1.000  C
  C3957    1.0000 0.17724  0.80675  0.67865  Biso   1.000  C
  C3958    1.0000 0.13911  0.84581  0.63907  Biso   1.000  C
  C3959    1.0000 0.17774  0.30718  0.18024  Biso   1.000  C
  C3960    1.0000 0.13978  0.34510  0.13946  Biso   1.000  C
  C3961    1.0000 0.67743  0.30742  0.67897  Biso   1.000  C
  C3962    1.0000 0.63941  0.34556  0.63845  Biso   1.000  C
  C3963    1.0000 0.57153  0.44260  0.17843  Biso   1.000  C
  C3964    1.0000 0.61121  0.40326  0.14078  Biso   1.000  C
  C3965    1.0000 0.07014  0.44233  0.67933  Biso   1.000  C
  C3966    1.0000 0.10866  0.40385  0.63966  Biso   1.000  C
  C3967    1.0000 0.44186  0.18015  0.57251  Biso   1.000  C
  C3968    1.0000 0.40275  0.14133  0.61121  Biso   1.000  C
  C3969    1.0000 0.44247  0.67865  0.07229  Biso   1.000  C
  C3970    1.0000 0.40303  0.63843  0.10892  Biso   1.000  C
  C3971    1.0000 0.80834  0.67840  0.17888  Biso   1.000  C
  C3972    1.0000 0.84562  0.63991  0.13828  Biso   1.000  C
  C3973    1.0000 0.30868  0.67879  0.67885  Biso   1.000  C
  C3974    1.0000 0.34747  0.64061  0.63927  Biso   1.000  C
  C3975    1.0000 0.30801  0.07122  0.07057  Biso   1.000  C
  C3976    1.0000 0.34697  0.10987  0.10983  Biso   1.000  C
  C3977    1.0000 0.30825  0.57239  0.57057  Biso   1.000  C
  C3978    1.0000 0.34715  0.61061  0.61017  Biso   1.000  C
  C3979    1.0000 0.80754  0.07173  0.57153  Biso   1.000  C
  C3980    1.0000 0.84725  0.11016  0.61018  Biso   1.000  C
  C3981    1.0000 0.80754  0.57100  0.07085  Biso   1.000  C
  C3982    1.0000 0.84583  0.60922  0.11093  Biso   1.000  C
  C3983    1.0000 0.94158  0.57101  0.67835  Biso   1.000  C
  C3984    1.0000 0.90321  0.61030  0.63932  Biso   1.000  C
  C3985    1.0000 0.94258  0.07251  0.17894  Biso   1.000  C
  C3986    1.0000 0.90320  0.11154  0.14049  Biso   1.000  C
  C3987    1.0000 0.44224  0.07335  0.67946  Biso   1.000  C
  C3988    1.0000 0.40346  0.11098  0.63913  Biso   1.000  C
  C3989    1.0000 0.67818  0.17935  0.80878  Biso   1.000  C
  C3990    1.0000 0.63881  0.14071  0.84754  Biso   1.000  C
  C3991    1.0000 0.67766  0.68010  0.30832  Biso   1.000  C
  C3992    1.0000 0.64072  0.63932  0.34690  Biso   1.000  C
  C3993    1.0000 0.17932  0.57080  0.44122  Biso   1.000  C
  C3994    1.0000 0.14010  0.60973  0.40231  Biso   1.000  C
  C3995    1.0000 0.17665  0.07196  0.94183  Biso   1.000  C
  C3996    1.0000 0.13986  0.11137  0.90177  Biso   1.000  C
  C3997    1.0000 0.67754  0.07061  0.44143  Biso   1.000  C
  C3998    1.0000 0.63825  0.10934  0.40252  Biso   1.000  C
  C3999    1.0000 0.57190  0.67925  0.94115  Biso   1.000  C
  C4000    1.0000 0.61033  0.63983  0.90225  Biso   1.000  C
  C4001    1.0000 0.07240  0.67922  0.44127  Biso   1.000  C
  C4002    1.0000 0.11142  0.64031  0.40223  Biso   1.000  C
  C4003    1.0000 0.07207  0.06936  0.30838  Biso   1.000  C
  C4004    1.0000 0.11030  0.10890  0.34749  Biso   1.000  C
  C4005    1.0000 0.07072  0.57252  0.80806  Biso   1.000  C
  C4006    1.0000 0.10934  0.61141  0.84719  Biso   1.000  C
  C4007    1.0000 0.57080  0.07125  0.80889  Biso   1.000  C
  C4008    1.0000 0.61114  0.10983  0.84653  Biso   1.000  C
  C4009    1.0000 0.57049  0.57183  0.30877  Biso   1.000  C
  C4010    1.0000 0.60993  0.61147  0.34662  Biso   1.000  C
  C4011    1.0000 0.94196  0.67869  0.57141  Biso   1.000  C
  C4012    1.0000 0.90314  0.63868  0.60889  Biso   1.000  C
  C4013    1.0000 0.94230  0.17785  0.07061  Biso   1.000  C
  C4014    1.0000 0.90306  0.13859  0.10918  Biso   1.000  C
  C4015    1.0000 0.44096  0.57114  0.17914  Biso   1.000  C
  C4016    1.0000 0.40255  0.61031  0.13981  Biso   1.000  C
  C4017    1.0000 0.80937  0.17976  0.67828  Biso   1.000  C
  C4018    1.0000 0.84743  0.14095  0.63849  Biso   1.000  C
  C4019    1.0000 0.30897  0.17964  0.17795  Biso   1.000  C
  C4020    1.0000 0.34685  0.14076  0.13815  Biso   1.000  C
  C4021    1.0000 0.57218  0.94293  0.67913  Biso   1.000  C
  C4022    1.0000 0.60977  0.90505  0.63841  Biso   1.000  C
  C4023    1.0000 0.07249  0.94195  0.17808  Biso   1.000  C
  C4024    1.0000 0.11075  0.90393  0.13829  Biso   1.000  C
  C4025    1.0000 0.17714  0.44205  0.57173  Biso   1.000  C
  C4026    1.0000 0.13918  0.40413  0.61192  Biso   1.000  C
  C4027    1.0000 0.18020  0.94178  0.07122  Biso   1.000  C
  C4028    1.0000 0.14134  0.90351  0.11080  Biso   1.000  C
  C4029    1.0000 0.67924  0.80731  0.17837  Biso   1.000  C
  C4030    1.0000 0.64009  0.84642  0.13960  Biso   1.000  C
  C4031    1.0000 0.67718  0.57004  0.94251  Biso   1.000  C
  C4032    1.0000 0.63804  0.60888  0.90341  Biso   1.000  C
  C4033    1.0000 0.57070  0.17817  0.44080  Biso   1.000  C
  C4034    1.0000 0.61002  0.13983  0.40175  Biso   1.000  C
  C4035    1.0000 0.07096  0.17837  0.94044  Biso   1.000  C
  C4036    1.0000 0.10914  0.13879  0.90129  Biso   1.000  C
  C4037    1.0000 0.17827  0.67951  0.80860  Biso   1.000  C
  C4038    1.0000 0.13955  0.63987  0.84730  Biso   1.000  C
  C4039    1.0000 0.17731  0.17879  0.30871  Biso   1.000  C
  C4040    1.0000 0.14004  0.13816  0.34714  Biso   1.000  C
  C4041    1.0000 0.32225  0.05831  0.42871  Biso   1.000  C
  C4042    1.0000 0.36019  0.09679  0.38883  Biso   1.000  C
  C4043    1.0000 0.32299  0.55809  0.92956  Biso   1.000  C
  C4044    1.0000 0.36012  0.59713  0.88926  Biso   1.000  C
  C4045    1.0000 0.82202  0.19142  0.32187  Biso   1.000  C
  C4046    1.0000 0.86086  0.15152  0.35987  Biso   1.000  C
  C4047    1.0000 0.42737  0.55760  0.82047  Biso   1.000  C
  C4048    1.0000 0.38996  0.59622  0.86077  Biso   1.000  C
  C4049    1.0000 0.92836  0.55829  0.32098  Biso   1.000  C
  C4050    1.0000 0.88971  0.59824  0.35896  Biso   1.000  C
  C4051    1.0000 0.55851  0.82193  0.42993  Biso   1.000  C
  C4052    1.0000 0.59678  0.86083  0.39063  Biso   1.000  C
  C4053    1.0000 0.55832  0.32033  0.92877  Biso   1.000  C
  C4054    1.0000 0.59791  0.35977  0.89106  Biso   1.000  C
  C4055    1.0000 0.19078  0.32112  0.82072  Biso   1.000  C
  C4056    1.0000 0.15318  0.36173  0.85924  Biso   1.000  C
  C4057    1.0000 0.69205  0.32191  0.32128  Biso   1.000  C
  C4058    1.0000 0.65433  0.35935  0.36255  Biso   1.000  C
  C4059    1.0000 0.05762  0.42743  0.32253  Biso   1.000  C
  C4060    1.0000 0.09744  0.38908  0.36122  Biso   1.000  C
  C4061    1.0000 0.32383  0.81959  0.19239  Biso   1.000  C
  C4062    1.0000 0.36097  0.86011  0.15359  Biso   1.000  C
  C4063    1.0000 0.32021  0.31973  0.69198  Biso   1.000  C
  C4064    1.0000 0.35824  0.36052  0.65379  Biso   1.000  C
  C4065    1.0000 0.82148  0.42963  0.55803  Biso   1.000  C
  C4066    1.0000 0.86007  0.38880  0.59503  Biso   1.000  C
  C4067    1.0000 0.43031  0.32171  0.05865  Biso   1.000  C
  C4068    1.0000 0.39106  0.36059  0.09734  Biso   1.000  C
  C4069    1.0000 0.93027  0.32149  0.55822  Biso   1.000  C
  C4070    1.0000 0.89086  0.36058  0.59649  Biso   1.000  C
  C4071    1.0000 0.23238  0.25499  0.80278  Biso   1.000  C
  C4072    1.0000 0.08117  0.94848  0.47211  Biso   1.000  C
  C4073    1.0000 0.10012  0.95286  0.38820  Biso   1.000  C
  C4074    1.0000 0.10617  0.92204  0.37792  Biso   1.000  C
  C4075    1.0000 0.16854  0.98313  0.43697  Biso   1.000  C
  C4076    1.0000 0.14029  0.99465  0.42586  Biso   1.000  C
  C4077    1.0000 0.23425  0.75692  0.30307  Biso   1.000  C
  C4078    1.0000 0.08097  0.44768  0.97213  Biso   1.000  C
  C4079    1.0000 0.10147  0.45406  0.88888  Biso   1.000  C
  C4080    1.0000 0.10952  0.42393  0.87800  Biso   1.000  C
  C4081    1.0000 0.16783  0.48164  0.93773  Biso   1.000  C
  C4082    1.0000 0.13899  0.49314  0.92793  Biso   1.000  C
  C4083    1.0000 0.73343  0.25618  0.30153  Biso   1.000  C
  C4084    1.0000 0.58178  0.94801  0.97161  Biso   1.000  C
  C4085    1.0000 0.59986  0.95169  0.88816  Biso   1.000  C
  C4086    1.0000 0.60632  0.92083  0.87839  Biso   1.000  C
  C4087    1.0000 0.66827  0.98211  0.93590  Biso   1.000  C
  C4088    1.0000 0.64012  0.99382  0.92469  Biso   1.000  C
  C4089    1.0000 0.73454  0.75623  0.80178  Biso   1.000  C
  C4090    1.0000 0.57992  0.44902  0.47291  Biso   1.000  C
  C4091    1.0000 0.60205  0.45332  0.38890  Biso   1.000  C
  C4092    1.0000 0.60914  0.42282  0.37850  Biso   1.000  C
  C4093    1.0000 0.66678  0.48140  0.43703  Biso   1.000  C
  C4094    1.0000 0.63800  0.49298  0.42713  Biso   1.000  C
  C4095    1.0000 0.51731  0.99359  0.30203  Biso   1.000  C
  C4096    1.0000 0.66894  0.30028  0.97308  Biso   1.000  C
  C4097    1.0000 0.65040  0.29682  0.88689  Biso   1.000  C
  C4098    1.0000 0.64299  0.32751  0.87722  Biso   1.000  C
  C4099    1.0000 0.58073  0.26590  0.93320  Biso   1.000  C
  C4100    1.0000 0.60982  0.25533  0.92377  Biso   1.000  C
  C4101    1.0000 0.51583  0.49210  0.80208  Biso   1.000  C
  C4102    1.0000 0.66987  0.80039  0.47375  Biso   1.000  C
  C4103    1.0000 0.64893  0.79729  0.38924  Biso   1.000  C
  C4104    1.0000 0.64145  0.82827  0.38080  Biso   1.000  C
  C4105    1.0000 0.58058  0.76651  0.43463  Biso   1.000  C
  C4106    1.0000 0.60956  0.75541  0.42525  Biso   1.000  C
  C4107    1.0000 0.01658  0.99389  0.80204  Biso   1.000  C
  C4108    1.0000 0.16944  0.30165  0.47213  Biso   1.000  C
  C4109    1.0000 0.14907  0.29561  0.38736  Biso   1.000  C
  C4110    1.0000 0.14186  0.32684  0.37896  Biso   1.000  C
  C4111    1.0000 0.08177  0.26797  0.43356  Biso   1.000  C
  C4112    1.0000 0.11117  0.25700  0.42524  Biso   1.000  C
  C4113    1.0000 0.01717  0.49304  0.30294  Biso   1.000  C
  C4114    1.0000 0.17150  0.80094  0.97212  Biso   1.000  C
  C4115    1.0000 0.15004  0.79710  0.88821  Biso   1.000  C
  C4116    1.0000 0.14264  0.82780  0.87817  Biso   1.000  C
  C4117    1.0000 0.08009  0.76507  0.93418  Biso   1.000  C
  C4118    1.0000 0.10948  0.75487  0.92511  Biso   1.000  C
  C4119    1.0000 0.01381  0.75821  0.94747  Biso   1.000  C
  C4120    1.0000 0.16915  0.44855  0.27790  Biso   1.000  C
  C4121    1.0000 0.15132  0.45220  0.36310  Biso   1.000  C
  C4122    1.0000 0.14201  0.42232  0.37365  Biso   1.000  C
  C4123    1.0000 0.08245  0.48053  0.31558  Biso   1.000  C
  C4124    1.0000 0.11067  0.49244  0.32653  Biso   1.000  C
  C4125    1.0000 0.01671  0.25515  0.44652  Biso   1.000  C
  C4126    1.0000 0.16897  0.94628  0.77976  Biso   1.000  C
  C4127    1.0000 0.14830  0.95439  0.86315  Biso   1.000  C
  C4128    1.0000 0.14129  0.92330  0.87213  Biso   1.000  C
  C4129    1.0000 0.08317  0.97879  0.81388  Biso   1.000  C
  C4130    1.0000 0.11267  0.99000  0.82060  Biso   1.000  C
  C4131    1.0000 0.51572  0.75708  0.44843  Biso   1.000  C
  C4132    1.0000 0.66937  0.44878  0.77718  Biso   1.000  C
  C4133    1.0000 0.65077  0.45255  0.86277  Biso   1.000  C
  C4134    1.0000 0.64127  0.42260  0.87277  Biso   1.000  C
  C4135    1.0000 0.58161  0.47858  0.81595  Biso   1.000  C
  C4136    1.0000 0.61089  0.48940  0.82522  Biso   1.000  C
  C4137    1.0000 0.51662  0.25481  0.94723  Biso   1.000  C
  C4138    1.0000 0.66963  0.94823  0.27760  Biso   1.000  C
  C4139    1.0000 0.65059  0.95339  0.36205  Biso   1.000  C
  C4140    1.0000 0.64209  0.92299  0.37164  Biso   1.000  C
  C4141    1.0000 0.58376  0.97798  0.31397  Biso   1.000  C
  C4142    1.0000 0.61284  0.98905  0.32278  Biso   1.000  C
  C4143    1.0000 0.73271  0.49417  0.44779  Biso   1.000  C
  C4144    1.0000 0.57925  0.80168  0.77874  Biso   1.000  C
  C4145    1.0000 0.60239  0.79532  0.86282  Biso   1.000  C
  C4146    1.0000 0.60859  0.82621  0.87250  Biso   1.000  C
  C4147    1.0000 0.66888  0.76738  0.81281  Biso   1.000  C
  C4148    1.0000 0.64012  0.75623  0.82301  Biso   1.000  C
  C4149    1.0000 0.73334  0.99347  0.94899  Biso   1.000  C
  C4150    1.0000 0.57896  0.30260  0.27948  Biso   1.000  C
  C4151    1.0000 0.59992  0.29729  0.36272  Biso   1.000  C
  C4152    1.0000 0.60651  0.32821  0.37225  Biso   1.000  C
  C4153    1.0000 0.66893  0.26787  0.31470  Biso   1.000  C
  C4154    1.0000 0.64041  0.25655  0.32532  Biso   1.000  C
  C4155    1.0000 0.23411  0.49352  0.94935  Biso   1.000  C
  C4156    1.0000 0.07861  0.80204  0.27851  Biso   1.000  C
  C4157    1.0000 0.10171  0.79618  0.36266  Biso   1.000  C
  C4158    1.0000 0.10800  0.82721  0.37195  Biso   1.000  C
  C4159    1.0000 0.16842  0.76868  0.31383  Biso   1.000  C
  C4160    1.0000 0.13949  0.75760  0.32358  Biso   1.000  C
  C4161    1.0000 0.23362  0.99379  0.44917  Biso   1.000  C
  C4162    1.0000 0.07782  0.30238  0.77853  Biso   1.000  C
  C4163    1.0000 0.09956  0.29786  0.86166  Biso   1.000  C
  C4164    1.0000 0.10712  0.32848  0.87167  Biso   1.000  C
  C4165    1.0000 0.16884  0.26573  0.81549  Biso   1.000  C
  C4166    1.0000 0.13959  0.25535  0.82456  Biso   1.000  C
  C4167    1.0000 0.80476  0.23332  0.25791  Biso   1.000  C
  C4168    1.0000 0.47157  0.07892  0.94893  Biso   1.000  C
  C4169    1.0000 0.38847  0.09864  0.95359  Biso   1.000  C
  C4170    1.0000 0.37861  0.10478  0.92258  Biso   1.000  C
  C4171    1.0000 0.43314  0.16910  0.98211  Biso   1.000  C
  C4172    1.0000 0.42339  0.13984  0.99259  Biso   1.000  C
  C4173    1.0000 0.80283  0.73237  0.75654  Biso   1.000  C
  C4174    1.0000 0.47236  0.58213  0.44906  Biso   1.000  C
  C4175    1.0000 0.38737  0.59845  0.45316  Biso   1.000  C
  C4176    1.0000 0.37741  0.60549  0.42234  Biso   1.000  C
  C4177    1.0000 0.43258  0.66921  0.48055  Biso   1.000  C
  C4178    1.0000 0.42236  0.64058  0.49229  Biso   1.000  C
  C4179    1.0000 0.30434  0.23316  0.75915  Biso   1.000  C
  C4180    1.0000 0.97110  0.08024  0.44839  Biso   1.000  C
  C4181    1.0000 0.88696  0.09819  0.45337  Biso   1.000  C
  C4182    1.0000 0.87677  0.10494  0.42264  Biso   1.000  C
  C4183    1.0000 0.93359  0.16933  0.48123  Biso   1.000  C
  C4184    1.0000 0.92342  0.14034  0.49195  Biso   1.000  C
  C4185    1.0000 0.30166  0.73358  0.25690  Biso   1.000  C
  C4186    1.0000 0.97182  0.58147  0.94950  Biso   1.000  C
  C4187    1.0000 0.88664  0.59843  0.95343  Biso   1.000  C
  C4188    1.0000 0.87700  0.60537  0.92259  Biso   1.000  C
  C4189    1.0000 0.93246  0.66894  0.97915  Biso   1.000  C
  C4190    1.0000 0.92236  0.64057  0.99146  Biso   1.000  C
  C4191    1.0000 0.30469  0.51679  0.99334  Biso   1.000  C
  C4192    1.0000 0.97208  0.66904  0.30147  Biso   1.000  C
  C4193    1.0000 0.88886  0.64925  0.29640  Biso   1.000  C
  C4194    1.0000 0.87803  0.64310  0.32692  Biso   1.000  C
  C4195    1.0000 0.93877  0.58304  0.26928  Biso   1.000  C
  C4196    1.0000 0.92867  0.61098  0.25605  Biso   1.000  C
  C4197    1.0000 0.30458  0.01678  0.49257  Biso   1.000  C
  C4198    1.0000 0.97222  0.16940  0.80112  Biso   1.000  C
  C4199    1.0000 0.88731  0.15006  0.79643  Biso   1.000  C
  C4200    1.0000 0.87625  0.14161  0.82634  Biso   1.000  C
  C4201    1.0000 0.93767  0.08427  0.76840  Biso   1.000  C
  C4202    1.0000 0.92714  0.11245  0.75595  Biso   1.000  C
  C4203    1.0000 0.80435  0.51668  0.49139  Biso   1.000  C
  C4204    1.0000 0.47185  0.67002  0.80146  Biso   1.000  C
  C4205    1.0000 0.38819  0.64957  0.79687  Biso   1.000  C
  C4206    1.0000 0.37727  0.64149  0.82699  Biso   1.000  C
  C4207    1.0000 0.43797  0.58365  0.77018  Biso   1.000  C
  C4208    1.0000 0.42787  0.61255  0.75911  Biso   1.000  C
  C4209    1.0000 0.80486  0.01631  0.99264  Biso   1.000  C
  C4210    1.0000 0.47245  0.16931  0.30027  Biso   1.000  C
  C4211    1.0000 0.38751  0.14971  0.29679  Biso   1.000  C
  C4212    1.0000 0.37701  0.14159  0.32699  Biso   1.000  C
  C4213    1.0000 0.43761  0.08336  0.26872  Biso   1.000  C
  C4214    1.0000 0.42677  0.11147  0.25626  Biso   1.000  C
  C4215    1.0000 0.94471  0.01819  0.75586  Biso   1.000  C
  C4216    1.0000 0.27906  0.16874  0.44790  Biso   1.000  C
  C4217    1.0000 0.36344  0.15029  0.45285  Biso   1.000  C
  C4218    1.0000 0.37417  0.14246  0.42265  Biso   1.000  C
  C4219    1.0000 0.31431  0.08240  0.48170  Biso   1.000  C
  C4220    1.0000 0.32575  0.11011  0.49414  Biso   1.000  C
  C4221    1.0000 0.94657  0.51695  0.25690  Biso   1.000  C
  C4222    1.0000 0.27825  0.66795  0.94906  Biso   1.000  C
  C4223    1.0000 0.36411  0.65144  0.95227  Biso   1.000  C
  C4224    1.0000 0.37440  0.64217  0.92232  Biso   1.000  C
  C4225    1.0000 0.31528  0.58286  0.98169  Biso   1.000  C
  C4226    1.0000 0.32719  0.61079  0.99325  Biso   1.000  C
  C4227    1.0000 0.44560  0.01614  0.25757  Biso   1.000  C
  C4228    1.0000 0.77850  0.16814  0.94843  Biso   1.000  C
  C4229    1.0000 0.86280  0.14976  0.95189  Biso   1.000  C
  C4230    1.0000 0.87337  0.14212  0.92168  Biso   1.000  C
  C4231    1.0000 0.81395  0.08209  0.98190  Biso   1.000  C
  C4232    1.0000 0.82538  0.10984  0.99421  Biso   1.000  C
  C4233    1.0000 0.44639  0.51716  0.75615  Biso   1.000  C
  C4234    1.0000 0.77743  0.66877  0.44890  Biso   1.000  C
  C4235    1.0000 0.86229  0.65195  0.45199  Biso   1.000  C
  C4236    1.0000 0.87260  0.64427  0.42153  Biso   1.000  C
  C4237    1.0000 0.81377  0.58252  0.47993  Biso   1.000  C
  C4238    1.0000 0.82426  0.61093  0.49189  Biso   1.000  C
  C4239    1.0000 0.44501  0.73530  0.49213  Biso   1.000  C
  C4240    1.0000 0.77843  0.58075  0.80188  Biso   1.000  C
  C4241    1.0000 0.86249  0.59826  0.79688  Biso   1.000  C
  C4242    1.0000 0.87261  0.60496  0.82758  Biso   1.000  C
  C4243    1.0000 0.81702  0.66852  0.76857  Biso   1.000  C
  C4244    1.0000 0.82652  0.63969  0.75719  Biso   1.000  C
  C4245    1.0000 0.44571  0.23478  0.99203  Biso   1.000  C
  C4246    1.0000 0.77782  0.08174  0.30056  Biso   1.000  C
  C4247    1.0000 0.86309  0.09858  0.29682  Biso   1.000  C
  C4248    1.0000 0.87283  0.10532  0.32765  Biso   1.000  C
  C4249    1.0000 0.81437  0.16739  0.27041  Biso   1.000  C
  C4250    1.0000 0.82650  0.13957  0.25895  Biso   1.000  C
  C4251    1.0000 0.94502  0.73471  0.99137  Biso   1.000  C
  C4252    1.0000 0.27935  0.57981  0.30259  Biso   1.000  C
  C4253    1.0000 0.36312  0.60191  0.29618  Biso   1.000  C
  C4254    1.0000 0.37246  0.60912  0.32702  Biso   1.000  C
  C4255    1.0000 0.31458  0.66871  0.26921  Biso   1.000  C
  C4256    1.0000 0.32352  0.63978  0.25766  Biso   1.000  C
  C4257    1.0000 0.94612  0.23482  0.49148  Biso   1.000  C
  C4258    1.0000 0.27737  0.08025  0.80030  Biso   1.000  C
  C4259    1.0000 0.36287  0.09924  0.79688  Biso   1.000  C
  C4260    1.0000 0.37300  0.10592  0.82762  Biso   1.000  C
  C4261    1.0000 0.31421  0.16807  0.77085  Biso   1.000  C
  C4262    1.0000 0.32552  0.13994  0.75914  Biso   1.000  C
  C4263    1.0000 0.25792  0.80399  0.23437  Biso   1.000  C
  C4264    1.0000 0.95008  0.47225  0.08129  Biso   1.000  C
  C4265    1.0000 0.95234  0.38891  0.10075  Biso   1.000  C
  C4266    1.0000 0.92154  0.37920  0.10771  Biso   1.000  C
  C4267    1.0000 0.98285  0.43522  0.16917  Biso   1.000  C
  C4268    1.0000 0.99326  0.42373  0.14061  Biso   1.000  C
  C4269    1.0000 0.25711  0.30081  0.73479  Biso   1.000  C
  C4270    1.0000 0.94888  0.97231  0.58014  Biso   1.000  C
  C4271    1.0000 0.95342  0.88830  0.60089  Biso   1.000  C
  C4272    1.0000 0.92277  0.87801  0.60760  Biso   1.000  C
  C4273    1.0000 0.98189  0.93805  0.66799  Biso   1.000  C
  C4274    1.0000 0.99260  0.92721  0.63906  Biso   1.000  C
  C4275    1.0000 0.75996  0.80374  0.73593  Biso   1.000  C
  C4276    1.0000 0.44842  0.47154  0.58099  Biso   1.000  C
  C4277    1.0000 0.45157  0.38881  0.60121  Biso   1.000  C
  C4278    1.0000 0.42086  0.37924  0.60849  Biso   1.000  C
  C4279    1.0000 0.48086  0.43386  0.66870  Biso   1.000  C
  C4280    1.0000 0.49299  0.42355  0.64029  Biso   1.000  C
  C4281    1.0000 0.75781  0.30215  0.23492  Biso   1.000  C
  C4282    1.0000 0.44834  0.97144  0.08155  Biso   1.000  C
  C4283    1.0000 0.45403  0.88819  0.10054  Biso   1.000  C
  C4284    1.0000 0.42343  0.87815  0.10766  Biso   1.000  C
  C4285    1.0000 0.48239  0.93693  0.16762  Biso   1.000  C
  C4286    1.0000 0.49353  0.92685  0.13867  Biso   1.000  C
  C4287    1.0000 0.99328  0.30329  0.51557  Biso   1.000  C
  C4288    1.0000 0.30147  0.97147  0.66962  Biso   1.000  C
  C4289    1.0000 0.29686  0.88800  0.64878  Biso   1.000  C
  C4290    1.0000 0.32758  0.87901  0.64084  Biso   1.000  C
  C4291    1.0000 0.26962  0.93841  0.58337  Biso   1.000  C
  C4292    1.0000 0.25895  0.92790  0.61227  Biso   1.000  C
  C4293    1.0000 0.99343  0.80413  0.01532  Biso   1.000  C
  C4294    1.0000 0.30183  0.47047  0.17101  Biso   1.000  C
  C4295    1.0000 0.29623  0.38617  0.14866  Biso   1.000  C
  C4296    1.0000 0.32684  0.37640  0.14096  Biso   1.000  C
  C4297    1.0000 0.27000  0.43779  0.08397  Biso   1.000  C
  C4298    1.0000 0.25894  0.42737  0.11282  Biso   1.000  C
  C4299    1.0000 0.49315  0.30354  0.01565  Biso   1.000  C
  C4300    1.0000 0.80067  0.97290  0.17035  Biso   1.000  C
  C4301    1.0000 0.79746  0.88698  0.14992  Biso   1.000  C
  C4302    1.0000 0.82791  0.87696  0.14176  Biso   1.000  C
  C4303    1.0000 0.76944  0.93735  0.08290  Biso   1.000  C
  C4304    1.0000 0.75855  0.92540  0.11110  Biso   1.000  C
  C4305    1.0000 0.49462  0.80251  0.51708  Biso   1.000  C
  C4306    1.0000 0.80160  0.47038  0.66928  Biso   1.000  C
  C4307    1.0000 0.79551  0.38626  0.64693  Biso   1.000  C
  C4308    1.0000 0.82610  0.37656  0.63928  Biso   1.000  C
  C4309    1.0000 0.77053  0.43823  0.58295  Biso   1.000  C
  C4310    1.0000 0.75890  0.42773  0.61156  Biso   1.000  C
  C4311    1.0000 0.75752  0.94615  0.01621  Biso   1.000  C
  C4312    1.0000 0.44770  0.27919  0.17010  Biso   1.000  C
  C4313    1.0000 0.45280  0.36236  0.15000  Biso   1.000  C
  C4314    1.0000 0.42200  0.37260  0.14364  Biso   1.000  C
  C4315    1.0000 0.48245  0.31296  0.08219  Biso   1.000  C
  C4316    1.0000 0.49427  0.32438  0.11024  Biso   1.000  C
  C4317    1.0000 0.75798  0.44684  0.51593  Biso   1.000  C
  C4318    1.0000 0.44819  0.77831  0.66971  Biso   1.000  C
  C4319    1.0000 0.45293  0.86325  0.64933  Biso   1.000  C
  C4320    1.0000 0.42294  0.87458  0.64166  Biso   1.000  C
  C4321    1.0000 0.48292  0.81282  0.58276  Biso   1.000  C
  C4322    1.0000 0.49337  0.82198  0.61206  Biso   1.000  C
  C4323    1.0000 0.25687  0.94565  0.51716  Biso   1.000  C
  C4324    1.0000 0.94702  0.27974  0.66988  Biso   1.000  C
  C4325    1.0000 0.95164  0.36288  0.65027  Biso   1.000  C
  C4326    1.0000 0.92097  0.37293  0.64340  Biso   1.000  C
  C4327    1.0000 0.98184  0.31337  0.58212  Biso   1.000  C
  C4328    1.0000 0.99294  0.32539  0.61021  Biso   1.000  C
  C4329    1.0000 0.25692  0.44443  0.01698  Biso   1.000  C
  C4330    1.0000 0.94860  0.77869  0.16929  Biso   1.000  C
  C4331    1.0000 0.95335  0.86205  0.14928  Biso   1.000  C
  C4332    1.0000 0.92266  0.87264  0.14308  Biso   1.000  C
  C4333    1.0000 0.98275  0.81243  0.08157  Biso   1.000  C
  C4334    1.0000 0.99468  0.82391  0.10951  Biso   1.000  C
  C4335    1.0000 0.49205  0.44479  0.73490  Biso   1.000  C
  C4336    1.0000 0.80122  0.77922  0.58083  Biso   1.000  C
  C4337    1.0000 0.79731  0.86121  0.60221  Biso   1.000  C
  C4338    1.0000 0.82816  0.87133  0.60816  Biso   1.000  C
  C4339    1.0000 0.76811  0.81361  0.66900  Biso   1.000  C
  C4340    1.0000 0.75511  0.82536  0.64155  Biso   1.000  C
  C4341    1.0000 0.49464  0.94802  0.23327  Biso   1.000  C
  C4342    1.0000 0.80160  0.27843  0.08102  Biso   1.000  C
  C4343    1.0000 0.79648  0.36185  0.10103  Biso   1.000  C
  C4344    1.0000 0.82695  0.37210  0.10870  Biso   1.000  C
  C4345    1.0000 0.76789  0.31144  0.16792  Biso   1.000  C
  C4346    1.0000 0.75589  0.32210  0.13951  Biso   1.000  C
  C4347    1.0000 0.99316  0.44455  0.23499  Biso   1.000  C
  C4348    1.0000 0.30121  0.77815  0.08120  Biso   1.000  C
  C4349    1.0000 0.29818  0.86351  0.09900  Biso   1.000  C
  C4350    1.0000 0.32887  0.87280  0.10627  Biso   1.000  C
  C4351    1.0000 0.26974  0.81822  0.16911  Biso   1.000  C
  C4352    1.0000 0.25732  0.82939  0.14108  Biso   1.000  C
  C4353    1.0000 0.99226  0.94707  0.73475  Biso   1.000  C
  C4354    1.0000 0.29990  0.27841  0.58100  Biso   1.000  C
  C4355    1.0000 0.29603  0.36307  0.60130  Biso   1.000  C
  C4356    1.0000 0.32647  0.37368  0.60767  Biso   1.000  C
  C4357    1.0000 0.26769  0.31148  0.66834  Biso   1.000  C
  C4358    1.0000 0.25509  0.32391  0.64107  Biso   1.000  C
  C4359    1.0000 0.00580  0.48372  0.69566  Biso   1.000  C
  C4360    1.0000 0.69888  0.33138  0.02740  Biso   1.000  C
  C4361    1.0000 0.70227  0.34834  0.11275  Biso   1.000  C
  C4362    1.0000 0.67249  0.35779  0.12319  Biso   1.000  C
  C4363    1.0000 0.73103  0.41720  0.06479  Biso   1.000  C
  C4364    1.0000 0.74251  0.38937  0.07708  Biso   1.000  C
  C4365    1.0000 0.00707  0.98350  0.19723  Biso   1.000  C
  C4366    1.0000 0.70010  0.83137  0.52787  Biso   1.000  C
  C4367    1.0000 0.70196  0.85136  0.61200  Biso   1.000  C
  C4368    1.0000 0.67112  0.85805  0.62179  Biso   1.000  C
  C4369    1.0000 0.73341  0.91917  0.56556  Biso   1.000  C
  C4370    1.0000 0.74534  0.89120  0.57700  Biso   1.000  C
  C4371    1.0000 0.50704  0.48352  0.19559  Biso   1.000  C
  C4372    1.0000 0.19738  0.32976  0.53033  Biso   1.000  C
  C4373    1.0000 0.20165  0.35087  0.61251  Biso   1.000  C
  C4374    1.0000 0.17101  0.35812  0.62230  Biso   1.000  C
  C4375    1.0000 0.23160  0.41950  0.56778  Biso   1.000  C
  C4376    1.0000 0.24350  0.39129  0.57856  Biso   1.000  C
  C4377    1.0000 0.50622  0.98377  0.69770  Biso   1.000  C
  C4378    1.0000 0.19945  0.83090  0.02862  Biso   1.000  C
  C4379    1.0000 0.20362  0.85236  0.11093  Biso   1.000  C
  C4380    1.0000 0.17291  0.85840  0.12126  Biso   1.000  C
  C4381    1.0000 0.23304  0.91856  0.06102  Biso   1.000  C
  C4382    1.0000 0.24534  0.89087  0.07281  Biso   1.000  C
  C4383    1.0000 0.74496  0.76638  0.19720  Biso   1.000  C
  C4384    1.0000 0.05130  0.91850  0.52783  Biso   1.000  C
  C4385    1.0000 0.04672  0.89896  0.61274  Biso   1.000  C
  C4386    1.0000 0.07783  0.89280  0.62191  Biso   1.000  C
  C4387    1.0000 0.01916  0.83284  0.56505  Biso   1.000  C
  C4388    1.0000 0.00788  0.86211  0.57345  Biso   1.000  C
  C4389    1.0000 0.74355  0.26619  0.69723  Biso   1.000  C
  C4390    1.0000 0.05258  0.41830  0.02960  Biso   1.000  C
  C4391    1.0000 0.04718  0.39915  0.11329  Biso   1.000  C
  C4392    1.0000 0.07791  0.39251  0.12359  Biso   1.000  C
  C4393    1.0000 0.01817  0.33178  0.06382  Biso   1.000  C
  C4394    1.0000 0.00581  0.35944  0.07555  Biso   1.000  C
  C4395    1.0000 0.24334  0.76601  0.69631  Biso   1.000  C
  C4396    1.0000 0.55141  0.91886  0.02720  Biso   1.000  C
  C4397    1.0000 0.54695  0.89841  0.11266  Biso   1.000  C
  C4398    1.0000 0.57769  0.89102  0.12256  Biso   1.000  C
  C4399    1.0000 0.52118  0.83263  0.06575  Biso   1.000  C
  C4400    1.0000 0.50940  0.86204  0.07329  Biso   1.000  C
  C4401    1.0000 0.24392  0.26629  0.19847  Biso   1.000  C
  C4402    1.0000 0.55103  0.41761  0.52881  Biso   1.000  C
  C4403    1.0000 0.54637  0.39944  0.61255  Biso   1.000  C
  C4404    1.0000 0.57711  0.39271  0.62279  Biso   1.000  C
  C4405    1.0000 0.51710  0.33104  0.56489  Biso   1.000  C
  C4406    1.0000 0.50431  0.35867  0.57608  Biso   1.000  C
  C4407    1.0000 0.50520  0.26725  0.55097  Biso   1.000  C
  C4408    1.0000 0.19878  0.41813  0.22285  Biso   1.000  C
  C4409    1.0000 0.20382  0.39827  0.13711  Biso   1.000  C
  C4410    1.0000 0.17308  0.39037  0.12802  Biso   1.000  C
  C4411    1.0000 0.23142  0.33088  0.18522  Biso   1.000  C
  C4412    1.0000 0.24256  0.35996  0.17601  Biso   1.000  C
  C4413    1.0000 0.50612  0.76675  0.05482  Biso   1.000  C
  C4414    1.0000 0.19780  0.92080  0.72163  Biso   1.000  C
  C4415    1.0000 0.20394  0.89868  0.63646  Biso   1.000  C
  C4416    1.0000 0.17305  0.89063  0.62747  Biso   1.000  C
  C4417    1.0000 0.22928  0.83165  0.68323  Biso   1.000  C
  C4418    1.0000 0.24083  0.86069  0.67397  Biso   1.000  C
  C4419    1.0000 0.00670  0.26613  0.05297  Biso   1.000  C
  C4420    1.0000 0.69885  0.41848  0.72175  Biso   1.000  C
  C4421    1.0000 0.70314  0.39892  0.63596  Biso   1.000  C
  C4422    1.0000 0.67228  0.39107  0.62735  Biso   1.000  C
  C4423    1.0000 0.73104  0.33081  0.68347  Biso   1.000  C
  C4424    1.0000 0.74194  0.36005  0.67429  Biso   1.000  C
  C4425    1.0000 0.00445  0.76724  0.55274  Biso   1.000  C
  C4426    1.0000 0.69951  0.91765  0.22279  Biso   1.000  C
  C4427    1.0000 0.70340  0.90107  0.13753  Biso   1.000  C
  C4428    1.0000 0.67279  0.89348  0.12761  Biso   1.000  C
  C4429    1.0000 0.73220  0.83087  0.18345  Biso   1.000  C
  C4430    1.0000 0.74334  0.85999  0.17440  Biso   1.000  C
  C4431    1.0000 0.24171  0.98583  0.05106  Biso   1.000  C
  C4432    1.0000 0.55221  0.83005  0.72202  Biso   1.000  C
  C4433    1.0000 0.54539  0.85152  0.63741  Biso   1.000  C
  C4434    1.0000 0.57612  0.85957  0.62808  Biso   1.000  C
  C4435    1.0000 0.52030  0.91753  0.68460  Biso   1.000  C
  C4436    1.0000 0.50848  0.88867  0.67532  Biso   1.000  C
  C4437    1.0000 0.24221  0.48457  0.55350  Biso   1.000  C
  C4438    1.0000 0.55057  0.33228  0.22294  Biso   1.000  C
  C4439    1.0000 0.54727  0.34894  0.13778  Biso   1.000  C
  C4440    1.0000 0.57746  0.35799  0.12811  Biso   1.000  C
  C4441    1.0000 0.51880  0.41798  0.18543  Biso   1.000  C
  C4442    1.0000 0.50643  0.39029  0.17386  Biso   1.000  C
  C4443    1.0000 0.74375  0.98426  0.55319  Biso   1.000  C
  C4444    1.0000 0.05172  0.83171  0.22155  Biso   1.000  C
  C4445    1.0000 0.04774  0.84959  0.13724  Biso   1.000  C
  C4446    1.0000 0.07830  0.85812  0.12809  Biso   1.000  C
  C4447    1.0000 0.01813  0.91874  0.18331  Biso   1.000  C
  C4448    1.0000 0.00600  0.89073  0.17236  Biso   1.000  C
  C4449    1.0000 0.74291  0.48297  0.05439  Biso   1.000  C
  C4450    1.0000 0.05036  0.33276  0.72202  Biso   1.000  C
  C4451    1.0000 0.04593  0.35056  0.63818  Biso   1.000  C
  C4452    1.0000 0.07652  0.35879  0.62905  Biso   1.000  C
  C4453    1.0000 0.01724  0.41837  0.68647  Biso   1.000  C
  C4454    1.0000 0.00502  0.39083  0.67451  Biso   1.000  C
  C4455    1.0000 0.98432  0.05370  0.24285  Biso   1.000  C
  C4456    1.0000 0.83039  0.72267  0.55077  Biso   1.000  C
  C4457    1.0000 0.84936  0.63674  0.54657  Biso   1.000  C
  C4458    1.0000 0.85661  0.62821  0.57770  Biso   1.000  C
  C4459    1.0000 0.91876  0.68377  0.51705  Biso   1.000  C
  C4460    1.0000 0.88962  0.67462  0.50604  Biso   1.000  C
  C4461    1.0000 0.98385  0.55324  0.74378  Biso   1.000  C
  C4462    1.0000 0.83192  0.22285  0.04967  Biso   1.000  C
  C4463    1.0000 0.85175  0.13809  0.04660  Biso   1.000  C
  C4464    1.0000 0.85762  0.12795  0.07747  Biso   1.000  C
  C4465    1.0000 0.91831  0.18564  0.01740  Biso   1.000  C
  C4466    1.0000 0.89074  0.17401  0.00482  Biso   1.000  C
  C4467    1.0000 0.48442  0.05445  0.74297  Biso   1.000  C
  C4468    1.0000 0.33143  0.72382  0.04962  Biso   1.000  C
  C4469    1.0000 0.35188  0.63861  0.04676  Biso   1.000  C
  C4470    1.0000 0.35724  0.62805  0.07766  Biso   1.000  C
  C4471    1.0000 0.41983  0.68487  0.01779  Biso   1.000  C
  C4472    1.0000 0.39096  0.67591  0.00597  Biso   1.000  C
  C4473    1.0000 0.48476  0.55443  0.24196  Biso   1.000  C
  C4474    1.0000 0.33035  0.22336  0.54988  Biso   1.000  C
  C4475    1.0000 0.34974  0.13780  0.54742  Biso   1.000  C
  C4476    1.0000 0.35693  0.12752  0.57803  Biso   1.000  C
  C4477    1.0000 0.41976  0.18320  0.51702  Biso   1.000  C
  C4478    1.0000 0.39080  0.17386  0.50588  Biso   1.000  C
  C4479    1.0000 0.26626  0.55515  0.50684  Biso   1.000  C
  C4480    1.0000 0.42207  0.22212  0.19861  Biso   1.000  C
  C4481    1.0000 0.39743  0.13779  0.20371  Biso   1.000  C
  C4482    1.0000 0.39028  0.12815  0.17279  Biso   1.000  C
  C4483    1.0000 0.33300  0.18608  0.22977  Biso   1.000  C
  C4484    1.0000 0.36183  0.17810  0.24209  Biso   1.000  C
  C4485    1.0000 0.26721  0.05318  0.00406  Biso   1.000  C
  C4486    1.0000 0.41865  0.72242  0.69849  Biso   1.000  C
  C4487    1.0000 0.39860  0.63651  0.70409  Biso   1.000  C
  C4488    1.0000 0.39117  0.62665  0.67331  Biso   1.000  C
  C4489    1.0000 0.33291  0.68673  0.73117  Biso   1.000  C
  C4490    1.0000 0.36166  0.67672  0.74264  Biso   1.000  C
  C4491    1.0000 0.76564  0.55154  0.00739  Biso   1.000  C
  C4492    1.0000 0.92177  0.22304  0.69866  Biso   1.000  C
  C4493    1.0000 0.89813  0.13871  0.70350  Biso   1.000  C
  C4494    1.0000 0.89106  0.12867  0.67269  Biso   1.000  C
  C4495    1.0000 0.83322  0.18682  0.72991  Biso   1.000  C
  C4496    1.0000 0.86214  0.17905  0.74212  Biso   1.000  C
  C4497    1.0000 0.76758  0.05288  0.50461  Biso   1.000  C
  C4498    1.0000 0.92277  0.72137  0.19756  Biso   1.000  C
  C4499    1.0000 0.89865  0.63680  0.20341  Biso   1.000  C
  C4500    1.0000 0.89088  0.62754  0.17256  Biso   1.000  C
  C4501    1.0000 0.83288  0.68590  0.23209  Biso   1.000  C
  C4502    1.0000 0.86201  0.67599  0.24265  Biso   1.000  C
  C4503    1.0000 0.76472  0.19549  0.74173  Biso   1.000  C
  C4504    1.0000 0.92127  0.52941  0.05239  Biso   1.000  C
  C4505    1.0000 0.90023  0.61394  0.04697  Biso   1.000  C
  C4506    1.0000 0.89193  0.62389  0.07722  Biso   1.000  C
  C4507    1.0000 0.83131  0.56385  0.01867  Biso   1.000  C
  C4508    1.0000 0.85993  0.57534  0.00867  Biso   1.000  C
  C4509    1.0000 0.76764  0.69922  0.24480  Biso   1.000  C
  C4510    1.0000 0.92035  0.02971  0.55289  Biso   1.000  C
  C4511    1.0000 0.90080  0.11369  0.54692  Biso   1.000  C
  C4512    1.0000 0.89282  0.12391  0.57719  Biso   1.000  C
  C4513    1.0000 0.83296  0.06507  0.52099  Biso   1.000  C
  C4514    1.0000 0.86253  0.07340  0.51086  Biso   1.000  C
  C4515    1.0000 0.26433  0.19570  0.24124  Biso   1.000  C
  C4516    1.0000 0.42050  0.52907  0.55236  Biso   1.000  C
  C4517    1.0000 0.40068  0.61345  0.54738  Biso   1.000  C
  C4518    1.0000 0.39317  0.62405  0.57775  Biso   1.000  C
  C4519    1.0000 0.33229  0.56314  0.51856  Biso   1.000  C
  C4520    1.0000 0.36097  0.57360  0.50761  Biso   1.000  C
  C4521    1.0000 0.26822  0.69873  0.74502  Biso   1.000  C
  C4522    1.0000 0.42081  0.02890  0.05354  Biso   1.000  C
  C4523    1.0000 0.40108  0.11301  0.04729  Biso   1.000  C
  C4524    1.0000 0.39287  0.12347  0.07739  Biso   1.000  C
  C4525    1.0000 0.33330  0.06414  0.02028  Biso   1.000  C
  C4526    1.0000 0.36310  0.07224  0.01067  Biso   1.000  C
  C4527    1.0000 0.48572  0.69830  0.00857  Biso   1.000  C
  C4528    1.0000 0.32945  0.02730  0.70001  Biso   1.000  C
  C4529    1.0000 0.34941  0.11407  0.70334  Biso   1.000  C
  C4530    1.0000 0.35789  0.12408  0.67317  Biso   1.000  C
  C4531    1.0000 0.41816  0.06484  0.73160  Biso   1.000  C
  C4532    1.0000 0.38946  0.07601  0.74182  Biso   1.000  C
  C4533    1.0000 0.48546  0.19772  0.50839  Biso   1.000  C
  C4534    1.0000 0.32904  0.52922  0.19822  Biso   1.000  C
  C4535    1.0000 0.35115  0.61391  0.20366  Biso   1.000  C
  C4536    1.0000 0.35868  0.62314  0.17282  Biso   1.000  C
  C4537    1.0000 0.41735  0.56373  0.23018  Biso   1.000  C
  C4538    1.0000 0.38858  0.57515  0.24036  Biso   1.000  C
  C4539    1.0000 0.98523  0.69763  0.50775  Biso   1.000  C
  C4540    1.0000 0.83024  0.02830  0.19879  Biso   1.000  C
  C4541    1.0000 0.85008  0.11313  0.20293  Biso   1.000  C
  C4542    1.0000 0.85694  0.12326  0.17221  Biso   1.000  C
  C4543    1.0000 0.91821  0.06369  0.23070  Biso   1.000  C
  C4544    1.0000 0.88962  0.07415  0.24201  Biso   1.000  C
  C4545    1.0000 0.98507  0.19688  0.00758  Biso   1.000  C
  C4546    1.0000 0.82965  0.52765  0.69876  Biso   1.000  C
  C4547    1.0000 0.84996  0.61221  0.70297  Biso   1.000  C
  C4548    1.0000 0.85845  0.62186  0.67251  Biso   1.000  C
  C4549    1.0000 0.91687  0.56439  0.72967  Biso   1.000  C
  C4550    1.0000 0.88724  0.57232  0.74001  Biso   1.000  C
  C4551    1.0000 0.55101  0.50710  0.26661  Biso   1.000  C
  C4552    1.0000 0.22247  0.19902  0.41947  Biso   1.000  C
  C4553    1.0000 0.13646  0.20287  0.39906  Biso   1.000  C
  C4554    1.0000 0.12604  0.17269  0.39036  Biso   1.000  C
  C4555    1.0000 0.18945  0.22999  0.33391  Biso   1.000  C
  C4556    1.0000 0.17940  0.24294  0.36200  Biso   1.000  C
  C4557    1.0000 0.55191  0.00602  0.76652  Biso   1.000  C
  C4558    1.0000 0.22262  0.69872  0.91846  Biso   1.000  C
  C4559    1.0000 0.13715  0.70267  0.90162  Biso   1.000  C
  C4560    1.0000 0.12700  0.67267  0.89258  Biso   1.000  C
  C4561    1.0000 0.18578  0.73159  0.83241  Biso   1.000  C
  C4562    1.0000 0.17392  0.74330  0.86039  Biso   1.000  C
  C4563    1.0000 0.05160  0.50729  0.76706  Biso   1.000  C
  C4564    1.0000 0.72206  0.19872  0.91862  Biso   1.000  C
  C4565    1.0000 0.63757  0.20238  0.90139  Biso   1.000  C
  C4566    1.0000 0.62739  0.17191  0.89356  Biso   1.000  C
  C4567    1.0000 0.68667  0.23120  0.83193  Biso   1.000  C
  C4568    1.0000 0.67492  0.24317  0.85986  Biso   1.000  C
  C4569    1.0000 0.05483  0.00638  0.26537  Biso   1.000  C
  C4570    1.0000 0.72253  0.69998  0.41894  Biso   1.000  C
  C4571    1.0000 0.63778  0.70280  0.40140  Biso   1.000  C
  C4572    1.0000 0.62796  0.67276  0.39205  Biso   1.000  C
  C4573    1.0000 0.68605  0.73223  0.33293  Biso   1.000  C
  C4574    1.0000 0.67427  0.74405  0.36082  Biso   1.000  C
  C4575    1.0000 0.05318  0.24312  0.98348  Biso   1.000  C
  C4576    1.0000 0.72094  0.55160  0.83011  Biso   1.000  C
  C4577    1.0000 0.63656  0.54626  0.84888  Biso   1.000  C
  C4578    1.0000 0.62711  0.57719  0.85553  Biso   1.000  C
  C4579    1.0000 0.68602  0.51801  0.91801  Biso   1.000  C
  C4580    1.0000 0.67473  0.50747  0.88938  Biso   1.000  C
  C4581    1.0000 0.05433  0.74228  0.48446  Biso   1.000  C
  C4582    1.0000 0.72122  0.05206  0.32940  Biso   1.000  C
  C4583    1.0000 0.63731  0.04700  0.34790  Biso   1.000  C
  C4584    1.0000 0.62771  0.07783  0.35464  Biso   1.000  C
  C4585    1.0000 0.68602  0.01849  0.41766  Biso   1.000  C
  C4586    1.0000 0.67476  0.00818  0.38895  Biso   1.000  C
  C4587    1.0000 0.55405  0.24100  0.48469  Biso   1.000  C
  C4588    1.0000 0.22156  0.55153  0.33072  Biso   1.000  C
  C4589    1.0000 0.13830  0.54674  0.34966  Biso   1.000  C
  C4590    1.0000 0.12845  0.57770  0.35573  Biso   1.000  C
  C4591    1.0000 0.18612  0.51615  0.41916  Biso   1.000  C
  C4592    1.0000 0.17564  0.50507  0.39044  Biso   1.000  C
  C4593    1.0000 0.55455  0.74230  0.98439  Biso   1.000  C
  C4594    1.0000 0.22119  0.05198  0.82925  Biso   1.000  C
  C4595    1.0000 0.13586  0.04659  0.84819  Biso   1.000  C
  C4596    1.0000 0.12717  0.07770  0.85546  Biso   1.000  C
  C4597    1.0000 0.18511  0.02163  0.91670  Biso   1.000  C
  C4598    1.0000 0.17404  0.01125  0.88785  Biso   1.000  C
  C4599    1.0000 0.69679  0.00825  0.48447  Biso   1.000  C
  C4600    1.0000 0.02973  0.69730  0.32923  Biso   1.000  C
  C4601    1.0000 0.11356  0.70331  0.35055  Biso   1.000  C
  C4602    1.0000 0.12329  0.67245  0.35660  Biso   1.000  C
  C4603    1.0000 0.06373  0.73124  0.41743  Biso   1.000  C
  C4604    1.0000 0.07407  0.74161  0.38837  Biso   1.000  C
  C4605    1.0000 0.69608  0.50644  0.98404  Biso   1.000  C
  C4606    1.0000 0.02747  0.19901  0.83225  Biso   1.000  C
  C4607    1.0000 0.11195  0.20325  0.84817  Biso   1.000  C
  C4608    1.0000 0.12229  0.17319  0.85698  Biso   1.000  C
  C4609    1.0000 0.06582  0.23249  0.91836  Biso   1.000  C
  C4610    1.0000 0.07651  0.24484  0.89030  Biso   1.000  C
  C4611    1.0000 0.19465  0.00785  0.98299  Biso   1.000  C
  C4612    1.0000 0.52988  0.69732  0.82936  Biso   1.000  C
  C4613    1.0000 0.61412  0.70263  0.85055  Biso   1.000  C
  C4614    1.0000 0.62376  0.67180  0.85694  Biso   1.000  C
  C4615    1.0000 0.56367  0.73107  0.91717  Biso   1.000  C
  C4616    1.0000 0.57442  0.74116  0.88817  Biso   1.000  C
  C4617    1.0000 0.19773  0.50622  0.48484  Biso   1.000  C
  C4618    1.0000 0.52832  0.19895  0.33118  Biso   1.000  C
  C4619    1.0000 0.61316  0.20289  0.34821  Biso   1.000  C
  C4620    1.0000 0.62252  0.17227  0.35619  Biso   1.000  C
  C4621    1.0000 0.56465  0.23087  0.41801  Biso   1.000  C
  C4622    1.0000 0.57650  0.24309  0.39028  Biso   1.000  C
  C4623    1.0000 0.19580  0.74271  0.76579  Biso   1.000  C
  C4624    1.0000 0.52907  0.05110  0.92007  Biso   1.000  C
  C4625    1.0000 0.61185  0.04658  0.89968  Biso   1.000  C
  C4626    1.0000 0.62182  0.07734  0.89282  Biso   1.000  C
  C4627    1.0000 0.56564  0.01581  0.83091  Biso   1.000  C
  C4628    1.0000 0.57642  0.00364  0.85893  Biso   1.000  C
  C4629    1.0000 0.19611  0.24213  0.26707  Biso   1.000  C
  C4630    1.0000 0.52725  0.55150  0.41879  Biso   1.000  C
  C4631    1.0000 0.61188  0.54676  0.39827  Biso   1.000  C
  C4632    1.0000 0.62181  0.57755  0.39130  Biso   1.000  C
  C4633    1.0000 0.56328  0.51859  0.33285  Biso   1.000  C
  C4634    1.0000 0.57329  0.50689  0.36160  Biso   1.000  C
  C4635    1.0000 0.69565  0.74322  0.26615  Biso   1.000  C
  C4636    1.0000 0.02726  0.05006  0.41949  Biso   1.000  C
  C4637    1.0000 0.11321  0.04753  0.40154  Biso   1.000  C
  C4638    1.0000 0.12418  0.07771  0.39419  Biso   1.000  C
  C4639    1.0000 0.06443  0.01720  0.33201  Biso   1.000  C
  C4640    1.0000 0.07634  0.00600  0.36018  Biso   1.000  C
  C4641    1.0000 0.69643  0.24206  0.76546  Biso   1.000  C
  C4642    1.0000 0.02773  0.55149  0.92041  Biso   1.000  C
  C4643    1.0000 0.11356  0.54677  0.89971  Biso   1.000  C
  C4644    1.0000 0.12398  0.57733  0.89256  Biso   1.000  C
  C4645    1.0000 0.06431  0.52016  0.83355  Biso   1.000  C
  C4646    1.0000 0.07407  0.50892  0.86259  Biso   1.000  C
  C4647    1.0000 0.76751  0.74281  0.19609  Biso   1.000  C
  C4648    1.0000 0.92030  0.05287  0.52957  Biso   1.000  C
  C4649    1.0000 0.89912  0.04635  0.61436  Biso   1.000  C
  C4650    1.0000 0.89270  0.07740  0.62353  Biso   1.000  C
  C4651    1.0000 0.83406  0.02136  0.56240  Biso   1.000  C
  C4652    1.0000 0.86192  0.00843  0.57354  Biso   1.000  C
  C4653    1.0000 0.76602  0.24242  0.69659  Biso   1.000  C
  C4654    1.0000 0.92032  0.55293  0.02938  Biso   1.000  C
  C4655    1.0000 0.89873  0.54641  0.11317  Biso   1.000  C
  C4656    1.0000 0.89201  0.57716  0.12289  Biso   1.000  C
  C4657    1.0000 0.83344  0.51838  0.06363  Biso   1.000  C
  C4658    1.0000 0.86240  0.50719  0.07342  Biso   1.000  C
  C4659    1.0000 0.26553  0.74208  0.69532  Biso   1.000  C
  C4660    1.0000 0.42084  0.05211  0.03012  Biso   1.000  C
  C4661    1.0000 0.39751  0.04613  0.11371  Biso   1.000  C
  C4662    1.0000 0.39156  0.07712  0.12324  Biso   1.000  C
  C4663    1.0000 0.33371  0.02048  0.06096  Biso   1.000  C
  C4664    1.0000 0.36145  0.00754  0.07233  Biso   1.000  C
  C4665    1.0000 0.26639  0.24258  0.19713  Biso   1.000  C
  C4666    1.0000 0.42060  0.55253  0.52917  Biso   1.000  C
  C4667    1.0000 0.39813  0.54611  0.61325  Biso   1.000  C
  C4668    1.0000 0.39199  0.57700  0.62289  Biso   1.000  C
  C4669    1.0000 0.33206  0.51914  0.56438  Biso   1.000  C
  C4670    1.0000 0.36102  0.50760  0.57400  Biso   1.000  C
  C4671    1.0000 0.48396  0.00785  0.69786  Biso   1.000  C
  C4672    1.0000 0.33197  0.70005  0.02689  Biso   1.000  C
  C4673    1.0000 0.34929  0.70245  0.11144  Biso   1.000  C
  C4674    1.0000 0.35847  0.67246  0.12161  Biso   1.000  C
  C4675    1.0000 0.41771  0.73121  0.06418  Biso   1.000  C
  C4676    1.0000 0.38993  0.74355  0.07569  Biso   1.000  C
  C4677    1.0000 0.48402  0.50663  0.19752  Biso   1.000  C
  C4678    1.0000 0.33166  0.19942  0.52723  Biso   1.000  C
  C4679    1.0000 0.34800  0.20294  0.61142  Biso   1.000  C
  C4680    1.0000 0.35603  0.17252  0.62165  Biso   1.000  C
  C4681    1.0000 0.41649  0.23173  0.56229  Biso   1.000  C
  C4682    1.0000 0.38879  0.24411  0.57397  Biso   1.000  C
  C4683    1.0000 0.98485  0.00752  0.19754  Biso   1.000  C
  C4684    1.0000 0.83094  0.69934  0.52752  Biso   1.000  C
  C4685    1.0000 0.85126  0.70316  0.61151  Biso   1.000  C
  C4686    1.0000 0.85933  0.67307  0.62261  Biso   1.000  C
  C4687    1.0000 0.91608  0.73047  0.56145  Biso   1.000  C
  C4688    1.0000 0.88822  0.74391  0.57163  Biso   1.000  C
  C4689    1.0000 0.98267  0.50699  0.69645  Biso   1.000  C
  C4690    1.0000 0.83291  0.19904  0.02688  Biso   1.000  C
  C4691    1.0000 0.84943  0.20292  0.11135  Biso   1.000  C
  C4692    1.0000 0.85850  0.17291  0.12153  Biso   1.000  C
  C4693    1.0000 0.91865  0.23245  0.06498  Biso   1.000  C
  C4694    1.0000 0.89073  0.24500  0.07576  Biso   1.000  C
  C4695    1.0000 0.98288  0.24386  0.05164  Biso   1.000  C
  C4696    1.0000 0.82988  0.55079  0.72214  Biso   1.000  C
  C4697    1.0000 0.85093  0.54682  0.63797  Biso   1.000  C
  C4698    1.0000 0.85804  0.57755  0.62786  Biso   1.000  C
  C4699    1.0000 0.91544  0.52063  0.68897  Biso   1.000  C
  C4700    1.0000 0.88750  0.50804  0.67765  Biso   1.000  C
  C4701    1.0000 0.98217  0.74330  0.55348  Biso   1.000  C
  C4702    1.0000 0.83029  0.05230  0.22123  Biso   1.000  C
  C4703    1.0000 0.84944  0.04695  0.13726  Biso   1.000  C
  C4704    1.0000 0.85703  0.07764  0.12751  Biso   1.000  C
  C4705    1.0000 0.91883  0.01851  0.18516  Biso   1.000  C
  C4706    1.0000 0.89007  0.00726  0.17478  Biso   1.000  C
  C4707    1.0000 0.48260  0.24373  0.55256  Biso   1.000  C
  C4708    1.0000 0.32974  0.55322  0.22075  Biso   1.000  C
  C4709    1.0000 0.35118  0.54603  0.13781  Biso   1.000  C
  C4710    1.0000 0.35820  0.57685  0.12776  Biso   1.000  C
  C4711    1.0000 0.41769  0.51787  0.18692  Biso   1.000  C
  C4712    1.0000 0.38855  0.50711  0.17720  Biso   1.000  C
  C4713    1.0000 0.48374  0.74295  0.05559  Biso   1.000  C
  C4714    1.0000 0.32988  0.05140  0.72235  Biso   1.000  C
  C4715    1.0000 0.34971  0.04741  0.63877  Biso   1.000  C
  C4716    1.0000 0.35805  0.07796  0.62935  Biso   1.000  C
  C4717    1.0000 0.41658  0.02226  0.68724  Biso   1.000  C
  C4718    1.0000 0.38745  0.01111  0.67826  Biso   1.000  C
  C4719    1.0000 0.26593  0.50706  0.55279  Biso   1.000  C
  C4720    1.0000 0.42113  0.19876  0.22155  Biso   1.000  C
  C4721    1.0000 0.39920  0.20264  0.13827  Biso   1.000  C
  C4722    1.0000 0.39266  0.17192  0.12813  Biso   1.000  C
  C4723    1.0000 0.33291  0.23090  0.18849  Biso   1.000  C
  C4724    1.0000 0.36102  0.24348  0.17795  Biso   1.000  C
  C4725    1.0000 0.26575  0.00818  0.05166  Biso   1.000  C
  C4726    1.0000 0.42023  0.69868  0.72106  Biso   1.000  C
  C4727    1.0000 0.40071  0.70291  0.63807  Biso   1.000  C
  C4728    1.0000 0.39332  0.67178  0.63006  Biso   1.000  C
  C4729    1.0000 0.33099  0.73189  0.68440  Biso   1.000  C
  C4730    1.0000 0.35955  0.74247  0.67316  Biso   1.000  C
  C4731    1.0000 0.76681  0.50524  0.05267  Biso   1.000  C
  C4732    1.0000 0.92134  0.19987  0.72182  Biso   1.000  C
  C4733    1.0000 0.89892  0.20300  0.63829  Biso   1.000  C
  C4734    1.0000 0.89275  0.17225  0.62808  Biso   1.000  C
  C4735    1.0000 0.83251  0.23145  0.68853  Biso   1.000  C
  C4736    1.0000 0.86051  0.24402  0.67776  Biso   1.000  C
  C4737    1.0000 0.76712  0.00724  0.55349  Biso   1.000  C
  C4738    1.0000 0.92183  0.69795  0.22052  Biso   1.000  C
  C4739    1.0000 0.89927  0.70250  0.13762  Biso   1.000  C
  C4740    1.0000 0.89207  0.67178  0.12794  Biso   1.000  C
  C4741    1.0000 0.83392  0.72967  0.18697  Biso   1.000  C
  C4742    1.0000 0.86198  0.74272  0.17706  Biso   1.000  C
  C4743    1.0000 0.19592  0.76637  0.74301  Biso   1.000  C
  C4744    1.0000 0.52910  0.92069  0.05122  Biso   1.000  C
  C4745    1.0000 0.61219  0.90014  0.04735  Biso   1.000  C
  C4746    1.0000 0.62234  0.89440  0.07833  Biso   1.000  C
  C4747    1.0000 0.56339  0.83109  0.01885  Biso   1.000  C
  C4748    1.0000 0.57385  0.85947  0.00696  Biso   1.000  C
  C4749    1.0000 0.19601  0.26601  0.24448  Biso   1.000  C
  C4750    1.0000 0.52697  0.41740  0.55129  Biso   1.000  C
  C4751    1.0000 0.61255  0.40030  0.54727  Biso   1.000  C
  C4752    1.0000 0.62316  0.39207  0.57742  Biso   1.000  C
  C4753    1.0000 0.56598  0.33123  0.51899  Biso   1.000  C
  C4754    1.0000 0.57652  0.35976  0.50723  Biso   1.000  C
  C4755    1.0000 0.69603  0.76651  0.24304  Biso   1.000  C
  C4756    1.0000 0.02891  0.92041  0.55184  Biso   1.000  C
  C4757    1.0000 0.11308  0.89927  0.54663  Biso   1.000  C
  C4758    1.0000 0.12390  0.89120  0.57676  Biso   1.000  C
  C4759    1.0000 0.06292  0.83166  0.51836  Biso   1.000  C
  C4760    1.0000 0.07481  0.85930  0.50617  Biso   1.000  C
  C4761    1.0000 0.69600  0.26612  0.74305  Biso   1.000  C
  C4762    1.0000 0.02848  0.41813  0.05207  Biso   1.000  C
  C4763    1.0000 0.11393  0.39983  0.04762  Biso   1.000  C
  C4764    1.0000 0.12405  0.39123  0.07790  Biso   1.000  C
  C4765    1.0000 0.06678  0.33036  0.01801  Biso   1.000  C
  C4766    1.0000 0.07668  0.35928  0.00734  Biso   1.000  C
  C4767    1.0000 0.69654  0.48328  0.00724  Biso   1.000  C
  C4768    1.0000 0.02667  0.33274  0.69910  Biso   1.000  C
  C4769    1.0000 0.11321  0.35133  0.70444  Biso   1.000  C
  C4770    1.0000 0.12360  0.35932  0.67415  Biso   1.000  C
  C4771    1.0000 0.06510  0.41837  0.73147  Biso   1.000  C
  C4772    1.0000 0.07564  0.38958  0.74237  Biso   1.000  C
  C4773    1.0000 0.69746  0.98563  0.50820  Biso   1.000  C
  C4774    1.0000 0.02825  0.83191  0.19839  Biso   1.000  C
  C4775    1.0000 0.11424  0.85123  0.20361  Biso   1.000  C
  C4776    1.0000 0.12485  0.85928  0.17334  Biso   1.000  C
  C4777    1.0000 0.06454  0.91710  0.22953  Biso   1.000  C
  C4778    1.0000 0.07583  0.88862  0.24064  Biso   1.000  C
  C4779    1.0000 0.19580  0.48283  0.50764  Biso   1.000  C
  C4780    1.0000 0.52727  0.33218  0.19959  Biso   1.000  C
  C4781    1.0000 0.61177  0.35114  0.20401  Biso   1.000  C
  C4782    1.0000 0.62200  0.35770  0.17333  Biso   1.000  C
  C4783    1.0000 0.56553  0.41847  0.23099  Biso   1.000  C
  C4784    1.0000 0.57570  0.38963  0.24222  Biso   1.000  C
  C4785    1.0000 0.19494  0.98407  0.00552  Biso   1.000  C
  C4786    1.0000 0.52846  0.83100  0.69925  Biso   1.000  C
  C4787    1.0000 0.61350  0.85206  0.70405  Biso   1.000  C
  C4788    1.0000 0.62345  0.86030  0.67361  Biso   1.000  C
  C4789    1.0000 0.56278  0.91700  0.73075  Biso   1.000  C
  C4790    1.0000 0.57300  0.88911  0.74407  Biso   1.000  C
  C4791    1.0000 0.05573  0.98318  0.24227  Biso   1.000  C
  C4792    1.0000 0.72255  0.83192  0.55195  Biso   1.000  C
  C4793    1.0000 0.63762  0.84964  0.54787  Biso   1.000  C
  C4794    1.0000 0.62671  0.85874  0.57771  Biso   1.000  C
  C4795    1.0000 0.68737  0.91795  0.51768  Biso   1.000  C
  C4796    1.0000 0.67539  0.88993  0.50638  Biso   1.000  C
  C4797    1.0000 0.05118  0.48337  0.74476  Biso   1.000  C
  C4798    1.0000 0.72267  0.33138  0.05017  Biso   1.000  C
  C4799    1.0000 0.63868  0.35012  0.04798  Biso   1.000  C
  C4800    1.0000 0.62878  0.35711  0.07871  Biso   1.000  C
  C4801    1.0000 0.68397  0.41814  0.01826  Biso   1.000  C
  C4802    1.0000 0.67296  0.39032  0.00570  Biso   1.000  C
  C4803    1.0000 0.55343  0.98267  0.74373  Biso   1.000  C
  C4804    1.0000 0.22324  0.83103  0.05149  Biso   1.000  C
  C4805    1.0000 0.13830  0.85054  0.04680  Biso   1.000  C
  C4806    1.0000 0.12771  0.85847  0.07711  Biso   1.000  C
  C4807    1.0000 0.18474  0.91728  0.01919  Biso   1.000  C
  C4808    1.0000 0.17635  0.88809  0.00758  Biso   1.000  C
  C4809    1.0000 0.55127  0.48340  0.24400  Biso   1.000  C
  C4810    1.0000 0.22165  0.33102  0.55245  Biso   1.000  C
  C4811    1.0000 0.13651  0.35041  0.54809  Biso   1.000  C
  C4812    1.0000 0.12592  0.35875  0.57822  Biso   1.000  C
  C4813    1.0000 0.18739  0.41646  0.52060  Biso   1.000  C
  C4814    1.0000 0.17700  0.38827  0.50813  Biso   1.000  C
  C4815    1.0000 0.55281  0.26420  0.50787  Biso   1.000  C
  C4816    1.0000 0.22161  0.41932  0.19926  Biso   1.000  C
  C4817    1.0000 0.13693  0.39871  0.20415  Biso   1.000  C
  C4818    1.0000 0.12671  0.39048  0.17387  Biso   1.000  C
  C4819    1.0000 0.18662  0.33174  0.23285  Biso   1.000  C
  C4820    1.0000 0.17508  0.35940  0.24521  Biso   1.000  C
  C4821    1.0000 0.55297  0.76464  0.00846  Biso   1.000  C
  C4822    1.0000 0.22112  0.91998  0.69851  Biso   1.000  C
  C4823    1.0000 0.13674  0.89819  0.70344  Biso   1.000  C
  C4824    1.0000 0.12776  0.89111  0.67235  Biso   1.000  C
  C4825    1.0000 0.18711  0.83240  0.72988  Biso   1.000  C
  C4826    1.0000 0.17692  0.86034  0.74297  Biso   1.000  C
  C4827    1.0000 0.05254  0.26657  0.00629  Biso   1.000  C
  C4828    1.0000 0.72142  0.41956  0.69795  Biso   1.000  C
  C4829    1.0000 0.63685  0.39910  0.70319  Biso   1.000  C
  C4830    1.0000 0.62626  0.39060  0.67309  Biso   1.000  C
  C4831    1.0000 0.68663  0.33214  0.73135  Biso   1.000  C
  C4832    1.0000 0.67517  0.35981  0.74377  Biso   1.000  C
  C4833    1.0000 0.05228  0.76507  0.50800  Biso   1.000  C
  C4834    1.0000 0.72274  0.91744  0.19934  Biso   1.000  C
  C4835    1.0000 0.63807  0.89765  0.20403  Biso   1.000  C
  C4836    1.0000 0.62945  0.88993  0.17313  Biso   1.000  C
  C4837    1.0000 0.68725  0.83171  0.23117  Biso   1.000  C
  C4838    1.0000 0.67553  0.85905  0.24413  Biso   1.000  C
  C4839    1.0000 0.74129  0.19563  0.76440  Biso   1.000  C
  C4840    1.0000 0.05157  0.52890  0.92193  Biso   1.000  C
  C4841    1.0000 0.04714  0.61254  0.90143  Biso   1.000  C
  C4842    1.0000 0.07780  0.62254  0.89466  Biso   1.000  C
  C4843    1.0000 0.01849  0.56428  0.83277  Biso   1.000  C
  C4844    1.0000 0.00681  0.57445  0.86130  Biso   1.000  C
  C4845    1.0000 0.74350  0.69917  0.26688  Biso   1.000  C
  C4846    1.0000 0.05041  0.02675  0.41962  Biso   1.000  C
  C4847    1.0000 0.04662  0.11197  0.40132  Biso   1.000  C
  C4848    1.0000 0.07709  0.12156  0.39308  Biso   1.000  C
  C4849    1.0000 0.01804  0.06277  0.33204  Biso   1.000  C
  C4850    1.0000 0.00648  0.07382  0.36026  Biso   1.000  C
  C4851    1.0000 0.24033  0.19564  0.26332  Biso   1.000  C
  C4852    1.0000 0.55050  0.52819  0.41906  Biso   1.000  C
  C4853    1.0000 0.54726  0.61297  0.40038  Biso   1.000  C
  C4854    1.0000 0.57795  0.62291  0.39322  Biso   1.000  C
  C4855    1.0000 0.51804  0.56458  0.33251  Biso   1.000  C
  C4856    1.0000 0.50610  0.57647  0.36026  Biso   1.000  C
  C4857    1.0000 0.24437  0.69856  0.76744  Biso   1.000  C
  C4858    1.0000 0.55121  0.02686  0.91890  Biso   1.000  C
  C4859    1.0000 0.54588  0.11205  0.89870  Biso   1.000  C
  C4860    1.0000 0.57666  0.12166  0.89150  Biso   1.000  C
  C4861    1.0000 0.52119  0.06235  0.83447  Biso   1.000  C
  C4862    1.0000 0.50815  0.07200  0.86253  Biso   1.000  C
  C4863    1.0000 0.00941  0.69751  0.48582  Biso   1.000  C
  C4864    1.0000 0.69879  0.02801  0.32945  Biso   1.000  C
  C4865    1.0000 0.70301  0.11311  0.34938  Biso   1.000  C
  C4866    1.0000 0.67295  0.12363  0.35779  Biso   1.000  C
  C4867    1.0000 0.72810  0.06356  0.41573  Biso   1.000  C
  C4868    1.0000 0.73905  0.07251  0.38655  Biso   1.000  C
  C4869    1.0000 0.00829  0.19593  0.98431  Biso   1.000  C
  C4870    1.0000 0.69824  0.52770  0.82993  Biso   1.000  C
  C4871    1.0000 0.70331  0.61260  0.85007  Biso   1.000  C
  C4872    1.0000 0.67314  0.62276  0.85851  Biso   1.000  C
  C4873    1.0000 0.72782  0.56320  0.91686  Biso   1.000  C
  C4874    1.0000 0.73880  0.57202  0.88767  Biso   1.000  C
  C4875    1.0000 0.50937  0.69799  0.98605  Biso   1.000  C
  C4876    1.0000 0.19772  0.02895  0.82895  Biso   1.000  C
  C4877    1.0000 0.20314  0.11228  0.84897  Biso   1.000  C
  C4878    1.0000 0.17248  0.12274  0.85555  Biso   1.000  C
  C4879    1.0000 0.22751  0.06407  0.91628  Biso   1.000  C
  C4880    1.0000 0.23879  0.07175  0.88692  Biso   1.000  C
  C4881    1.0000 0.50760  0.19767  0.48440  Biso   1.000  C
  C4882    1.0000 0.19916  0.52739  0.33071  Biso   1.000  C
  C4883    1.0000 0.20360  0.61338  0.34899  Biso   1.000  C
  C4884    1.0000 0.17346  0.62388  0.35717  Biso   1.000  C
  C4885    1.0000 0.22910  0.56257  0.41718  Biso   1.000  C
  C4886    1.0000 0.23901  0.57361  0.38837  Biso   1.000  C
  C4887    1.0000 0.24311  0.05368  0.98210  Biso   1.000  C
  C4888    1.0000 0.55324  0.72045  0.82880  Biso   1.000  C
  C4889    1.0000 0.54717  0.63652  0.84844  Biso   1.000  C
  C4890    1.0000 0.57783  0.62692  0.85627  Biso   1.000  C
  C4891    1.0000 0.51907  0.68474  0.91849  Biso   1.000  C
  C4892    1.0000 0.50837  0.67388  0.88966  Biso   1.000  C
  C4893    1.0000 0.24251  0.55471  0.48431  Biso   1.000  C
  C4894    1.0000 0.55134  0.22252  0.33103  Biso   1.000  C
  C4895    1.0000 0.54745  0.13781  0.34868  Biso   1.000  C
  C4896    1.0000 0.57794  0.12742  0.35587  Biso   1.000  C
  C4897    1.0000 0.51980  0.18709  0.41616  Biso   1.000  C
  C4898    1.0000 0.50897  0.17731  0.38713  Biso   1.000  C
  C4899    1.0000 0.74409  0.05319  0.48190  Biso   1.000  C
  C4900    1.0000 0.05292  0.72068  0.32880  Biso   1.000  C
  C4901    1.0000 0.04754  0.63707  0.34944  Biso   1.000  C
  C4902    1.0000 0.07827  0.62737  0.35691  Biso   1.000  C
  C4903    1.0000 0.01888  0.68522  0.41867  Biso   1.000  C
  C4904    1.0000 0.00767  0.67485  0.38993  Biso   1.000  C
  C4905    1.0000 0.74295  0.55190  0.98379  Biso   1.000  C
  C4906    1.0000 0.05011  0.22287  0.83139  Biso   1.000  C
  C4907    1.0000 0.04674  0.13736  0.84943  Biso   1.000  C
  C4908    1.0000 0.07785  0.12862  0.85581  Biso   1.000  C
  C4909    1.0000 0.01748  0.18680  0.91782  Biso   1.000  C
  C4910    1.0000 0.00467  0.17544  0.89022  Biso   1.000  C
  C4911    1.0000 0.50782  0.55366  0.26530  Biso   1.000  C
  C4912    1.0000 0.19866  0.22154  0.42140  Biso   1.000  C
  C4913    1.0000 0.20269  0.13883  0.40051  Biso   1.000  C
  C4914    1.0000 0.17161  0.13044  0.39319  Biso   1.000  C
  C4915    1.0000 0.23311  0.18222  0.32969  Biso   1.000  C
  C4916    1.0000 0.24401  0.17371  0.35905  Biso   1.000  C
  C4917    1.0000 0.50742  0.05295  0.76642  Biso   1.000  C
  C4918    1.0000 0.19933  0.72209  0.91913  Biso   1.000  C
  C4919    1.0000 0.20282  0.63776  0.90101  Biso   1.000  C
  C4920    1.0000 0.17224  0.62827  0.89314  Biso   1.000  C
  C4921    1.0000 0.23266  0.68608  0.83197  Biso   1.000  C
  C4922    1.0000 0.24444  0.67513  0.86021  Biso   1.000  C
  C4923    1.0000 0.00700  0.55329  0.76686  Biso   1.000  C
  C4924    1.0000 0.69932  0.22252  0.91920  Biso   1.000  C
  C4925    1.0000 0.70208  0.13778  0.90081  Biso   1.000  C
  C4926    1.0000 0.67161  0.12758  0.89322  Biso   1.000  C
  C4927    1.0000 0.73308  0.18369  0.83079  Biso   1.000  C
  C4928    1.0000 0.74386  0.17414  0.85984  Biso   1.000  C
  C4929    1.0000 0.00639  0.05161  0.26689  Biso   1.000  C
  C4930    1.0000 0.69977  0.72367  0.41949  Biso   1.000  C
  C4931    1.0000 0.70349  0.63843  0.39835  Biso   1.000  C
  C4932    1.0000 0.67266  0.62814  0.39230  Biso   1.000  C
  C4933    1.0000 0.73211  0.68522  0.33107  Biso   1.000  C
  C4934    1.0000 0.74387  0.67590  0.35991  Biso   1.000  C
  C4935    1.0000 0.99322  0.51527  0.30334  Biso   1.000  C
  C4936    1.0000 0.30147  0.66899  0.97241  Biso   1.000  C
  C4937    1.0000 0.29746  0.64975  0.88824  Biso   1.000  C
  C4938    1.0000 0.32835  0.64213  0.87959  Biso   1.000  C
  C4939    1.0000 0.26838  0.58153  0.93454  Biso   1.000  C
  C4940    1.0000 0.25570  0.60931  0.92352  Biso   1.000  C
  C4941    1.0000 0.99270  0.01631  0.80195  Biso   1.000  C
  C4942    1.0000 0.30169  0.16879  0.47187  Biso   1.000  C
  C4943    1.0000 0.29698  0.15060  0.38707  Biso   1.000  C
  C4944    1.0000 0.32765  0.14337  0.37712  Biso   1.000  C
  C4945    1.0000 0.26787  0.08173  0.43446  Biso   1.000  C
  C4946    1.0000 0.25568  0.10971  0.42356  Biso   1.000  C
  C4947    1.0000 0.49236  0.51489  0.80256  Biso   1.000  C
  C4948    1.0000 0.80040  0.66920  0.47245  Biso   1.000  C
  C4949    1.0000 0.79788  0.65191  0.38772  Biso   1.000  C
  C4950    1.0000 0.82784  0.64269  0.37741  Biso   1.000  C
  C4951    1.0000 0.76847  0.58193  0.43304  Biso   1.000  C
  C4952    1.0000 0.75727  0.61104  0.42388  Biso   1.000  C
  C4953    1.0000 0.49353  0.01610  0.30237  Biso   1.000  C
  C4954    1.0000 0.80144  0.16828  0.97216  Biso   1.000  C
  C4955    1.0000 0.79633  0.14996  0.88755  Biso   1.000  C
  C4956    1.0000 0.82678  0.14308  0.87693  Biso   1.000  C
  C4957    1.0000 0.76741  0.08123  0.93476  Biso   1.000  C
  C4958    1.0000 0.75489  0.10918  0.92401  Biso   1.000  C
  C4959    1.0000 0.25599  0.23254  0.80403  Biso   1.000  C
  C4960    1.0000 0.94871  0.08084  0.47238  Biso   1.000  C
  C4961    1.0000 0.95261  0.09808  0.38692  Biso   1.000  C
  C4962    1.0000 0.92243  0.10623  0.37661  Biso   1.000  C
  C4963    1.0000 0.97970  0.16698  0.43460  Biso   1.000  C
  C4964    1.0000 0.99178  0.13870  0.42388  Biso   1.000  C
  C4965    1.0000 0.25804  0.73467  0.30481  Biso   1.000  C
  C4966    1.0000 0.94777  0.58159  0.97189  Biso   1.000  C
  C4967    1.0000 0.95290  0.59928  0.88751  Biso   1.000  C
  C4968    1.0000 0.92274  0.60674  0.87651  Biso   1.000  C
  C4969    1.0000 0.98144  0.66917  0.93350  Biso   1.000  C
  C4970    1.0000 0.99322  0.64048  0.92406  Biso   1.000  C
  C4971    1.0000 0.75695  0.23353  0.30246  Biso   1.000  C
  C4972    1.0000 0.44957  0.07985  0.97315  Biso   1.000  C
  C4973    1.0000 0.45360  0.09973  0.88691  Biso   1.000  C
  C4974    1.0000 0.42344  0.10729  0.87604  Biso   1.000  C
  C4975    1.0000 0.47915  0.16614  0.93655  Biso   1.000  C
  C4976    1.0000 0.49122  0.13751  0.92679  Biso   1.000  C
  C4977    1.0000 0.75836  0.73391  0.80370  Biso   1.000  C
  C4978    1.0000 0.44849  0.58221  0.47168  Biso   1.000  C
  C4979    1.0000 0.45287  0.60082  0.38735  Biso   1.000  C
  C4980    1.0000 0.42274  0.60833  0.37636  Biso   1.000  C
  C4981    1.0000 0.48223  0.66937  0.43490  Biso   1.000  C
  C4982    1.0000 0.49413  0.64088  0.42501  Biso   1.000  C
  C4983    1.0000 0.49328  0.73324  0.44880  Biso   1.000  C
  C4984    1.0000 0.80083  0.58081  0.77778  Biso   1.000  C
  C4985    1.0000 0.79674  0.59791  0.86382  Biso   1.000  C
  C4986    1.0000 0.82700  0.60640  0.87395  Biso   1.000  C
  C4987    1.0000 0.77094  0.66779  0.81677  Biso   1.000  C
  C4988    1.0000 0.75890  0.63933  0.82718  Biso   1.000  C
  C4989    1.0000 0.49295  0.23215  0.94688  Biso   1.000  C
  C4990    1.0000 0.80194  0.08191  0.27818  Biso   1.000  C
  C4991    1.0000 0.79659  0.09847  0.36301  Biso   1.000  C
  C4992    1.0000 0.82678  0.10623  0.37369  Biso   1.000  C
  C4993    1.0000 0.76777  0.16967  0.31729  Biso   1.000  C
  C4994    1.0000 0.75700  0.14053  0.32655  Biso   1.000  C
  C4995    1.0000 0.99143  0.73441  0.94744  Biso   1.000  C
  C4996    1.0000 0.30254  0.57972  0.27920  Biso   1.000  C
  C4997    1.0000 0.29682  0.59885  0.36391  Biso   1.000  C
  C4998    1.0000 0.32708  0.60752  0.37384  Biso   1.000  C
  C4999    1.0000 0.27049  0.66837  0.31670  Biso   1.000  C
  C5000    1.0000 0.25895  0.63960  0.32666  Biso   1.000  C
  C5001    1.0000 0.99306  0.23254  0.44594  Biso   1.000  C
  C5002    1.0000 0.30086  0.08067  0.77742  Biso   1.000  C
  C5003    1.0000 0.29674  0.09878  0.86306  Biso   1.000  C
  C5004    1.0000 0.32743  0.10622  0.87292  Biso   1.000  C
  C5005    1.0000 0.26792  0.16897  0.81831  Biso   1.000  C
  C5006    1.0000 0.25745  0.13974  0.82743  Biso   1.000  C
  C5007    1.0000 0.75687  0.01618  0.94813  Biso   1.000  C
  C5008    1.0000 0.44843  0.17071  0.27796  Biso   1.000  C
  C5009    1.0000 0.45293  0.15162  0.36191  Biso   1.000  C
  C5010    1.0000 0.42242  0.14358  0.37172  Biso   1.000  C
  C5011    1.0000 0.48313  0.08136  0.31512  Biso   1.000  C
  C5012    1.0000 0.49497  0.10966  0.32562  Biso   1.000  C
  C5013    1.0000 0.75643  0.51670  0.44638  Biso   1.000  C
  C5014    1.0000 0.44875  0.67130  0.77807  Biso   1.000  C
  C5015    1.0000 0.45358  0.65183  0.86284  Biso   1.000  C
  C5016    1.0000 0.42298  0.64327  0.87169  Biso   1.000  C
  C5017    1.0000 0.48115  0.58078  0.81619  Biso   1.000  C
  C5018    1.0000 0.49183  0.61009  0.82518  Biso   1.000  C
  C5019    1.0000 0.25697  0.01670  0.44802  Biso   1.000  C
  C5020    1.0000 0.94853  0.17124  0.77843  Biso   1.000  C
  C5021    1.0000 0.95187  0.15132  0.86188  Biso   1.000  C
  C5022    1.0000 0.92127  0.14321  0.87108  Biso   1.000  C
  C5023    1.0000 0.98283  0.08145  0.81521  Biso   1.000  C
  C5024    1.0000 0.99456  0.10956  0.82630  Biso   1.000  C
  C5025    1.0000 0.25681  0.51719  0.94898  Biso   1.000  C
  C5026    1.0000 0.94928  0.67031  0.27775  Biso   1.000  C
  C5027    1.0000 0.95360  0.65173  0.36285  Biso   1.000  C
  C5028    1.0000 0.92324  0.64267  0.37213  Biso   1.000  C
  C5029    1.0000 0.98218  0.58039  0.31714  Biso   1.000  C
  C5030    1.0000 0.99379  0.60882  0.32765  Biso   1.000  C
  C5031    1.0000 0.01548  0.94759  0.75799  Biso   1.000  C
  C5032    1.0000 0.16897  0.27894  0.44827  Biso   1.000  C
  C5033    1.0000 0.14855  0.36305  0.45523  Biso   1.000  C
  C5034    1.0000 0.14283  0.37292  0.42427  Biso   1.000  C
  C5035    1.0000 0.08303  0.31160  0.48034  Biso   1.000  C
  C5036    1.0000 0.11070  0.32203  0.49399  Biso   1.000  C
  C5037    1.0000 0.01539  0.44466  0.25905  Biso   1.000  C
  C5038    1.0000 0.16979  0.77737  0.94942  Biso   1.000  C
  C5039    1.0000 0.14889  0.86257  0.95347  Biso   1.000  C
  C5040    1.0000 0.14282  0.87304  0.92271  Biso   1.000  C
  C5041    1.0000 0.08400  0.81057  0.98076  Biso   1.000  C
  C5042    1.0000 0.11208  0.82074  0.99386  Biso   1.000  C
  C5043    1.0000 0.51687  0.94639  0.25710  Biso   1.000  C
  C5044    1.0000 0.66891  0.27768  0.94912  Biso   1.000  C
  C5045    1.0000 0.64966  0.36244  0.95320  Biso   1.000  C
  C5046    1.0000 0.64357  0.37316  0.92269  Biso   1.000  C
  C5047    1.0000 0.58242  0.31185  0.98152  Biso   1.000  C
  C5048    1.0000 0.60979  0.32362  0.99453  Biso   1.000  C
  C5049    1.0000 0.51591  0.44427  0.75730  Biso   1.000  C
  C5050    1.0000 0.66931  0.77771  0.44994  Biso   1.000  C
  C5051    1.0000 0.65080  0.86282  0.45334  Biso   1.000  C
  C5052    1.0000 0.64182  0.87383  0.42351  Biso   1.000  C
  C5053    1.0000 0.58307  0.81290  0.48215  Biso   1.000  C
  C5054    1.0000 0.61081  0.82460  0.49449  Biso   1.000  C
  C5055    1.0000 0.73466  0.44789  0.49300  Biso   1.000  C
  C5056    1.0000 0.58020  0.77816  0.80165  Biso   1.000  C
  C5057    1.0000 0.60205  0.86341  0.79678  Biso   1.000  C
  C5058    1.0000 0.60915  0.87384  0.82721  Biso   1.000  C
  C5059    1.0000 0.66830  0.81340  0.76858  Biso   1.000  C
  C5060    1.0000 0.63933  0.82358  0.75762  Biso   1.000  C
  C5061    1.0000 0.73445  0.94685  0.99295  Biso   1.000  C
  C5062    1.0000 0.58073  0.27863  0.30184  Biso   1.000  C
  C5063    1.0000 0.60312  0.36355  0.29698  Biso   1.000  C
  C5064    1.0000 0.61126  0.37453  0.32702  Biso   1.000  C
  C5065    1.0000 0.66661  0.31240  0.26959  Biso   1.000  C
  C5066    1.0000 0.63832  0.32151  0.25635  Biso   1.000  C
  C5067    1.0000 0.23472  0.44448  0.99291  Biso   1.000  C
  C5068    1.0000 0.07953  0.77871  0.30166  Biso   1.000  C
  C5069    1.0000 0.10263  0.86321  0.29621  Biso   1.000  C
  C5070    1.0000 0.10935  0.87436  0.32650  Biso   1.000  C
  C5071    1.0000 0.16782  0.81237  0.26843  Biso   1.000  C
  C5072    1.0000 0.13900  0.82184  0.25667  Biso   1.000  C
  C5073    1.0000 0.23423  0.94535  0.49345  Biso   1.000  C
  C5074    1.0000 0.07939  0.27852  0.80098  Biso   1.000  C
  C5075    1.0000 0.10172  0.36315  0.79709  Biso   1.000  C
  C5076    1.0000 0.10779  0.37400  0.82764  Biso   1.000  C
  C5077    1.0000 0.16626  0.31077  0.76829  Biso   1.000  C
  C5078    1.0000 0.13745  0.32083  0.75692  Biso   1.000  C
  C5079    1.0000 0.23445  0.80447  0.25719  Biso   1.000  C
  C5080    1.0000 0.08013  0.47134  0.94910  Biso   1.000  C
  C5081    1.0000 0.09967  0.38722  0.95347  Biso   1.000  C
  C5082    1.0000 0.10681  0.37761  0.92258  Biso   1.000  C
  C5083    1.0000 0.16915  0.43482  0.98202  Biso   1.000  C
  C5084    1.0000 0.14057  0.42359  0.99255  Biso   1.000  C
  C5085    1.0000 0.23347  0.30244  0.75758  Biso   1.000  C
  C5086    1.0000 0.08192  0.97202  0.44898  Biso   1.000  C
  C5087    1.0000 0.09925  0.88617  0.45241  Biso   1.000  C
  C5088    1.0000 0.10746  0.87563  0.42224  Biso   1.000  C
  C5089    1.0000 0.16790  0.93575  0.48184  Biso   1.000  C
  C5090    1.0000 0.13942  0.92388  0.49198  Biso   1.000  C
  C5091    1.0000 0.73591  0.80435  0.75813  Biso   1.000  C
  C5092    1.0000 0.58008  0.47221  0.44946  Biso   1.000  C
  C5093    1.0000 0.59919  0.38714  0.45289  Biso   1.000  C
  C5094    1.0000 0.60713  0.37632  0.42272  Biso   1.000  C
  C5095    1.0000 0.66761  0.43700  0.48285  Biso   1.000  C
  C5096    1.0000 0.63894  0.42629  0.49367  Biso   1.000  C
  C5097    1.0000 0.73400  0.30410  0.25747  Biso   1.000  C
  C5098    1.0000 0.58226  0.97135  0.94838  Biso   1.000  C
  C5099    1.0000 0.59989  0.88527  0.95296  Biso   1.000  C
  C5100    1.0000 0.60829  0.87460  0.92290  Biso   1.000  C
  C5101    1.0000 0.66785  0.93504  0.98140  Biso   1.000  C
  C5102    1.0000 0.63970  0.92282  0.99210  Biso   1.000  C
  C5103    1.0000 0.51686  0.30312  0.99298  Biso   1.000  C
  C5104    1.0000 0.67008  0.97234  0.29997  Biso   1.000  C
  C5105    1.0000 0.65109  0.88642  0.29823  Biso   1.000  C
  C5106    1.0000 0.64167  0.87695  0.32838  Biso   1.000  C
  C5107    1.0000 0.58231  0.93492  0.26916  Biso   1.000  C
  C5108    1.0000 0.61071  0.92318  0.25852  Biso   1.000  C
  C5109    1.0000 0.51743  0.80412  0.49383  Biso   1.000  C
  C5110    1.0000 0.66952  0.47234  0.80011  Biso   1.000  C
  C5111    1.0000 0.65164  0.38729  0.79755  Biso   1.000  C
  C5112    1.0000 0.64338  0.37793  0.82814  Biso   1.000  C
  C5113    1.0000 0.58207  0.43378  0.77017  Biso   1.000  C
  C5114    1.0000 0.61033  0.42365  0.75757  Biso   1.000  C
  C5115    1.0000 0.01703  0.30292  0.49294  Biso   1.000  C
  C5116    1.0000 0.16893  0.96919  0.80338  Biso   1.000  C
  C5117    1.0000 0.14856  0.88623  0.79651  Biso   1.000  C
  C5118    1.0000 0.14257  0.87726  0.82773  Biso   1.000  C
  C5119    1.0000 0.08269  0.93515  0.77152  Biso   1.000  C
  C5120    1.0000 0.11118  0.92538  0.75899  Biso   1.000  C
  C5121    1.0000 0.01734  0.80478  0.99294  Biso   1.000  C
  C5122    1.0000 0.16958  0.47228  0.30060  Biso   1.000  C
  C5123    1.0000 0.15173  0.38701  0.29874  Biso   1.000  C
  C5124    1.0000 0.14384  0.37754  0.32941  Biso   1.000  C
  C5125    1.0000 0.08144  0.43312  0.27052  Biso   1.000  C
  C5126    1.0000 0.10986  0.42293  0.25822  Biso   1.000  C
  C5127    1.0000 0.44820  0.49379  0.73327  Biso   1.000  C
  C5128    1.0000 0.77691  0.80134  0.58192  Biso   1.000  C
  C5129    1.0000 0.86269  0.79648  0.60193  Biso   1.000  C
  C5130    1.0000 0.87232  0.82740  0.60886  Biso   1.000  C
  C5131    1.0000 0.81438  0.76691  0.66826  Biso   1.000  C
  C5132    1.0000 0.82342  0.75598  0.63903  Biso   1.000  C
  C5133    1.0000 0.44489  0.99257  0.23472  Biso   1.000  C
  C5134    1.0000 0.77784  0.30118  0.08065  Biso   1.000  C
  C5135    1.0000 0.86197  0.29758  0.09973  Biso   1.000  C
  C5136    1.0000 0.87186  0.32817  0.10752  Biso   1.000  C
  C5137    1.0000 0.81458  0.26643  0.16813  Biso   1.000  C
  C5138    1.0000 0.82508  0.25543  0.13937  Biso   1.000  C
  C5139    1.0000 0.94844  0.49402  0.23360  Biso   1.000  C
  C5140    1.0000 0.27788  0.80134  0.08170  Biso   1.000  C
  C5141    1.0000 0.36305  0.79698  0.10053  Biso   1.000  C
  C5142    1.0000 0.37377  0.82741  0.10771  Biso   1.000  C
  C5143    1.0000 0.31244  0.76771  0.16715  Biso   1.000  C
  C5144    1.0000 0.32385  0.75524  0.13941  Biso   1.000  C
  C5145    1.0000 0.94545  0.99461  0.73312  Biso   1.000  C
  C5146    1.0000 0.27616  0.30114  0.58159  Biso   1.000  C
  C5147    1.0000 0.36190  0.29765  0.59956  Biso   1.000  C
  C5148    1.0000 0.37161  0.32822  0.60745  Biso   1.000  C
  C5149    1.0000 0.31592  0.26543  0.66927  Biso   1.000  C
  C5150    1.0000 0.32536  0.25548  0.63985  Biso   1.000  C
  C5151    1.0000 0.94668  0.75678  0.01545  Biso   1.000  C
  C5152    1.0000 0.27909  0.44666  0.17087  Biso   1.000  C
  C5153    1.0000 0.36182  0.45296  0.14963  Biso   1.000  C
  C5154    1.0000 0.37206  0.42266  0.14132  Biso   1.000  C
  C5155    1.0000 0.31387  0.48179  0.08233  Biso   1.000  C
  C5156    1.0000 0.32356  0.49219  0.11162  Biso   1.000  C
  C5157    1.0000 0.94772  0.25645  0.51594  Biso   1.000  C
  C5158    1.0000 0.27880  0.94758  0.67121  Biso   1.000  C
  C5159    1.0000 0.36277  0.95360  0.65080  Biso   1.000  C
  C5160    1.0000 0.37077  0.92262  0.64254  Biso   1.000  C
  C5161    1.0000 0.31576  0.98260  0.58174  Biso   1.000  C
  C5162    1.0000 0.32659  0.99326  0.61058  Biso   1.000  C
  C5163    1.0000 0.44515  0.75769  0.51601  Biso   1.000  C
  C5164    1.0000 0.77880  0.44664  0.66926  Biso   1.000  C
  C5165    1.0000 0.86160  0.45340  0.64813  Biso   1.000  C
  C5166    1.0000 0.87151  0.42297  0.63985  Biso   1.000  C
  C5167    1.0000 0.81430  0.48266  0.58162  Biso   1.000  C
  C5168    1.0000 0.82374  0.49326  0.61090  Biso   1.000  C
  C5169    1.0000 0.44739  0.25662  0.01624  Biso   1.000  C
  C5170    1.0000 0.77807  0.94904  0.17027  Biso   1.000  C
  C5171    1.0000 0.86260  0.95292  0.15164  Biso   1.000  C
  C5172    1.0000 0.87222  0.92230  0.14387  Biso   1.000  C
  C5173    1.0000 0.81547  0.98001  0.08219  Biso   1.000  C
  C5174    1.0000 0.82493  0.99053  0.11154  Biso   1.000  C
  C5175    1.0000 0.30293  0.99387  0.51577  Biso   1.000  C
  C5176    1.0000 0.97021  0.30302  0.66970  Biso   1.000  C
  C5177    1.0000 0.88620  0.29623  0.64766  Biso   1.000  C
  C5178    1.0000 0.87705  0.32717  0.64024  Biso   1.000  C
  C5179    1.0000 0.93636  0.26796  0.58206  Biso   1.000  C
  C5180    1.0000 0.92593  0.25693  0.61088  Biso   1.000  C
  C5181    1.0000 0.30270  0.49334  0.01604  Biso   1.000  C
  C5182    1.0000 0.97184  0.80205  0.16901  Biso   1.000  C
  C5183    1.0000 0.88792  0.79575  0.14793  Biso   1.000  C
  C5184    1.0000 0.87892  0.82684  0.14108  Biso   1.000  C
  C5185    1.0000 0.93627  0.76842  0.08140  Biso   1.000  C
  C5186    1.0000 0.92641  0.75690  0.11025  Biso   1.000  C
  C5187    1.0000 0.80338  0.99305  0.01558  Biso   1.000  C
  C5188    1.0000 0.47100  0.30245  0.16990  Biso   1.000  C
  C5189    1.0000 0.38694  0.29586  0.14829  Biso   1.000  C
  C5190    1.0000 0.37789  0.32689  0.14116  Biso   1.000  C
  C5191    1.0000 0.43646  0.26806  0.08227  Biso   1.000  C
  C5192    1.0000 0.42623  0.25681  0.11108  Biso   1.000  C
  C5193    1.0000 0.80278  0.49395  0.51488  Biso   1.000  C
  C5194    1.0000 0.47105  0.80180  0.67180  Biso   1.000  C
  C5195    1.0000 0.38674  0.79709  0.65017  Biso   1.000  C
  C5196    1.0000 0.37711  0.82794  0.64361  Biso   1.000  C
  C5197    1.0000 0.43665  0.76794  0.58170  Biso   1.000  C
  C5198    1.0000 0.42488  0.75737  0.61003  Biso   1.000  C
  C5199    1.0000 0.80427  0.25619  0.23445  Biso   1.000  C
  C5200    1.0000 0.47194  0.94854  0.07985  Biso   1.000  C
  C5201    1.0000 0.38585  0.95343  0.10159  Biso   1.000  C
  C5202    1.0000 0.37581  0.92296  0.10910  Biso   1.000  C
  C5203    1.0000 0.43561  0.98028  0.16840  Biso   1.000  C
  C5204    1.0000 0.42405  0.99063  0.13976  Biso   1.000  C
  C5205    1.0000 0.80339  0.75604  0.73392  Biso   1.000  C
  C5206    1.0000 0.47177  0.44827  0.58109  Biso   1.000  C
  C5207    1.0000 0.38756  0.45319  0.60196  Biso   1.000  C
  C5208    1.0000 0.37642  0.42328  0.61040  Biso   1.000  C
  C5209    1.0000 0.43648  0.48068  0.66760  Biso   1.000  C
  C5210    1.0000 0.42629  0.49204  0.63887  Biso   1.000  C
  C5211    1.0000 0.30258  0.25508  0.73488  Biso   1.000  C
  C5212    1.0000 0.97203  0.94898  0.57942  Biso   1.000  C
  C5213    1.0000 0.88653  0.95376  0.60108  Biso   1.000  C
  C5214    1.0000 0.87584  0.92340  0.60839  Biso   1.000  C
  C5215    1.0000 0.93656  0.97922  0.66661  Biso   1.000  C
  C5216    1.0000 0.92815  0.99066  0.63763  Biso   1.000  C
  C5217    1.0000 0.30182  0.75646  0.23334  Biso   1.000  C
  C5218    1.0000 0.97326  0.44883  0.08172  Biso   1.000  C
  C5219    1.0000 0.88844  0.45362  0.10162  Biso   1.000  C
  C5220    1.0000 0.87806  0.42307  0.10885  Biso   1.000  C
  C5221    1.0000 0.93769  0.48174  0.16768  Biso   1.000  C
  C5222    1.0000 0.92743  0.49307  0.13900  Biso   1.000  C
  C5223    1.0000 0.17886  0.18156  0.25349  Biso   1.000  C
  C5224    1.0000 0.17331  0.17548  0.22201  Biso   1.000  C
  C5225    1.0000 0.18241  0.68015  0.75332  Biso   1.000  C
  C5226    1.0000 0.17410  0.67364  0.72265  Biso   1.000  C
  C5227    1.0000 0.68278  0.18076  0.75233  Biso   1.000  C
  C5228    1.0000 0.67669  0.17494  0.72088  Biso   1.000  C
  C5229    1.0000 0.68035  0.68247  0.25314  Biso   1.000  C
  C5230    1.0000 0.67411  0.67549  0.22200  Biso   1.000  C
  C5231    1.0000 0.56910  0.06795  0.75384  Biso   1.000  C
  C5232    1.0000 0.57498  0.07463  0.72261  Biso   1.000  C
  C5233    1.0000 0.56901  0.56843  0.25366  Biso   1.000  C
  C5234    1.0000 0.57423  0.57639  0.22262  Biso   1.000  C
  C5235    1.0000 0.06848  0.68259  0.49787  Biso   1.000  C
  C5236    1.0000 0.07554  0.67587  0.52891  Biso   1.000  C
  C5237    1.0000 0.07010  0.18146  0.99617  Biso   1.000  C
  C5238    1.0000 0.07611  0.17454  0.02740  Biso   1.000  C
  C5239    1.0000 0.56620  0.17976  0.49711  Biso   1.000  C
  C5240    1.0000 0.57386  0.17294  0.52803  Biso   1.000  C
  C5241    1.0000 0.68194  0.56726  0.99830  Biso   1.000  C
  C5242    1.0000 0.67424  0.57250  0.02941  Biso   1.000  C
  C5243    1.0000 0.18071  0.56826  0.49681  Biso   1.000  C
  C5244    1.0000 0.17298  0.57541  0.52758  Biso   1.000  C
  C5245    1.0000 0.25318  0.18072  0.18123  Biso   1.000  C
  C5246    1.0000 0.22186  0.17534  0.17413  Biso   1.000  C
  C5247    1.0000 0.25274  0.67967  0.68334  Biso   1.000  C
  C5248    1.0000 0.22149  0.67386  0.67620  Biso   1.000  C
  C5249    1.0000 0.75336  0.18105  0.68143  Biso   1.000  C
  C5250    1.0000 0.72249  0.17573  0.67289  Biso   1.000  C
  C5251    1.0000 0.75336  0.68046  0.18287  Biso   1.000  C
  C5252    1.0000 0.72222  0.67453  0.17537  Biso   1.000  C
  C5253    1.0000 0.75249  0.56488  0.07037  Biso   1.000  C
  C5254    1.0000 0.72147  0.57171  0.07725  Biso   1.000  C
  C5255    1.0000 0.25258  0.56925  0.56792  Biso   1.000  C
  C5256    1.0000 0.22123  0.57554  0.57398  Biso   1.000  C
  C5257    1.0000 0.49719  0.06910  0.68040  Biso   1.000  C
  C5258    1.0000 0.52803  0.07611  0.67327  Biso   1.000  C
  C5259    1.0000 0.49586  0.56864  0.17894  Biso   1.000  C
  C5260    1.0000 0.52704  0.57581  0.17378  Biso   1.000  C
  C5261    1.0000 0.99693  0.68150  0.56798  Biso   1.000  C
  C5262    1.0000 0.02772  0.67572  0.57642  Biso   1.000  C
  C5263    1.0000 0.99679  0.18185  0.07008  Biso   1.000  C
  C5264    1.0000 0.02790  0.17464  0.07572  Biso   1.000  C
  C5265    1.0000 0.49682  0.18267  0.56999  Biso   1.000  C
  C5266    1.0000 0.52775  0.17535  0.57697  Biso   1.000  C
  C5267    1.0000 0.18152  0.25201  0.18232  Biso   1.000  C
  C5268    1.0000 0.17437  0.22148  0.17374  Biso   1.000  C
  C5269    1.0000 0.18147  0.75133  0.68175  Biso   1.000  C
  C5270    1.0000 0.17513  0.72029  0.67459  Biso   1.000  C
  C5271    1.0000 0.68032  0.25216  0.68174  Biso   1.000  C
  C5272    1.0000 0.67343  0.22121  0.67463  Biso   1.000  C
  C5273    1.0000 0.68266  0.75173  0.18111  Biso   1.000  C
  C5274    1.0000 0.67575  0.72091  0.17339  Biso   1.000  C
  C5275    1.0000 0.06715  0.75313  0.57006  Biso   1.000  C
  C5276    1.0000 0.07497  0.72233  0.57597  Biso   1.000  C
  C5277    1.0000 0.06816  0.25157  0.06773  Biso   1.000  C
  C5278    1.0000 0.07452  0.22032  0.07402  Biso   1.000  C
  C5279    1.0000 0.56649  0.25205  0.56910  Biso   1.000  C
  C5280    1.0000 0.57449  0.22112  0.57448  Biso   1.000  C
  C5281    1.0000 0.67982  0.49623  0.06902  Biso   1.000  C
  C5282    1.0000 0.67277  0.52659  0.07799  Biso   1.000  C
  C5283    1.0000 0.17982  0.49699  0.56946  Biso   1.000  C
  C5284    1.0000 0.17281  0.52827  0.57475  Biso   1.000  C
  C5285    1.0000 0.56759  0.99784  0.68130  Biso   1.000  C
  C5286    1.0000 0.57459  0.02890  0.67467  Biso   1.000  C
  C5287    1.0000 0.56864  0.49813  0.18248  Biso   1.000  C
  C5288    1.0000 0.57399  0.52946  0.17548  Biso   1.000  C
  C5289    1.0000 0.93278  0.43444  0.24791  Biso   1.000  C
  C5290    1.0000 0.92745  0.42784  0.27918  Biso   1.000  C
  C5291    1.0000 0.92948  0.93286  0.74712  Biso   1.000  C
  C5292    1.0000 0.92268  0.92656  0.77831  Biso   1.000  C
  C5293    1.0000 0.82285  0.81773  0.74633  Biso   1.000  C
  C5294    1.0000 0.82821  0.82444  0.77775  Biso   1.000  C
  C5295    1.0000 0.82068  0.31758  0.24619  Biso   1.000  C
  C5296    1.0000 0.82800  0.32455  0.27707  Biso   1.000  C
  C5297    1.0000 0.32070  0.81644  0.24783  Biso   1.000  C
  C5298    1.0000 0.32783  0.82361  0.27885  Biso   1.000  C
  C5299    1.0000 0.31814  0.31582  0.74783  Biso   1.000  C
  C5300    1.0000 0.32320  0.32270  0.77923  Biso   1.000  C
  C5301    1.0000 0.43054  0.31805  0.00345  Biso   1.000  C
  C5302    1.0000 0.42357  0.32495  0.97252  Biso   1.000  C
  C5303    1.0000 0.43353  0.82115  0.50400  Biso   1.000  C
  C5304    1.0000 0.42507  0.82802  0.47347  Biso   1.000  C
  C5305    1.0000 0.93069  0.81973  0.00329  Biso   1.000  C
  C5306    1.0000 0.92388  0.82742  0.97253  Biso   1.000  C
  C5307    1.0000 0.31909  0.93261  0.50285  Biso   1.000  C
  C5308    1.0000 0.32432  0.92637  0.47135  Biso   1.000  C
  C5309    1.0000 0.81720  0.92986  0.00330  Biso   1.000  C
  C5310    1.0000 0.82304  0.92175  0.97257  Biso   1.000  C
  C5311    1.0000 0.93022  0.50347  0.31995  Biso   1.000  C
  C5312    1.0000 0.92294  0.47289  0.32766  Biso   1.000  C
  C5313    1.0000 0.93082  0.00459  0.81865  Biso   1.000  C
  C5314    1.0000 0.92396  0.97353  0.82517  Biso   1.000  C
  C5315    1.0000 0.31744  0.00322  0.42962  Biso   1.000  C
  C5316    1.0000 0.32385  0.97206  0.42286  Biso   1.000  C
  C5317    1.0000 0.81728  0.00274  0.93052  Biso   1.000  C
  C5318    1.0000 0.82341  0.97130  0.92479  Biso   1.000  C
  C5319    1.0000 0.82132  0.74741  0.81806  Biso   1.000  C
  C5320    1.0000 0.82808  0.77800  0.82634  Biso   1.000  C
  C5321    1.0000 0.81984  0.24675  0.32047  Biso   1.000  C
  C5322    1.0000 0.82674  0.27763  0.32727  Biso   1.000  C
  C5323    1.0000 0.32101  0.74765  0.31864  Biso   1.000  C
  C5324    1.0000 0.32766  0.77814  0.32720  Biso   1.000  C
  C5325    1.0000 0.31772  0.24726  0.82278  Biso   1.000  C
  C5326    1.0000 0.32378  0.27855  0.82910  Biso   1.000  C
  C5327    1.0000 0.43302  0.24730  0.92976  Biso   1.000  C
  C5328    1.0000 0.42565  0.27828  0.92298  Biso   1.000  C
  C5329    1.0000 0.43349  0.74874  0.43087  Biso   1.000  C
  C5330    1.0000 0.42622  0.77988  0.42494  Biso   1.000  C
  C5331    1.0000 0.93339  0.74882  0.92955  Biso   1.000  C
  C5332    1.0000 0.92660  0.77995  0.92318  Biso   1.000  C
  C5333    1.0000 0.00216  0.43295  0.32153  Biso   1.000  C
  C5334    1.0000 0.97091  0.42625  0.32746  Biso   1.000  C
  C5335    1.0000 0.00109  0.93435  0.81763  Biso   1.000  C
  C5336    1.0000 0.96974  0.92813  0.82293  Biso   1.000  C
  C5337    1.0000 0.50279  0.31697  0.93051  Biso   1.000  C
  C5338    1.0000 0.47182  0.32461  0.92403  Biso   1.000  C
  C5339    1.0000 0.50358  0.81938  0.43167  Biso   1.000  C
  C5340    1.0000 0.47253  0.82734  0.42645  Biso   1.000  C
  C5341    1.0000 0.00410  0.81933  0.93105  Biso   1.000  C
  C5342    1.0000 0.97320  0.82763  0.92542  Biso   1.000  C
  C5343    1.0000 0.24627  0.93189  0.43004  Biso   1.000  C
  C5344    1.0000 0.27691  0.92459  0.42230  Biso   1.000  C
  C5345    1.0000 0.74674  0.93156  0.92993  Biso   1.000  C
  C5346    1.0000 0.77720  0.92377  0.92182  Biso   1.000  C
  C5347    1.0000 0.74782  0.81668  0.81940  Biso   1.000  C
  C5348    1.0000 0.77918  0.82306  0.82488  Biso   1.000  C
  C5349    1.0000 0.74744  0.31831  0.31891  Biso   1.000  C
  C5350    1.0000 0.77892  0.32449  0.32455  Biso   1.000  C
  C5351    1.0000 0.24776  0.81772  0.31923  Biso   1.000  C
  C5352    1.0000 0.27923  0.82378  0.32493  Biso   1.000  C
  C5353    1.0000 0.24552  0.31841  0.82025  Biso   1.000  C
  C5354    1.0000 0.27614  0.32594  0.82805  Biso   1.000  C
  C5355    1.0000 0.43421  0.93035  0.24760  Biso   1.000  C
  C5356    1.0000 0.42590  0.92389  0.27834  Biso   1.000  C
  C5357    1.0000 0.43031  0.43286  0.74801  Biso   1.000  C
  C5358    1.0000 0.42191  0.42578  0.77865  Biso   1.000  C
  C5359    1.0000 0.93034  0.31793  0.50323  Biso   1.000  C
  C5360    1.0000 0.92282  0.32537  0.47255  Biso   1.000  C
  C5361    1.0000 0.31999  0.43049  0.00449  Biso   1.000  C
  C5362    1.0000 0.32714  0.42322  0.97377  Biso   1.000  C
  C5363    1.0000 0.81957  0.43259  0.50267  Biso   1.000  C
  C5364    1.0000 0.82478  0.42573  0.47127  Biso   1.000  C
  C5365    1.0000 0.24794  0.43355  0.93080  Biso   1.000  C
  C5366    1.0000 0.27908  0.42622  0.92500  Biso   1.000  C
  C5367    1.0000 0.74615  0.43209  0.43094  Biso   1.000  C
  C5368    1.0000 0.77665  0.42441  0.42309  Biso   1.000  C
  C5369    1.0000 0.50165  0.93372  0.31737  Biso   1.000  C
  C5370    1.0000 0.47052  0.92741  0.32378  Biso   1.000  C
  C5371    1.0000 0.50119  0.43009  0.81778  Biso   1.000  C
  C5372    1.0000 0.46991  0.42366  0.82394  Biso   1.000  C
  C5373    1.0000 0.00244  0.31730  0.43105  Biso   1.000  C
  C5374    1.0000 0.97138  0.32488  0.42478  Biso   1.000  C
  C5375    1.0000 0.93284  0.24776  0.42952  Biso   1.000  C
  C5376    1.0000 0.92544  0.27878  0.42312  Biso   1.000  C
  C5377    1.0000 0.31925  0.50347  0.93070  Biso   1.000  C
  C5378    1.0000 0.32580  0.47216  0.92547  Biso   1.000  C
  C5379    1.0000 0.81766  0.50293  0.42910  Biso   1.000  C
  C5380    1.0000 0.82372  0.47151  0.42335  Biso   1.000  C
  C5381    1.0000 0.43185  0.00366  0.31878  Biso   1.000  C
  C5382    1.0000 0.42347  0.97287  0.32448  Biso   1.000  C
  C5383    1.0000 0.43108  0.50224  0.81725  Biso   1.000  C
  C5384    1.0000 0.42430  0.47133  0.82429  Biso   1.000  C
  C5385    1.0000 0.06878  0.56744  0.75257  Biso   1.000  C
  C5386    1.0000 0.07481  0.57403  0.72117  Biso   1.000  C
  C5387    1.0000 0.06661  0.06850  0.25296  Biso   1.000  C
  C5388    1.0000 0.07398  0.07674  0.22246  Biso   1.000  C
  C5389    1.0000 0.56888  0.68251  0.99745  Biso   1.000  C
  C5390    1.0000 0.57664  0.67485  0.02802  Biso   1.000  C
  C5391    1.0000 0.68202  0.06880  0.49706  Biso   1.000  C
  C5392    1.0000 0.67373  0.07408  0.52797  Biso   1.000  C
  C5393    1.0000 0.18129  0.06941  0.99758  Biso   1.000  C
  C5394    1.0000 0.17370  0.07424  0.02877  Biso   1.000  C
  C5395    1.0000 0.06715  0.49786  0.68336  Biso   1.000  C
  C5396    1.0000 0.07495  0.52814  0.67494  Biso   1.000  C
  C5397    1.0000 0.06805  0.99726  0.18047  Biso   1.000  C
  C5398    1.0000 0.07443  0.02869  0.17516  Biso   1.000  C
  C5399    1.0000 0.68098  0.99601  0.57007  Biso   1.000  C
  C5400    1.0000 0.67362  0.02672  0.57752  Biso   1.000  C
  C5401    1.0000 0.18120  0.99695  0.06780  Biso   1.000  C
  C5402    1.0000 0.17523  0.02751  0.07673  Biso   1.000  C
  C5403    1.0000 0.56896  0.75223  0.06988  Biso   1.000  C
  C5404    1.0000 0.57642  0.72110  0.07487  Biso   1.000  C
  C5405    1.0000 0.99679  0.56842  0.68168  Biso   1.000  C
  C5406    1.0000 0.02764  0.57395  0.67333  Biso   1.000  C
  C5407    1.0000 0.99753  0.06890  0.17957  Biso   1.000  C
  C5408    1.0000 0.02830  0.07616  0.17228  Biso   1.000  C
  C5409    1.0000 0.49776  0.68139  0.06943  Biso   1.000  C
  C5410    1.0000 0.52898  0.67457  0.07549  Biso   1.000  C
  C5411    1.0000 0.75229  0.06884  0.56764  Biso   1.000  C
  C5412    1.0000 0.72094  0.07401  0.57462  Biso   1.000  C
  C5413    1.0000 0.25280  0.06892  0.06709  Biso   1.000  C
  C5414    1.0000 0.22168  0.07426  0.07479  Biso   1.000  C
  C5415    1.0000 0.13736  0.11354  0.06789  Biso   1.000  C
  C5416    1.0000 0.13744  0.61576  0.56747  Biso   1.000  C
  C5417    1.0000 0.63682  0.11372  0.56709  Biso   1.000  C
  C5418    1.0000 0.61379  0.13664  0.56815  Biso   1.000  C
  C5419    1.0000 0.61579  0.63683  0.06826  Biso   1.000  C
  C5420    1.0000 0.11407  0.61175  0.68384  Biso   1.000  C
  C5421    1.0000 0.11527  0.11220  0.18424  Biso   1.000  C
  C5422    1.0000 0.61406  0.61309  0.18403  Biso   1.000  C
  C5423    1.0000 0.63803  0.63499  0.18462  Biso   1.000  C
  C5424    1.0000 0.63804  0.13536  0.68300  Biso   1.000  C
  C5425    1.0000 0.13714  0.63445  0.68386  Biso   1.000  C
  C5426    1.0000 0.13862  0.13470  0.18465  Biso   1.000  C
  C5427    1.0000 0.06738  0.13516  0.11205  Biso   1.000  C
  C5428    1.0000 0.06648  0.63616  0.61295  Biso   1.000  C
  C5429    1.0000 0.56717  0.13632  0.61372  Biso   1.000  C
  C5430    1.0000 0.56677  0.61477  0.13726  Biso   1.000  C
  C5431    1.0000 0.56809  0.11508  0.63819  Biso   1.000  C
  C5432    1.0000 0.68363  0.11134  0.61452  Biso   1.000  C
  C5433    1.0000 0.18346  0.11227  0.11454  Biso   1.000  C
  C5434    1.0000 0.18338  0.61190  0.61423  Biso   1.000  C
  C5435    1.0000 0.18276  0.63562  0.63645  Biso   1.000  C
  C5436    1.0000 0.18286  0.13663  0.13600  Biso   1.000  C
  C5437    1.0000 0.68338  0.63562  0.13651  Biso   1.000  C
  C5438    1.0000 0.68383  0.13496  0.63690  Biso   1.000  C
  C5439    1.0000 0.11382  0.06747  0.13722  Biso   1.000  C
  C5440    1.0000 0.11285  0.57003  0.63564  Biso   1.000  C
  C5441    1.0000 0.61204  0.57097  0.13678  Biso   1.000  C
  C5442    1.0000 0.13563  0.56975  0.61266  Biso   1.000  C
  C5443    1.0000 0.63497  0.56948  0.11394  Biso   1.000  C
  C5444    1.0000 0.61268  0.68105  0.11475  Biso   1.000  C
  C5445    1.0000 0.61298  0.18213  0.61378  Biso   1.000  C
  C5446    1.0000 0.63727  0.18211  0.63529  Biso   1.000  C
  C5447    1.0000 0.63569  0.68156  0.13759  Biso   1.000  C
  C5448    1.0000 0.13493  0.18088  0.13742  Biso   1.000  C
  C5449    1.0000 0.13502  0.68193  0.63846  Biso   1.000  C
  C5450    1.0000 0.86413  0.38800  0.43365  Biso   1.000  C
  C5451    1.0000 0.36312  0.38577  0.93404  Biso   1.000  C
  C5452    1.0000 0.88807  0.86579  0.93254  Biso   1.000  C
  C5453    1.0000 0.88717  0.36506  0.43369  Biso   1.000  C
  C5454    1.0000 0.36249  0.36244  0.81705  Biso   1.000  C
  C5455    1.0000 0.36319  0.86459  0.31959  Biso   1.000  C
  C5456    1.0000 0.86326  0.36431  0.31620  Biso   1.000  C
  C5457    1.0000 0.86222  0.86532  0.81904  Biso   1.000  C
  C5458    1.0000 0.38614  0.88743  0.32032  Biso   1.000  C
  C5459    1.0000 0.38459  0.38618  0.81844  Biso   1.000  C
  C5460    1.0000 0.88472  0.88861  0.82023  Biso   1.000  C
  C5461    1.0000 0.88574  0.31824  0.38733  Biso   1.000  C
  C5462    1.0000 0.88718  0.82001  0.88737  Biso   1.000  C
  C5463    1.0000 0.36418  0.81937  0.36518  Biso   1.000  C
  C5464    1.0000 0.36120  0.31979  0.86568  Biso   1.000  C
  C5465    1.0000 0.86461  0.81949  0.86393  Biso   1.000  C
  C5466    1.0000 0.86458  0.31839  0.36280  Biso   1.000  C
  C5467    1.0000 0.86356  0.93274  0.88790  Biso   1.000  C
  C5468    1.0000 0.36166  0.93294  0.38483  Biso   1.000  C
  C5469    1.0000 0.38575  0.43247  0.86448  Biso   1.000  C
  C5470    1.0000 0.38611  0.93360  0.36353  Biso   1.000  C
  C5471    1.0000 0.81760  0.36230  0.36374  Biso   1.000  C
  C5472    1.0000 0.81645  0.86186  0.86424  Biso   1.000  C
  C5473    1.0000 0.31699  0.36655  0.86177  Biso   1.000  C
  C5474    1.0000 0.31618  0.86211  0.36476  Biso   1.000  C
  C5475    1.0000 0.31744  0.38914  0.88517  Biso   1.000  C
  C5476    1.0000 0.81726  0.38547  0.38661  Biso   1.000  C
  C5477    1.0000 0.81637  0.88438  0.88762  Biso   1.000  C
  C5478    1.0000 0.43211  0.86449  0.38688  Biso   1.000  C
  C5479    1.0000 0.43183  0.36363  0.88626  Biso   1.000  C
  C5480    1.0000 0.93207  0.88815  0.86323  Biso   1.000  C
  C5481    1.0000 0.93172  0.38798  0.36458  Biso   1.000  C
  C5482    1.0000 0.86429  0.88791  0.93346  Biso   1.000  C
  C5483    1.0000 0.36425  0.88860  0.43295  Biso   1.000  C
  C5484    1.0000 0.38767  0.86606  0.43282  Biso   1.000  C
  C5485    1.0000 0.38736  0.36419  0.93360  Biso   1.000  C
  C5486    1.0000 0.88636  0.38725  0.31606  Biso   1.000  C
  C5487    1.0000 0.93354  0.86474  0.88580  Biso   1.000  C
  C5488    1.0000 0.93187  0.36400  0.38641  Biso   1.000  C
  C5489    1.0000 0.43174  0.38762  0.86442  Biso   1.000  C
  C5490    1.0000 0.43239  0.88749  0.36388  Biso   1.000  C
  C5491    1.0000 0.31556  0.88461  0.38809  Biso   1.000  C
  C5492    1.0000 0.88686  0.93390  0.86531  Biso   1.000  C
  C5493    1.0000 0.88324  0.43187  0.36105  Biso   1.000  C
  C5494    1.0000 0.86007  0.43246  0.38367  Biso   1.000  C
  C5495    1.0000 0.36508  0.43299  0.88939  Biso   1.000  C
  C5496    1.0000 0.38525  0.31977  0.88765  Biso   1.000  C
  C5497    1.0000 0.38650  0.81970  0.38884  Biso   1.000  C
  C5498    1.0000 0.63886  0.61398  0.06747  Biso   1.000  C
  C5499    1.0000 0.11415  0.13623  0.06832  Biso   1.000  C
  C5500    1.0000 0.11424  0.63837  0.56901  Biso   1.000  C
  C5501    1.0000 0.61500  0.11248  0.68401  Biso   1.000  C
  C5502    1.0000 0.11175  0.68209  0.61581  Biso   1.000  C
  C5503    1.0000 0.11252  0.18022  0.11392  Biso   1.000  C
  C5504    1.0000 0.13612  0.06660  0.11370  Biso   1.000  C
  C5505    1.0000 0.63492  0.06737  0.61255  Biso   1.000  C
  C5506    1.0000 0.61297  0.06866  0.63641  Biso   1.000  C
  C5507    1.0000 0.68376  0.61123  0.11508  Biso   1.000  C
  C5508    1.0000 0.56729  0.63552  0.11233  Biso   1.000  C
  C5509    1.0000 0.06883  0.11417  0.13674  Biso   1.000  C
  C5510    1.0000 0.06680  0.61321  0.63600  Biso   1.000  C
  C5511    1.0000 0.68172  0.91854  0.91951  Biso   1.000  C
  C5512    1.0000 0.66359  0.89925  0.89995  Biso   1.000  C
  C5513    1.0000 0.68234  0.41754  0.42068  Biso   1.000  C
  C5514    1.0000 0.66488  0.39822  0.40080  Biso   1.000  C
  C5515    1.0000 0.18095  0.91945  0.41974  Biso   1.000  C
  C5516    1.0000 0.16285  0.90036  0.39993  Biso   1.000  C
  C5517    1.0000 0.18306  0.41831  0.91854  Biso   1.000  C
  C5518    1.0000 0.16365  0.39910  0.90006  Biso   1.000  C
  C5519    1.0000 0.06839  0.33036  0.41889  Biso   1.000  C
  C5520    1.0000 0.08816  0.34924  0.40080  Biso   1.000  C
  C5521    1.0000 0.06872  0.83120  0.91912  Biso   1.000  C
  C5522    1.0000 0.08648  0.85171  0.90058  Biso   1.000  C
  C5523    1.0000 0.56673  0.41696  0.83175  Biso   1.000  C
  C5524    1.0000 0.58626  0.39877  0.85106  Biso   1.000  C
  C5525    1.0000 0.56695  0.91775  0.33191  Biso   1.000  C
  C5526    1.0000 0.58554  0.89951  0.35197  Biso   1.000  C
  C5527    1.0000 0.06691  0.91807  0.83178  Biso   1.000  C
  C5528    1.0000 0.08659  0.89963  0.85083  Biso   1.000  C
  C5529    1.0000 0.18297  0.83240  0.33117  Biso   1.000  C
  C5530    1.0000 0.16436  0.85165  0.35034  Biso   1.000  C
  C5531    1.0000 0.68300  0.83125  0.83121  Biso   1.000  C
  C5532    1.0000 0.66448  0.85045  0.85053  Biso   1.000  C
  C5533    1.0000 0.91730  0.68292  0.91740  Biso   1.000  C
  C5534    1.0000 0.89932  0.66237  0.89897  Biso   1.000  C
  C5535    1.0000 0.91762  0.18073  0.41913  Biso   1.000  C
  C5536    1.0000 0.89860  0.16155  0.40031  Biso   1.000  C
  C5537    1.0000 0.41779  0.68281  0.41904  Biso   1.000  C
  C5538    1.0000 0.39946  0.66285  0.40039  Biso   1.000  C
  C5539    1.0000 0.41780  0.18036  0.91975  Biso   1.000  C
  C5540    1.0000 0.39887  0.16120  0.90093  Biso   1.000  C
  C5541    1.0000 0.41860  0.06841  0.33115  Biso   1.000  C
  C5542    1.0000 0.39959  0.08621  0.35112  Biso   1.000  C
  C5543    1.0000 0.91766  0.06863  0.83034  Biso   1.000  C
  C5544    1.0000 0.89831  0.08605  0.85023  Biso   1.000  C
  C5545    1.0000 0.83125  0.56880  0.41750  Biso   1.000  C
  C5546    1.0000 0.85015  0.58860  0.39930  Biso   1.000  C
  C5547    1.0000 0.83161  0.06771  0.91818  Biso   1.000  C
  C5548    1.0000 0.85001  0.08599  0.89806  Biso   1.000  C
  C5549    1.0000 0.33123  0.18135  0.83355  Biso   1.000  C
  C5550    1.0000 0.35077  0.16213  0.85178  Biso   1.000  C
  C5551    1.0000 0.33183  0.68301  0.33278  Biso   1.000  C
  C5552    1.0000 0.35134  0.66453  0.35167  Biso   1.000  C
  C5553    1.0000 0.83213  0.68224  0.83240  Biso   1.000  C
  C5554    1.0000 0.85154  0.66285  0.85046  Biso   1.000  C
  C5555    1.0000 0.91942  0.91837  0.68210  Biso   1.000  C
  C5556    1.0000 0.90017  0.89984  0.66298  Biso   1.000  C
  C5557    1.0000 0.91940  0.41877  0.18213  Biso   1.000  C
  C5558    1.0000 0.89972  0.40001  0.16333  Biso   1.000  C
  C5559    1.0000 0.41933  0.91832  0.18268  Biso   1.000  C
  C5560    1.0000 0.40023  0.89913  0.16396  Biso   1.000  C
  C5561    1.0000 0.41831  0.41819  0.68281  Biso   1.000  C
  C5562    1.0000 0.39861  0.39940  0.66419  Biso   1.000  C
  C5563    1.0000 0.33110  0.41879  0.06883  Biso   1.000  C
  C5564    1.0000 0.35054  0.39896  0.08643  Biso   1.000  C
  C5565    1.0000 0.33174  0.91926  0.56805  Biso   1.000  C
  C5566    1.0000 0.35128  0.89974  0.58583  Biso   1.000  C
  C5567    1.0000 0.83058  0.91718  0.06780  Biso   1.000  C
  C5568    1.0000 0.85020  0.89869  0.08674  Biso   1.000  C
  C5569    1.0000 0.41964  0.83121  0.56885  Biso   1.000  C
  C5570    1.0000 0.39962  0.85046  0.58658  Biso   1.000  C
  C5571    1.0000 0.92074  0.83224  0.06854  Biso   1.000  C
  C5572    1.0000 0.90246  0.85233  0.08736  Biso   1.000  C
  C5573    1.0000 0.83029  0.33175  0.18177  Biso   1.000  C
  C5574    1.0000 0.84955  0.35200  0.16440  Biso   1.000  C
  C5575    1.0000 0.83190  0.83156  0.68202  Biso   1.000  C
  C5576    1.0000 0.85063  0.85188  0.66426  Biso   1.000  C
  C5577    1.0000 0.66842  0.93171  0.58025  Biso   1.000  C
  C5578    1.0000 0.64940  0.91410  0.60042  Biso   1.000  C
  C5579    1.0000 0.66886  0.43173  0.08254  Biso   1.000  C
  C5580    1.0000 0.64891  0.41357  0.10117  Biso   1.000  C
  C5581    1.0000 0.08030  0.31712  0.08250  Biso   1.000  C
  C5582    1.0000 0.09949  0.33642  0.10099  Biso   1.000  C
  C5583    1.0000 0.08069  0.81748  0.58120  Biso   1.000  C
  C5584    1.0000 0.09946  0.83579  0.60097  Biso   1.000  C
  C5585    1.0000 0.58091  0.31693  0.58092  Biso   1.000  C
  C5586    1.0000 0.59961  0.33629  0.59988  Biso   1.000  C
  C5587    1.0000 0.58252  0.81772  0.08092  Biso   1.000  C
  C5588    1.0000 0.60133  0.83764  0.09918  Biso   1.000  C
  C5589    1.0000 0.16717  0.81635  0.66846  Biso   1.000  C
  C5590    1.0000 0.14808  0.83523  0.64939  Biso   1.000  C
  C5591    1.0000 0.16772  0.31663  0.16975  Biso   1.000  C
  C5592    1.0000 0.14887  0.33452  0.14955  Biso   1.000  C
  C5593    1.0000 0.66744  0.31698  0.66853  Biso   1.000  C
  C5594    1.0000 0.64858  0.33499  0.64846  Biso   1.000  C
  C5595    1.0000 0.58202  0.43269  0.16896  Biso   1.000  C
  C5596    1.0000 0.60133  0.41387  0.15010  Biso   1.000  C
  C5597    1.0000 0.08042  0.43234  0.66966  Biso   1.000  C
  C5598    1.0000 0.09921  0.41409  0.64977  Biso   1.000  C
  C5599    1.0000 0.43260  0.17002  0.58300  Biso   1.000  C
  C5600    1.0000 0.41338  0.15084  0.60154  Biso   1.000  C
  C5601    1.0000 0.43292  0.66817  0.08191  Biso   1.000  C
  C5602    1.0000 0.41352  0.64850  0.09961  Biso   1.000  C
  C5603    1.0000 0.81733  0.66815  0.16836  Biso   1.000  C
  C5604    1.0000 0.83485  0.64929  0.14795  Biso   1.000  C
  C5605    1.0000 0.31925  0.66876  0.66962  Biso   1.000  C
  C5606    1.0000 0.33767  0.65006  0.64984  Biso   1.000  C
  C5607    1.0000 0.31783  0.08134  0.08050  Biso   1.000  C
  C5608    1.0000 0.33695  0.10042  0.09931  Biso   1.000  C
  C5609    1.0000 0.31791  0.58247  0.58069  Biso   1.000  C
  C5610    1.0000 0.33668  0.60164  0.59977  Biso   1.000  C
  C5611    1.0000 0.81736  0.08190  0.58137  Biso   1.000  C
  C5612    1.0000 0.83697  0.10080  0.59985  Biso   1.000  C
  C5613    1.0000 0.81704  0.58113  0.08116  Biso   1.000  C
  C5614    1.0000 0.83519  0.60003  0.10103  Biso   1.000  C
  C5615    1.0000 0.93211  0.58110  0.66807  Biso   1.000  C
  C5616    1.0000 0.91365  0.60002  0.64848  Biso   1.000  C
  C5617    1.0000 0.93287  0.08264  0.16887  Biso   1.000  C
  C5618    1.0000 0.91422  0.10222  0.15007  Biso   1.000  C
  C5619    1.0000 0.43256  0.08329  0.66910  Biso   1.000  C
  C5620    1.0000 0.41421  0.10193  0.64909  Biso   1.000  C
  C5621    1.0000 0.66864  0.16952  0.81933  Biso   1.000  C
  C5622    1.0000 0.64915  0.15041  0.83772  Biso   1.000  C
  C5623    1.0000 0.66789  0.66970  0.31783  Biso   1.000  C
  C5624    1.0000 0.65003  0.64964  0.33669  Biso   1.000  C
  C5625    1.0000 0.16923  0.58089  0.43146  Biso   1.000  C
  C5626    1.0000 0.15038  0.60034  0.41262  Biso   1.000  C
  C5627    1.0000 0.16692  0.08216  0.93187  Biso   1.000  C
  C5628    1.0000 0.14878  0.10164  0.91272  Biso   1.000  C
  C5629    1.0000 0.66752  0.08065  0.43161  Biso   1.000  C
  C5630    1.0000 0.64807  0.09981  0.41315  Biso   1.000  C
  C5631    1.0000 0.58089  0.66898  0.93051  Biso   1.000  C
  C5632    1.0000 0.59990  0.64953  0.91198  Biso   1.000  C
  C5633    1.0000 0.08158  0.66906  0.43065  Biso   1.000  C
  C5634    1.0000 0.10090  0.64988  0.41208  Biso   1.000  C
  C5635    1.0000 0.08221  0.07949  0.31805  Biso   1.000  C
  C5636    1.0000 0.10133  0.09851  0.33698  Biso   1.000  C
  C5637    1.0000 0.08082  0.58236  0.81793  Biso   1.000  C
  C5638    1.0000 0.09990  0.60160  0.83653  Biso   1.000  C
  C5639    1.0000 0.58122  0.08139  0.81825  Biso   1.000  C
  C5640    1.0000 0.60120  0.10059  0.83596  Biso   1.000  C
  C5641    1.0000 0.58077  0.58179  0.31840  Biso   1.000  C
  C5642    1.0000 0.60029  0.60145  0.33626  Biso   1.000  C
  C5643    1.0000 0.93263  0.66827  0.58133  Biso   1.000  C
  C5644    1.0000 0.91355  0.64870  0.59947  Biso   1.000  C
  C5645    1.0000 0.93280  0.16761  0.08089  Biso   1.000  C
  C5646    1.0000 0.91333  0.14862  0.09956  Biso   1.000  C
  C5647    1.0000 0.43105  0.58089  0.16895  Biso   1.000  C
  C5648    1.0000 0.41235  0.59972  0.14941  Biso   1.000  C
  C5649    1.0000 0.81983  0.16998  0.66860  Biso   1.000  C
  C5650    1.0000 0.83779  0.15070  0.64891  Biso   1.000  C
  C5651    1.0000 0.31934  0.16983  0.16822  Biso   1.000  C
  C5652    1.0000 0.33722  0.15052  0.14852  Biso   1.000  C
  C5653    1.0000 0.58220  0.93360  0.66862  Biso   1.000  C
  C5654    1.0000 0.60087  0.91569  0.64847  Biso   1.000  C
  C5655    1.0000 0.08258  0.93254  0.16776  Biso   1.000  C
  C5656    1.0000 0.10162  0.91458  0.14807  Biso   1.000  C
  C5657    1.0000 0.16711  0.43261  0.58208  Biso   1.000  C
  C5658    1.0000 0.14825  0.41467  0.60197  Biso   1.000  C
  C5659    1.0000 0.17020  0.93208  0.08137  Biso   1.000  C
  C5660    1.0000 0.15094  0.91390  0.10088  Biso   1.000  C
  C5661    1.0000 0.66954  0.81728  0.16811  Biso   1.000  C
  C5662    1.0000 0.65025  0.83592  0.14893  Biso   1.000  C
  C5663    1.0000 0.66720  0.58013  0.93266  Biso   1.000  C
  C5664    1.0000 0.64780  0.59932  0.91412  Biso   1.000  C
  C5665    1.0000 0.57977  0.16813  0.43006  Biso   1.000  C
  C5666    1.0000 0.59932  0.14923  0.41149  Biso   1.000  C
  C5667    1.0000 0.08097  0.16876  0.93006  Biso   1.000  C
  C5668    1.0000 0.09961  0.14888  0.91154  Biso   1.000  C
  C5669    1.0000 0.16812  0.66936  0.81825  Biso   1.000  C
  C5670    1.0000 0.14871  0.65025  0.83688  Biso   1.000  C
  C5671    1.0000 0.16742  0.16855  0.31826  Biso   1.000  C
  C5672    1.0000 0.14935  0.14847  0.33688  Biso   1.000  C
  C5673    1.0000 0.33229  0.06781  0.41838  Biso   1.000  C
  C5674    1.0000 0.35115  0.08604  0.39866  Biso   1.000  C
  C5675    1.0000 0.33285  0.56755  0.91916  Biso   1.000  C
  C5676    1.0000 0.35082  0.58674  0.89946  Biso   1.000  C
  C5677    1.0000 0.83148  0.18103  0.33193  Biso   1.000  C
  C5678    1.0000 0.85094  0.16205  0.35049  Biso   1.000  C
  C5679    1.0000 0.41734  0.56709  0.83086  Biso   1.000  C
  C5680    1.0000 0.39873  0.58537  0.85080  Biso   1.000  C
  C5681    1.0000 0.91890  0.56866  0.33096  Biso   1.000  C
  C5682    1.0000 0.90044  0.58856  0.34950  Biso   1.000  C
  C5683    1.0000 0.56797  0.83215  0.41983  Biso   1.000  C
  C5684    1.0000 0.58635  0.85168  0.40088  Biso   1.000  C
  C5685    1.0000 0.56864  0.32990  0.91879  Biso   1.000  C
  C5686    1.0000 0.58834  0.34885  0.90046  Biso   1.000  C
  C5687    1.0000 0.18140  0.33155  0.83077  Biso   1.000  C
  C5688    1.0000 0.16376  0.35197  0.84963  Biso   1.000  C
  C5689    1.0000 0.68254  0.33168  0.33192  Biso   1.000  C
  C5690    1.0000 0.66463  0.35015  0.35235  Biso   1.000  C
  C5691    1.0000 0.06764  0.41770  0.33265  Biso   1.000  C
  C5692    1.0000 0.08718  0.39936  0.35179  Biso   1.000  C
  C5693    1.0000 0.33374  0.82991  0.18267  Biso   1.000  C
  C5694    1.0000 0.35204  0.84998  0.16418  Biso   1.000  C
  C5695    1.0000 0.33021  0.32967  0.68189  Biso   1.000  C
  C5696    1.0000 0.34883  0.35008  0.66387  Biso   1.000  C
  C5697    1.0000 0.83168  0.41959  0.56756  Biso   1.000  C
  C5698    1.0000 0.85073  0.39932  0.58503  Biso   1.000  C
  C5699    1.0000 0.42023  0.33151  0.06863  Biso   1.000  C
  C5700    1.0000 0.40077  0.35014  0.08756  Biso   1.000  C
  C5701    1.0000 0.92017  0.33132  0.56814  Biso   1.000  C
  C5702    1.0000 0.90065  0.35005  0.58687  Biso   1.000  C
  C5703    1.0000 0.33048  0.30973  0.77238  Biso   1.000  C
  C5704    1.0000 0.23496  0.24499  0.79007  Biso   1.000  C
  C5705    1.0000 0.06803  0.95133  0.46261  Biso   1.000  C
  C5706    1.0000 0.09276  0.92547  0.38681  Biso   1.000  C
  C5707    1.0000 0.67461  0.92463  0.90603  Biso   1.000  C
  C5708    1.0000 0.15715  0.98841  0.44756  Biso   1.000  C
  C5709    1.0000 0.87990  0.39222  0.43458  Biso   1.000  C
  C5710    1.0000 0.33054  0.80657  0.25650  Biso   1.000  C
  C5711    1.0000 0.23438  0.74426  0.29275  Biso   1.000  C
  C5712    1.0000 0.07338  0.44514  0.95775  Biso   1.000  C
  C5713    1.0000 0.09076  0.44161  0.88989  Biso   1.000  C
  C5714    1.0000 0.67469  0.40969  0.39457  Biso   1.000  C
  C5715    1.0000 0.15600  0.48449  0.94872  Biso   1.000  C
  C5716    1.0000 0.83734  0.31413  0.26860  Biso   1.000  C
  C5717    1.0000 0.73638  0.24676  0.28844  Biso   1.000  C
  C5718    1.0000 0.56832  0.95124  0.96271  Biso   1.000  C
  C5719    1.0000 0.59283  0.92422  0.88717  Biso   1.000  C
  C5720    1.0000 0.17362  0.92574  0.40648  Biso   1.000  C
  C5721    1.0000 0.65703  0.98784  0.94643  Biso   1.000  C
  C5722    1.0000 0.83491  0.81018  0.75439  Biso   1.000  C
  C5723    1.0000 0.73508  0.74387  0.79109  Biso   1.000  C
  C5724    1.0000 0.59257  0.44064  0.39313  Biso   1.000  C
  C5725    1.0000 0.18580  0.41667  0.90239  Biso   1.000  C
  C5726    1.0000 0.65549  0.48589  0.44809  Biso   1.000  C
  C5727    1.0000 0.41440  0.92433  0.26669  Biso   1.000  C
  C5728    1.0000 0.66157  0.28578  0.97528  Biso   1.000  C
  C5729    1.0000 0.65615  0.32466  0.88667  Biso   1.000  C
  C5730    1.0000 0.58382  0.26376  0.91732  Biso   1.000  C
  C5731    1.0000 0.66266  0.78586  0.47624  Biso   1.000  C
  C5732    1.0000 0.64692  0.82472  0.39589  Biso   1.000  C
  C5733    1.0000 0.58358  0.76401  0.41879  Biso   1.000  C
  C5734    1.0000 0.91563  0.93929  0.77082  Biso   1.000  C
  C5735    1.0000 0.16962  0.28563  0.47587  Biso   1.000  C
  C5736    1.0000 0.15705  0.32273  0.38380  Biso   1.000  C
  C5737    1.0000 0.08485  0.26406  0.41805  Biso   1.000  C
  C5738    1.0000 0.93129  0.44303  0.27463  Biso   1.000  C
  C5739    1.0000 0.18235  0.80047  0.95986  Biso   1.000  C
  C5740    1.0000 0.15553  0.82506  0.88804  Biso   1.000  C
  C5741    1.0000 0.08335  0.76271  0.91836  Biso   1.000  C
  C5742    1.0000 0.36866  0.38987  0.81740  Biso   1.000  C
  C5743    1.0000 0.91400  0.81739  0.98083  Biso   1.000  C
  C5744    1.0000 0.00187  0.75809  0.95867  Biso   1.000  C
  C5745    1.0000 0.16228  0.44005  0.36448  Biso   1.000  C
  C5746    1.0000 0.57946  0.41260  0.85677  Biso   1.000  C
  C5747    1.0000 0.09358  0.48629  0.30494  Biso   1.000  C
  C5748    1.0000 0.37461  0.88705  0.33192  Biso   1.000  C
  C5749    1.0000 0.91356  0.31477  0.48090  Biso   1.000  C
  C5750    1.0000 0.15673  0.92770  0.86848  Biso   1.000  C
  C5751    1.0000 0.57685  0.91205  0.35788  Biso   1.000  C
  C5752    1.0000 0.10926  0.97432  0.82315  Biso   1.000  C
  C5753    1.0000 0.87055  0.39148  0.31753  Biso   1.000  C
  C5754    1.0000 0.41437  0.82074  0.48340  Biso   1.000  C
  C5755    1.0000 0.50674  0.75396  0.43504  Biso   1.000  C
  C5756    1.0000 0.66162  0.44028  0.86378  Biso   1.000  C
  C5757    1.0000 0.08047  0.41320  0.35757  Biso   1.000  C
  C5758    1.0000 0.58688  0.49331  0.81096  Biso   1.000  C
  C5759    1.0000 0.87307  0.88792  0.83170  Biso   1.000  C
  C5760    1.0000 0.41408  0.31463  0.98093  Biso   1.000  C
  C5761    1.0000 0.63267  0.93591  0.37541  Biso   1.000  C
  C5762    1.0000 0.07973  0.91339  0.85670  Biso   1.000  C
  C5763    1.0000 0.60902  0.97337  0.32521  Biso   1.000  C
  C5764    1.0000 0.83266  0.43821  0.47839  Biso   1.000  C
  C5765    1.0000 0.57005  0.80285  0.79227  Biso   1.000  C
  C5766    1.0000 0.59331  0.82156  0.86882  Biso   1.000  C
  C5767    1.0000 0.65731  0.76349  0.80187  Biso   1.000  C
  C5768    1.0000 0.83537  0.92241  0.98336  Biso   1.000  C
  C5769    1.0000 0.56833  0.30210  0.29193  Biso   1.000  C
  C5770    1.0000 0.59308  0.32484  0.36339  Biso   1.000  C
  C5771    1.0000 0.65782  0.26231  0.30393  Biso   1.000  C
  C5772    1.0000 0.33722  0.43270  0.98246  Biso   1.000  C
  C5773    1.0000 0.06962  0.80346  0.29214  Biso   1.000  C
  C5774    1.0000 0.09273  0.82259  0.36818  Biso   1.000  C
  C5775    1.0000 0.15721  0.76421  0.30271  Biso   1.000  C
  C5776    1.0000 0.33189  0.93894  0.47859  Biso   1.000  C
  C5777    1.0000 0.06718  0.30205  0.79098  Biso   1.000  C
  C5778    1.0000 0.09427  0.32584  0.86174  Biso   1.000  C
  C5779    1.0000 0.67361  0.33778  0.35816  Biso   1.000  C
  C5780    1.0000 0.16568  0.26322  0.83129  Biso   1.000  C
  C5781    1.0000 0.37939  0.11194  0.95007  Biso   1.000  C
  C5782    1.0000 0.41727  0.16505  0.98160  Biso   1.000  C
  C5783    1.0000 0.36806  0.60934  0.43531  Biso   1.000  C
  C5784    1.0000 0.91042  0.16738  0.42540  Biso   1.000  C
  C5785    1.0000 0.41687  0.66483  0.47894  Biso   1.000  C
  C5786    1.0000 0.31800  0.23985  0.75310  Biso   1.000  C
  C5787    1.0000 0.95735  0.07130  0.44716  Biso   1.000  C
  C5788    1.0000 0.86793  0.10970  0.43565  Biso   1.000  C
  C5789    1.0000 0.91761  0.16573  0.48130  Biso   1.000  C
  C5790    1.0000 0.86771  0.60967  0.93545  Biso   1.000  C
  C5791    1.0000 0.41103  0.16674  0.92590  Biso   1.000  C
  C5792    1.0000 0.91671  0.66461  0.97789  Biso   1.000  C
  C5793    1.0000 0.31823  0.50925  0.99858  Biso   1.000  C
  C5794    1.0000 0.95837  0.67781  0.30354  Biso   1.000  C
  C5795    1.0000 0.89339  0.65878  0.30896  Biso   1.000  C
  C5796    1.0000 0.92164  0.59682  0.25173  Biso   1.000  C
  C5797    1.0000 0.31827  0.00979  0.49816  Biso   1.000  C
  C5798    1.0000 0.88885  0.16037  0.80915  Biso   1.000  C
  C5799    1.0000 0.91983  0.09836  0.75181  Biso   1.000  C
  C5800    1.0000 0.81807  0.50993  0.49723  Biso   1.000  C
  C5801    1.0000 0.45798  0.67846  0.80388  Biso   1.000  C
  C5802    1.0000 0.38960  0.66011  0.80942  Biso   1.000  C
  C5803    1.0000 0.44088  0.61168  0.76901  Biso   1.000  C
  C5804    1.0000 0.81856  0.00907  0.99791  Biso   1.000  C
  C5805    1.0000 0.38927  0.16015  0.30935  Biso   1.000  C
  C5806    1.0000 0.90426  0.59265  0.33406  Biso   1.000  C
  C5807    1.0000 0.41928  0.09735  0.25254  Biso   1.000  C
  C5808    1.0000 0.93089  0.01039  0.75177  Biso   1.000  C
  C5809    1.0000 0.29269  0.17784  0.44651  Biso   1.000  C
  C5810    1.0000 0.38003  0.13473  0.43586  Biso   1.000  C
  C5811    1.0000 0.84648  0.59247  0.41483  Biso   1.000  C
  C5812    1.0000 0.33548  0.09706  0.49298  Biso   1.000  C
  C5813    1.0000 0.81533  0.86854  0.89156  Biso   1.000  C
  C5814    1.0000 0.93292  0.51018  0.25090  Biso   1.000  C
  C5815    1.0000 0.36490  0.66232  0.93999  Biso   1.000  C
  C5816    1.0000 0.33698  0.59785  0.99146  Biso   1.000  C
  C5817    1.0000 0.30645  0.37700  0.88570  Biso   1.000  C
  C5818    1.0000 0.79202  0.17741  0.94698  Biso   1.000  C
  C5819    1.0000 0.87926  0.13426  0.93479  Biso   1.000  C
  C5820    1.0000 0.34911  0.56835  0.92098  Biso   1.000  C
  C5821    1.0000 0.83501  0.09669  0.99347  Biso   1.000  C
  C5822    1.0000 0.31466  0.86879  0.39205  Biso   1.000  C
  C5823    1.0000 0.49289  0.41968  0.80815  Biso   1.000  C
  C5824    1.0000 0.43273  0.51059  0.75000  Biso   1.000  C
  C5825    1.0000 0.85819  0.66133  0.43911  Biso   1.000  C
  C5826    1.0000 0.80820  0.60819  0.49031  Biso   1.000  C
  C5827    1.0000 0.79203  0.57160  0.80313  Biso   1.000  C
  C5828    1.0000 0.88184  0.60908  0.81463  Biso   1.000  C
  C5829    1.0000 0.83291  0.66541  0.76654  Biso   1.000  C
  C5830    1.0000 0.88214  0.10960  0.31481  Biso   1.000  C
  C5831    1.0000 0.35766  0.67363  0.33962  Biso   1.000  C
  C5832    1.0000 0.80532  0.15806  0.26048  Biso   1.000  C
  C5833    1.0000 0.29394  0.57277  0.30536  Biso   1.000  C
  C5834    1.0000 0.37408  0.62018  0.31491  Biso   1.000  C
  C5835    1.0000 0.32959  0.66670  0.26330  Biso   1.000  C
  C5836    1.0000 0.27466  0.08728  0.78572  Biso   1.000  C
  C5837    1.0000 0.38183  0.11081  0.81464  Biso   1.000  C
  C5838    1.0000 0.85788  0.67213  0.83857  Biso   1.000  C
  C5839    1.0000 0.30467  0.15872  0.76135  Biso   1.000  C
  C5840    1.0000 0.31964  0.76840  0.33756  Biso   1.000  C
  C5841    1.0000 0.25712  0.81631  0.24517  Biso   1.000  C
  C5842    1.0000 0.96329  0.47373  0.09100  Biso   1.000  C
  C5843    1.0000 0.93954  0.39860  0.09736  Biso   1.000  C
  C5844    1.0000 0.99274  0.44433  0.15982  Biso   1.000  C
  C5845    1.0000 0.31090  0.27121  0.83603  Biso   1.000  C
  C5846    1.0000 0.24598  0.28876  0.73615  Biso   1.000  C
  C5847    1.0000 0.96332  0.97466  0.58765  Biso   1.000  C
  C5848    1.0000 0.94082  0.89274  0.59136  Biso   1.000  C
  C5849    1.0000 0.98716  0.94863  0.65655  Biso   1.000  C
  C5850    1.0000 0.82036  0.76825  0.83693  Biso   1.000  C
  C5851    1.0000 0.76275  0.80949  0.75103  Biso   1.000  C
  C5852    1.0000 0.46195  0.47331  0.59019  Biso   1.000  C
  C5853    1.0000 0.43884  0.39875  0.59834  Biso   1.000  C
  C5854    1.0000 0.48040  0.41793  0.66487  Biso   1.000  C
  C5855    1.0000 0.81681  0.26915  0.33709  Biso   1.000  C
  C5856    1.0000 0.74675  0.29007  0.23645  Biso   1.000  C
  C5857    1.0000 0.46262  0.97357  0.08943  Biso   1.000  C
  C5858    1.0000 0.44138  0.89261  0.09108  Biso   1.000  C
  C5859    1.0000 0.48583  0.94787  0.15589  Biso   1.000  C
  C5860    1.0000 0.31890  0.88899  0.63109  Biso   1.000  C
  C5861    1.0000 0.26241  0.94883  0.59379  Biso   1.000  C
  C5862    1.0000 0.35862  0.93599  0.36906  Biso   1.000  C
  C5863    1.0000 0.28583  0.47423  0.17147  Biso   1.000  C
  C5864    1.0000 0.31474  0.37561  0.12982  Biso   1.000  C
  C5865    1.0000 0.26884  0.44040  0.11205  Biso   1.000  C
  C5866    1.0000 0.78600  0.97536  0.16348  Biso   1.000  C
  C5867    1.0000 0.81500  0.87294  0.13240  Biso   1.000  C
  C5868    1.0000 0.75994  0.94658  0.09252  Biso   1.000  C
  C5869    1.0000 0.78564  0.47416  0.67036  Biso   1.000  C
  C5870    1.0000 0.81408  0.37598  0.62805  Biso   1.000  C
  C5871    1.0000 0.82508  0.90319  0.07438  Biso   1.000  C
  C5872    1.0000 0.76888  0.44071  0.61103  Biso   1.000  C
  C5873    1.0000 0.81098  0.97874  0.91713  Biso   1.000  C
  C5874    1.0000 0.43496  0.38164  0.13911  Biso   1.000  C
  C5875    1.0000 0.40833  0.85671  0.57412  Biso   1.000  C
  C5876    1.0000 0.49423  0.33383  0.09691  Biso   1.000  C
  C5877    1.0000 0.38858  0.31723  0.87175  Biso   1.000  C
  C5878    1.0000 0.81130  0.47899  0.41570  Biso   1.000  C
  C5879    1.0000 0.43581  0.87750  0.63187  Biso   1.000  C
  C5880    1.0000 0.48983  0.82739  0.58461  Biso   1.000  C
  C5881    1.0000 0.31072  0.97930  0.41628  Biso   1.000  C
  C5882    1.0000 0.24222  0.95263  0.51962  Biso   1.000  C
  C5883    1.0000 0.93391  0.38219  0.63935  Biso   1.000  C
  C5884    1.0000 0.91883  0.85150  0.08929  Biso   1.000  C
  C5885    1.0000 0.99264  0.33478  0.59684  Biso   1.000  C
  C5886    1.0000 0.31270  0.49581  0.91783  Biso   1.000  C
  C5887    1.0000 0.24214  0.45112  0.01938  Biso   1.000  C
  C5888    1.0000 0.93568  0.88067  0.13708  Biso   1.000  C
  C5889    1.0000 0.99495  0.83320  0.09610  Biso   1.000  C
  C5890    1.0000 0.81005  0.85124  0.59952  Biso   1.000  C
  C5891    1.0000 0.83500  0.35707  0.17005  Biso   1.000  C
  C5892    1.0000 0.75662  0.83497  0.65470  Biso   1.000  C
  C5893    1.0000 0.86028  0.82246  0.87947  Biso   1.000  C
  C5894    1.0000 0.50655  0.95919  0.23411  Biso   1.000  C
  C5895    1.0000 0.81409  0.37641  0.11795  Biso   1.000  C
  C5896    1.0000 0.83563  0.85643  0.66907  Biso   1.000  C
  C5897    1.0000 0.75852  0.30611  0.14175  Biso   1.000  C
  C5898    1.0000 0.93248  0.48171  0.33756  Biso   1.000  C
  C5899    1.0000 0.00827  0.45035  0.23228  Biso   1.000  C
  C5900    1.0000 0.32526  0.86686  0.09139  Biso   1.000  C
  C5901    1.0000 0.26295  0.83980  0.15243  Biso   1.000  C
  C5902    1.0000 0.35970  0.82241  0.38066  Biso   1.000  C
  C5903    1.0000 0.93571  0.98129  0.83358  Biso   1.000  C
  C5904    1.0000 0.32267  0.36764  0.59290  Biso   1.000  C
  C5905    1.0000 0.34037  0.85605  0.17388  Biso   1.000  C
  C5906    1.0000 0.25562  0.33293  0.65467  Biso   1.000  C
  C5907    1.0000 0.00379  0.49391  0.68293  Biso   1.000  C
  C5908    1.0000 0.68987  0.33760  0.11335  Biso   1.000  C
  C5909    1.0000 0.66159  0.92316  0.60643  Biso   1.000  C
  C5910    1.0000 0.74062  0.40238  0.08677  Biso   1.000  C
  C5911    1.0000 0.71435  0.83927  0.52584  Biso   1.000  C
  C5912    1.0000 0.68914  0.84791  0.60230  Biso   1.000  C
  C5913    1.0000 0.74230  0.90360  0.58720  Biso   1.000  C
  C5914    1.0000 0.50174  0.49099  0.18200  Biso   1.000  C
  C5915    1.0000 0.18892  0.34865  0.60241  Biso   1.000  C
  C5916    1.0000 0.23981  0.40322  0.58911  Biso   1.000  C
  C5917    1.0000 0.49621  0.98591  0.68483  Biso   1.000  C
  C5918    1.0000 0.21322  0.83955  0.02631  Biso   1.000  C
  C5919    1.0000 0.19076  0.84872  0.10141  Biso   1.000  C
  C5920    1.0000 0.16003  0.42414  0.60817  Biso   1.000  C
  C5921    1.0000 0.24552  0.90441  0.08192  Biso   1.000  C
  C5922    1.0000 0.75721  0.76623  0.20805  Biso   1.000  C
  C5923    1.0000 0.07331  0.90791  0.61751  Biso   1.000  C
  C5924    1.0000 0.00439  0.85601  0.55866  Biso   1.000  C
  C5925    1.0000 0.75571  0.26604  0.70819  Biso   1.000  C
  C5926    1.0000 0.05395  0.42714  0.04340  Biso   1.000  C
  C5927    1.0000 0.06487  0.38781  0.13245  Biso   1.000  C
  C5928    1.0000 0.08716  0.82694  0.60714  Biso   1.000  C
  C5929    1.0000 0.00659  0.34619  0.08506  Biso   1.000  C
  C5930    1.0000 0.25582  0.76598  0.70686  Biso   1.000  C
  C5931    1.0000 0.57349  0.90655  0.11903  Biso   1.000  C
  C5932    1.0000 0.50593  0.85538  0.05875  Biso   1.000  C
  C5933    1.0000 0.25605  0.26583  0.20944  Biso   1.000  C
  C5934    1.0000 0.55212  0.42692  0.54234  Biso   1.000  C
  C5935    1.0000 0.56409  0.38803  0.63168  Biso   1.000  C
  C5936    1.0000 0.50751  0.34637  0.58635  Biso   1.000  C
  C5937    1.0000 0.49346  0.26640  0.53960  Biso   1.000  C
  C5938    1.0000 0.18539  0.37959  0.12627  Biso   1.000  C
  C5939    1.0000 0.23603  0.33326  0.16977  Biso   1.000  C
  C5940    1.0000 0.14256  0.11883  0.18518  Biso   1.000  C
  C5941    1.0000 0.49371  0.76680  0.04417  Biso   1.000  C
  C5942    1.0000 0.19665  0.93028  0.70831  Biso   1.000  C
  C5943    1.0000 0.18547  0.88000  0.62550  Biso   1.000  C
  C5944    1.0000 0.16122  0.32560  0.14359  Biso   1.000  C
  C5945    1.0000 0.23177  0.85169  0.66367  Biso   1.000  C
  C5946    1.0000 0.64153  0.61903  0.18528  Biso   1.000  C
  C5947    1.0000 0.68462  0.38044  0.62502  Biso   1.000  C
  C5948    1.0000 0.65851  0.82321  0.14258  Biso   1.000  C
  C5949    1.0000 0.73539  0.33336  0.66796  Biso   1.000  C
  C5950    1.0000 0.64209  0.11960  0.68114  Biso   1.000  C
  C5951    1.0000 0.99252  0.76674  0.54154  Biso   1.000  C
  C5952    1.0000 0.70252  0.93114  0.21385  Biso   1.000  C
  C5953    1.0000 0.67568  0.90731  0.13607  Biso   1.000  C
  C5954    1.0000 0.66095  0.32613  0.64244  Biso   1.000  C
  C5955    1.0000 0.74350  0.85577  0.19025  Biso   1.000  C
  C5956    1.0000 0.23926  0.00053  0.05792  Biso   1.000  C
  C5957    1.0000 0.56366  0.87013  0.62609  Biso   1.000  C
  C5958    1.0000 0.51776  0.89750  0.66510  Biso   1.000  C
  C5959    1.0000 0.18813  0.58075  0.50446  Biso   1.000  C
  C5960    1.0000 0.24526  0.49380  0.56674  Biso   1.000  C
  C5961    1.0000 0.53752  0.34220  0.22414  Biso   1.000  C
  C5962    1.0000 0.55934  0.33785  0.13666  Biso   1.000  C
  C5963    1.0000 0.58879  0.92492  0.64245  Biso   1.000  C
  C5964    1.0000 0.50796  0.40325  0.16405  Biso   1.000  C
  C5965    1.0000 0.74474  0.99490  0.56564  Biso   1.000  C
  C5966    1.0000 0.03854  0.84143  0.22309  Biso   1.000  C
  C5967    1.0000 0.06543  0.86751  0.12407  Biso   1.000  C
  C5968    1.0000 0.00952  0.90277  0.16191  Biso   1.000  C
  C5969    1.0000 0.74902  0.48955  0.06810  Biso   1.000  C
  C5970    1.0000 0.03721  0.34248  0.72360  Biso   1.000  C
  C5971    1.0000 0.06369  0.36806  0.62461  Biso   1.000  C
  C5972    1.0000 0.08952  0.92361  0.14180  Biso   1.000  C
  C5973    1.0000 0.00631  0.40397  0.66492  Biso   1.000  C
  C5974    1.0000 0.84017  0.72419  0.53763  Biso   1.000  C
  C5975    1.0000 0.85744  0.62274  0.54983  Biso   1.000  C
  C5976    1.0000 0.89354  0.69052  0.50648  Biso   1.000  C
  C5977    1.0000 0.81867  0.21359  0.04668  Biso   1.000  C
  C5978    1.0000 0.86501  0.12895  0.05007  Biso   1.000  C
  C5979    1.0000 0.90363  0.16416  0.00676  Biso   1.000  C
  C5980    1.0000 0.12836  0.18191  0.11009  Biso   1.000  C
  C5981    1.0000 0.33941  0.72600  0.03544  Biso   1.000  C
  C5982    1.0000 0.36479  0.62900  0.05028  Biso   1.000  C
  C5983    1.0000 0.39469  0.69181  0.00708  Biso   1.000  C
  C5984    1.0000 0.31756  0.21326  0.54764  Biso   1.000  C
  C5985    1.0000 0.34344  0.13650  0.57517  Biso   1.000  C
  C5986    1.0000 0.41642  0.16732  0.51541  Biso   1.000  C
  C5987    1.0000 0.16522  0.52011  0.56271  Biso   1.000  C
  C5988    1.0000 0.26902  0.54869  0.49199  Biso   1.000  C
  C5989    1.0000 0.43166  0.20889  0.19737  Biso   1.000  C
  C5990    1.0000 0.40564  0.13248  0.17691  Biso   1.000  C
  C5991    1.0000 0.34622  0.18602  0.22017  Biso   1.000  C
  C5992    1.0000 0.26473  0.04034  0.99420  Biso   1.000  C
  C5993    1.0000 0.40668  0.63031  0.67747  Biso   1.000  C
  C5994    1.0000 0.34484  0.69761  0.73391  Biso   1.000  C
  C5995    1.0000 0.76207  0.53781  0.99911  Biso   1.000  C
  C5996    1.0000 0.93160  0.21000  0.69752  Biso   1.000  C
  C5997    1.0000 0.90638  0.13320  0.67675  Biso   1.000  C
  C5998    1.0000 0.84639  0.18685  0.72026  Biso   1.000  C
  C5999    1.0000 0.76528  0.03991  0.49486  Biso   1.000  C
  C6000    1.0000 0.93222  0.70805  0.19623  Biso   1.000  C
  C6001    1.0000 0.90623  0.63218  0.17633  Biso   1.000  C
  C6002    1.0000 0.84447  0.69694  0.23574  Biso   1.000  C
  C6003    1.0000 0.66986  0.24374  0.69116  Biso   1.000  C
  C6004    1.0000 0.88484  0.63052  0.06405  Biso   1.000  C
  C6005    1.0000 0.33109  0.10599  0.08500  Biso   1.000  C
  C6006    1.0000 0.84075  0.55477  0.00889  Biso   1.000  C
  C6007    1.0000 0.67029  0.74399  0.18862  Biso   1.000  C
  C6008    1.0000 0.76452  0.71261  0.25373  Biso   1.000  C
  C6009    1.0000 0.88544  0.13029  0.56403  Biso   1.000  C
  C6010    1.0000 0.33429  0.60541  0.58396  Biso   1.000  C
  C6011    1.0000 0.85829  0.07583  0.52643  Biso   1.000  C
  C6012    1.0000 0.16934  0.24402  0.18987  Biso   1.000  C
  C6013    1.0000 0.38588  0.63053  0.56459  Biso   1.000  C
  C6014    1.0000 0.83099  0.10640  0.58561  Biso   1.000  C
  C6015    1.0000 0.35874  0.55769  0.51050  Biso   1.000  C
  C6016    1.0000 0.16952  0.74339  0.68971  Biso   1.000  C
  C6017    1.0000 0.26524  0.71207  0.75409  Biso   1.000  C
  C6018    1.0000 0.38562  0.12977  0.06413  Biso   1.000  C
  C6019    1.0000 0.35880  0.07418  0.02629  Biso   1.000  C
  C6020    1.0000 0.33608  0.02484  0.71481  Biso   1.000  C
  C6021    1.0000 0.40854  0.05534  0.74083  Biso   1.000  C
  C6022    1.0000 0.12972  0.06650  0.14108  Biso   1.000  C
  C6023    1.0000 0.49733  0.20897  0.50813  Biso   1.000  C
  C6024    1.0000 0.32961  0.52560  0.21427  Biso   1.000  C
  C6025    1.0000 0.36968  0.62469  0.18500  Biso   1.000  C
  C6026    1.0000 0.91861  0.10682  0.16524  Biso   1.000  C
  C6027    1.0000 0.40042  0.58549  0.23559  Biso   1.000  C
  C6028    1.0000 0.86141  0.13229  0.18521  Biso   1.000  C
  C6029    1.0000 0.89184  0.05823  0.23907  Biso   1.000  C
  C6030    1.0000 0.62887  0.06713  0.64003  Biso   1.000  C
  C6031    1.0000 0.83883  0.52575  0.71229  Biso   1.000  C
  C6032    1.0000 0.86806  0.62532  0.68541  Biso   1.000  C
  C6033    1.0000 0.89112  0.57412  0.72425  Biso   1.000  C
  C6034    1.0000 0.50385  0.56174  0.16645  Biso   1.000  C
  C6035    1.0000 0.13143  0.19204  0.41046  Biso   1.000  C
  C6036    1.0000 0.66092  0.17565  0.83246  Biso   1.000  C
  C6037    1.0000 0.17291  0.24795  0.34782  Biso   1.000  C
  C6038    1.0000 0.51952  0.06600  0.66365  Biso   1.000  C
  C6039    1.0000 0.13623  0.69051  0.91265  Biso   1.000  C
  C6040    1.0000 0.65164  0.67148  0.31869  Biso   1.000  C
  C6041    1.0000 0.16417  0.74175  0.84736  Biso   1.000  C
  C6042    1.0000 0.01785  0.56560  0.66322  Biso   1.000  C
  C6043    1.0000 0.64173  0.18948  0.91070  Biso   1.000  C
  C6044    1.0000 0.15119  0.17051  0.31917  Biso   1.000  C
  C6045    1.0000 0.66515  0.24157  0.84684  Biso   1.000  C
  C6046    1.0000 0.01989  0.06578  0.16284  Biso   1.000  C
  C6047    1.0000 0.63659  0.69065  0.41238  Biso   1.000  C
  C6048    1.0000 0.14444  0.66578  0.83355  Biso   1.000  C
  C6049    1.0000 0.66466  0.74306  0.34766  Biso   1.000  C
  C6050    1.0000 0.18697  0.60855  0.62984  Biso   1.000  C
  C6051    1.0000 0.00463  0.18885  0.08261  Biso   1.000  C
  C6052    1.0000 0.06656  0.24631  0.99242  Biso   1.000  C
  C6053    1.0000 0.70702  0.55336  0.82151  Biso   1.000  C
  C6054    1.0000 0.63582  0.57377  0.84198  Biso   1.000  C
  C6055    1.0000 0.69566  0.50911  0.90817  Biso   1.000  C
  C6056    1.0000 0.18717  0.10941  0.13020  Biso   1.000  C
  C6057    1.0000 0.01783  0.68374  0.58670  Biso   1.000  C
  C6058    1.0000 0.70731  0.05361  0.32076  Biso   1.000  C
  C6059    1.0000 0.63663  0.07454  0.34121  Biso   1.000  C
  C6060    1.0000 0.69556  0.00941  0.40792  Biso   1.000  C
  C6061    1.0000 0.68704  0.60830  0.13083  Biso   1.000  C
  C6062    1.0000 0.50535  0.19217  0.58026  Biso   1.000  C
  C6063    1.0000 0.20772  0.55299  0.32194  Biso   1.000  C
  C6064    1.0000 0.13722  0.57413  0.34226  Biso   1.000  C
  C6065    1.0000 0.19692  0.51078  0.40800  Biso   1.000  C
  C6066    1.0000 0.68405  0.10757  0.63045  Biso   1.000  C
  C6067    1.0000 0.50615  0.69040  0.08028  Biso   1.000  C
  C6068    1.0000 0.20668  0.05496  0.82209  Biso   1.000  C
  C6069    1.0000 0.13346  0.07397  0.84066  Biso   1.000  C
  C6070    1.0000 0.16354  0.01626  0.89947  Biso   1.000  C
  C6071    1.0000 0.72952  0.06289  0.58313  Biso   1.000  C
  C6072    1.0000 0.04430  0.69444  0.32219  Biso   1.000  C
  C6073    1.0000 0.11931  0.67705  0.34137  Biso   1.000  C
  C6074    1.0000 0.58742  0.67456  0.91654  Biso   1.000  C
  C6075    1.0000 0.05324  0.73825  0.40695  Biso   1.000  C
  C6076    1.0000 0.72822  0.55794  0.08294  Biso   1.000  C
  C6077    1.0000 0.11326  0.19128  0.83699  Biso   1.000  C
  C6078    1.0000 0.58667  0.17411  0.41641  Biso   1.000  C
  C6079    1.0000 0.08708  0.24104  0.90218  Biso   1.000  C
  C6080    1.0000 0.23030  0.06295  0.08298  Biso   1.000  C
  C6081    1.0000 0.54427  0.69444  0.82194  Biso   1.000  C
  C6082    1.0000 0.62003  0.67633  0.84163  Biso   1.000  C
  C6083    1.0000 0.08811  0.67477  0.41672  Biso   1.000  C
  C6084    1.0000 0.55327  0.73776  0.90641  Biso   1.000  C
  C6085    1.0000 0.60963  0.19022  0.33837  Biso   1.000  C
  C6086    1.0000 0.09636  0.17298  0.92613  Biso   1.000  C
  C6087    1.0000 0.58639  0.24072  0.40309  Biso   1.000  C
  C6088    1.0000 0.23030  0.68407  0.66683  Biso   1.000  C
  C6089    1.0000 0.63081  0.06438  0.88819  Biso   1.000  C
  C6090    1.0000 0.10494  0.08265  0.33481  Biso   1.000  C
  C6091    1.0000 0.58686  0.00670  0.84676  Biso   1.000  C
  C6092    1.0000 0.06693  0.60899  0.62010  Biso   1.000  C
  C6093    1.0000 0.23040  0.18650  0.16562  Biso   1.000  C
  C6094    1.0000 0.61653  0.57367  0.40642  Biso   1.000  C
  C6095    1.0000 0.10616  0.59372  0.82355  Biso   1.000  C
  C6096    1.0000 0.55228  0.51435  0.34429  Biso   1.000  C
  C6097    1.0000 0.73097  0.68512  0.16636  Biso   1.000  C
  C6098    1.0000 0.13076  0.06451  0.38710  Biso   1.000  C
  C6099    1.0000 0.60730  0.08840  0.82691  Biso   1.000  C
  C6100    1.0000 0.08602  0.00711  0.34704  Biso   1.000  C
  C6101    1.0000 0.73229  0.18423  0.66295  Biso   1.000  C
  C6102    1.0000 0.11448  0.57447  0.90575  Biso   1.000  C
  C6103    1.0000 0.12866  0.56440  0.88353  Biso   1.000  C
  C6104    1.0000 0.60647  0.59246  0.32396  Biso   1.000  C
  C6105    1.0000 0.05321  0.51567  0.84483  Biso   1.000  C
  C6106    1.0000 0.12537  0.11317  0.05673  Biso   1.000  C
  C6107    1.0000 0.67013  0.69197  0.24451  Biso   1.000  C
  C6108    1.0000 0.92705  0.05586  0.54426  Biso   1.000  C
  C6109    1.0000 0.90799  0.07277  0.61990  Biso   1.000  C
  C6110    1.0000 0.84769  0.02157  0.55313  Biso   1.000  C
  C6111    1.0000 0.12534  0.61581  0.55643  Biso   1.000  C
  C6112    1.0000 0.66741  0.17819  0.74735  Biso   1.000  C
  C6113    1.0000 0.92754  0.55574  0.04388  Biso   1.000  C
  C6114    1.0000 0.90738  0.57273  0.11941  Biso   1.000  C
  C6115    1.0000 0.84517  0.51523  0.05260  Biso   1.000  C
  C6116    1.0000 0.62429  0.11323  0.55653  Biso   1.000  C
  C6117    1.0000 0.16350  0.68122  0.73249  Biso   1.000  C
  C6118    1.0000 0.42756  0.05506  0.04486  Biso   1.000  C
  C6119    1.0000 0.40683  0.07226  0.11986  Biso   1.000  C
  C6120    1.0000 0.34728  0.02015  0.05155  Biso   1.000  C
  C6121    1.0000 0.62671  0.61372  0.05649  Biso   1.000  C
  C6122    1.0000 0.16935  0.19167  0.24478  Biso   1.000  C
  C6123    1.0000 0.42740  0.55530  0.54390  Biso   1.000  C
  C6124    1.0000 0.40728  0.57227  0.61944  Biso   1.000  C
  C6125    1.0000 0.82631  0.58773  0.10716  Biso   1.000  C
  C6126    1.0000 0.34316  0.51430  0.55323  Biso   1.000  C
  C6127    1.0000 0.58268  0.06217  0.72992  Biso   1.000  C
  C6128    1.0000 0.33824  0.69039  0.11282  Biso   1.000  C
  C6129    1.0000 0.93189  0.67019  0.59758  Biso   1.000  C
  C6130    1.0000 0.40297  0.74232  0.08544  Biso   1.000  C
  C6131    1.0000 0.58323  0.56466  0.24663  Biso   1.000  C
  C6132    1.0000 0.33919  0.18988  0.60669  Biso   1.000  C
  C6133    1.0000 0.93577  0.16576  0.09699  Biso   1.000  C
  C6134    1.0000 0.40200  0.24330  0.58350  Biso   1.000  C
  C6135    1.0000 0.08579  0.07589  0.23381  Biso   1.000  C
  C6136    1.0000 0.84064  0.69064  0.61040  Biso   1.000  C
  C6137    1.0000 0.43225  0.66970  0.09820  Biso   1.000  C
  C6138    1.0000 0.90245  0.74808  0.57864  Biso   1.000  C
  C6139    1.0000 0.08209  0.56125  0.72847  Biso   1.000  C
  C6140    1.0000 0.83833  0.19092  0.11283  Biso   1.000  C
  C6141    1.0000 0.42718  0.17525  0.59757  Biso   1.000  C
  C6142    1.0000 0.90274  0.24144  0.08626  Biso   1.000  C
  C6143    1.0000 0.08349  0.18732  0.02026  Biso   1.000  C
  C6144    1.0000 0.98333  0.25603  0.04071  Biso   1.000  C
  C6145    1.0000 0.84272  0.57168  0.62662  Biso   1.000  C
  C6146    1.0000 0.41903  0.58582  0.14369  Biso   1.000  C
  C6147    1.0000 0.90173  0.52110  0.69816  Biso   1.000  C
  C6148    1.0000 0.08744  0.67598  0.51762  Biso   1.000  C
  C6149    1.0000 0.82212  0.05415  0.20707  Biso   1.000  C
  C6150    1.0000 0.84352  0.07478  0.13648  Biso   1.000  C
  C6151    1.0000 0.42304  0.08953  0.64308  Biso   1.000  C
  C6152    1.0000 0.90799  0.01243  0.19595  Biso   1.000  C
  C6153    1.0000 0.12975  0.60744  0.68546  Biso   1.000  C
  C6154    1.0000 0.58566  0.17402  0.51668  Biso   1.000  C
  C6155    1.0000 0.34265  0.57141  0.12794  Biso   1.000  C
  C6156    1.0000 0.91696  0.58449  0.64430  Biso   1.000  C
  C6157    1.0000 0.40625  0.51403  0.19805  Biso   1.000  C
  C6158    1.0000 0.58825  0.67504  0.01645  Biso   1.000  C
  C6159    1.0000 0.36769  0.06517  0.62576  Biso   1.000  C
  C6160    1.0000 0.39105  0.02694  0.67648  Biso   1.000  C
  C6161    1.0000 0.40840  0.19003  0.14331  Biso   1.000  C
  C6162    1.0000 0.83250  0.17617  0.66016  Biso   1.000  C
  C6163    1.0000 0.34693  0.24726  0.17042  Biso   1.000  C
  C6164    1.0000 0.16299  0.06691  0.01886  Biso   1.000  C
  C6165    1.0000 0.43137  0.69945  0.70909  Biso   1.000  C
  C6166    1.0000 0.39956  0.67544  0.64482  Biso   1.000  C
  C6167    1.0000 0.83010  0.66431  0.14339  Biso   1.000  C
  C6168    1.0000 0.34036  0.74152  0.69374  Biso   1.000  C
  C6169    1.0000 0.66328  0.56571  0.01936  Biso   1.000  C
  C6170    1.0000 0.90820  0.19048  0.64339  Biso   1.000  C
  C6171    1.0000 0.33211  0.17597  0.15989  Biso   1.000  C
  C6172    1.0000 0.84640  0.24762  0.67019  Biso   1.000  C
  C6173    1.0000 0.66312  0.06689  0.51785  Biso   1.000  C
  C6174    1.0000 0.90865  0.68986  0.14224  Biso   1.000  C
  C6175    1.0000 0.33328  0.67451  0.66343  Biso   1.000  C
  C6176    1.0000 0.84781  0.74755  0.17035  Biso   1.000  C
  C6177    1.0000 0.06329  0.11958  0.10962  Biso   1.000  C
  C6178    1.0000 0.20333  0.76873  0.75751  Biso   1.000  C
  C6179    1.0000 0.54126  0.93159  0.05043  Biso   1.000  C
  C6180    1.0000 0.61309  0.90752  0.07480  Biso   1.000  C
  C6181    1.0000 0.10510  0.33009  0.08691  Biso   1.000  C
  C6182    1.0000 0.55786  0.85708  0.00935  Biso   1.000  C
  C6183    1.0000 0.20366  0.26815  0.25891  Biso   1.000  C
  C6184    1.0000 0.62910  0.38455  0.56414  Biso   1.000  C
  C6185    1.0000 0.58183  0.33529  0.52023  Biso   1.000  C
  C6186    1.0000 0.56255  0.12090  0.61118  Biso   1.000  C
  C6187    1.0000 0.70255  0.76938  0.25788  Biso   1.000  C
  C6188    1.0000 0.04107  0.93133  0.55099  Biso   1.000  C
  C6189    1.0000 0.12990  0.88375  0.56346  Biso   1.000  C
  C6190    1.0000 0.60427  0.33255  0.58457  Biso   1.000  C
  C6191    1.0000 0.08433  0.84608  0.50721  Biso   1.000  C
  C6192    1.0000 0.56379  0.61981  0.10969  Biso   1.000  C
  C6193    1.0000 0.70368  0.26824  0.75745  Biso   1.000  C
  C6194    1.0000 0.12976  0.38345  0.06465  Biso   1.000  C
  C6195    1.0000 0.59773  0.84144  0.08360  Biso   1.000  C
  C6196    1.0000 0.08273  0.33338  0.01634  Biso   1.000  C
  C6197    1.0000 0.68378  0.49357  0.00603  Biso   1.000  C
  C6198    1.0000 0.12653  0.36921  0.68696  Biso   1.000  C
  C6199    1.0000 0.08620  0.40031  0.73582  Biso   1.000  C
  C6200    1.0000 0.69155  0.00064  0.51118  Biso   1.000  C
  C6201    1.0000 0.12715  0.86941  0.18610  Biso   1.000  C
  C6202    1.0000 0.59580  0.42617  0.17505  Biso   1.000  C
  C6203    1.0000 0.08624  0.90040  0.23584  Biso   1.000  C
  C6204    1.0000 0.24427  0.57967  0.55829  Biso   1.000  C
  C6205    1.0000 0.18217  0.48966  0.50171  Biso   1.000  C
  C6206    1.0000 0.60668  0.34203  0.19136  Biso   1.000  C
  C6207    1.0000 0.58646  0.40053  0.23629  Biso   1.000  C
  C6208    1.0000 0.18250  0.99476  0.00494  Biso   1.000  C
  C6209    1.0000 0.52648  0.83861  0.71371  Biso   1.000  C
  C6210    1.0000 0.62556  0.87058  0.68629  Biso   1.000  C
  C6211    1.0000 0.09584  0.42856  0.67391  Biso   1.000  C
  C6212    1.0000 0.58017  0.90330  0.74812  Biso   1.000  C
  C6213    1.0000 0.06824  0.99368  0.24400  Biso   1.000  C
  C6214    1.0000 0.63693  0.83878  0.56023  Biso   1.000  C
  C6215    1.0000 0.66588  0.90316  0.50710  Biso   1.000  C
  C6216    1.0000 0.06364  0.48456  0.75541  Biso   1.000  C
  C6217    1.0000 0.72457  0.33962  0.03609  Biso   1.000  C
  C6218    1.0000 0.64836  0.34690  0.06084  Biso   1.000  C
  C6219    1.0000 0.14486  0.92695  0.09303  Biso   1.000  C
  C6220    1.0000 0.66256  0.40240  0.00928  Biso   1.000  C
  C6221    1.0000 0.56717  0.98937  0.74954  Biso   1.000  C
  C6222    1.0000 0.14040  0.84019  0.05946  Biso   1.000  C
  C6223    1.0000 0.64282  0.42277  0.08911  Biso   1.000  C
  C6224    1.0000 0.19083  0.89456  0.00358  Biso   1.000  C
  C6225    1.0000 0.56389  0.48511  0.25438  Biso   1.000  C
  C6226    1.0000 0.22404  0.33653  0.53719  Biso   1.000  C
  C6227    1.0000 0.13828  0.34006  0.56077  Biso   1.000  C
  C6228    1.0000 0.17003  0.40238  0.50352  Biso   1.000  C
  C6229    1.0000 0.54087  0.26301  0.49665  Biso   1.000  C
  C6230    1.0000 0.20970  0.43054  0.19983  Biso   1.000  C
  C6231    1.0000 0.12063  0.38292  0.18708  Biso   1.000  C
  C6232    1.0000 0.16555  0.34618  0.24454  Biso   1.000  C
  C6233    1.0000 0.54044  0.76276  0.99796  Biso   1.000  C
  C6234    1.0000 0.13311  0.90618  0.67630  Biso   1.000  C
  C6235    1.0000 0.16996  0.84616  0.74739  Biso   1.000  C
  C6236    1.0000 0.70958  0.43084  0.69862  Biso   1.000  C
  C6237    1.0000 0.62056  0.38294  0.68643  Biso   1.000  C
  C6238    1.0000 0.14377  0.83199  0.66494  Biso   1.000  C
  C6239    1.0000 0.66564  0.34659  0.74320  Biso   1.000  C
  C6240    1.0000 0.03999  0.76305  0.49727  Biso   1.000  C
  C6241    1.0000 0.64501  0.89341  0.17691  Biso   1.000  C
  C6242    1.0000 0.66603  0.84582  0.24308  Biso   1.000  C
  C6243    1.0000 0.74023  0.20551  0.75141  Biso   1.000  C
  C6244    1.0000 0.05097  0.54107  0.93288  Biso   1.000  C
  C6245    1.0000 0.07419  0.61594  0.90926  Biso   1.000  C
  C6246    1.0000 0.00886  0.55847  0.85865  Biso   1.000  C
  C6247    1.0000 0.11374  0.58229  0.62491  Biso   1.000  C
  C6248    1.0000 0.03588  0.02401  0.41252  Biso   1.000  C
  C6249    1.0000 0.05930  0.10898  0.41131  Biso   1.000  C
  C6250    1.0000 0.01240  0.05217  0.34325  Biso   1.000  C
  C6251    1.0000 0.24033  0.20663  0.25121  Biso   1.000  C
  C6252    1.0000 0.53737  0.52674  0.40928  Biso   1.000  C
  C6253    1.0000 0.56495  0.63182  0.38855  Biso   1.000  C
  C6254    1.0000 0.50719  0.58606  0.34708  Biso   1.000  C
  C6255    1.0000 0.61269  0.58239  0.12509  Biso   1.000  C
  C6256    1.0000 0.53565  0.02404  0.91466  Biso   1.000  C
  C6257    1.0000 0.57283  0.11643  0.90666  Biso   1.000  C
  C6258    1.0000 0.52664  0.05616  0.84862  Biso   1.000  C
  C6259    1.0000 0.06295  0.74633  0.58429  Biso   1.000  C
  C6260    1.0000 0.00938  0.70842  0.49804  Biso   1.000  C
  C6261    1.0000 0.68622  0.12963  0.36525  Biso   1.000  C
  C6262    1.0000 0.65585  0.60555  0.92702  Biso   1.000  C
  C6263    1.0000 0.72325  0.07433  0.39024  Biso   1.000  C
  C6264    1.0000 0.06993  0.24656  0.08324  Biso   1.000  C
  C6265    1.0000 0.68635  0.62887  0.86600  Biso   1.000  C
  C6266    1.0000 0.65606  0.10602  0.42610  Biso   1.000  C
  C6267    1.0000 0.72305  0.57412  0.89143  Biso   1.000  C
  C6268    1.0000 0.56528  0.74522  0.08415  Biso   1.000  C
  C6269    1.0000 0.50963  0.70899  0.99817  Biso   1.000  C
  C6270    1.0000 0.18552  0.13150  0.86035  Biso   1.000  C
  C6271    1.0000 0.16603  0.60431  0.41572  Biso   1.000  C
  C6272    1.0000 0.22292  0.07356  0.89027  Biso   1.000  C
  C6273    1.0000 0.56242  0.24502  0.58324  Biso   1.000  C
  C6274    1.0000 0.18668  0.62998  0.36462  Biso   1.000  C
  C6275    1.0000 0.16044  0.10800  0.92227  Biso   1.000  C
  C6276    1.0000 0.22406  0.57740  0.39393  Biso   1.000  C
  C6277    1.0000 0.18398  0.01778  0.08652  Biso   1.000  C
  C6278    1.0000 0.57522  0.63708  0.84360  Biso   1.000  C
  C6279    1.0000 0.51208  0.69515  0.90786  Biso   1.000  C
  C6280    1.0000 0.54860  0.21340  0.31759  Biso   1.000  C
  C6281    1.0000 0.57527  0.13706  0.34281  Biso   1.000  C
  C6282    1.0000 0.50429  0.19012  0.41182  Biso   1.000  C
  C6283    1.0000 0.68437  0.01842  0.58665  Biso   1.000  C
  C6284    1.0000 0.07548  0.63719  0.34400  Biso   1.000  C
  C6285    1.0000 0.01219  0.69591  0.40810  Biso   1.000  C
  C6286    1.0000 0.68103  0.51684  0.08817  Biso   1.000  C
  C6287    1.0000 0.04696  0.21384  0.81799  Biso   1.000  C
  C6288    1.0000 0.05020  0.12248  0.85551  Biso   1.000  C
  C6289    1.0000 0.00555  0.16583  0.90338  Biso   1.000  C
  C6290    1.0000 0.13571  0.69267  0.62608  Biso   1.000  C
  C6291    1.0000 0.56331  0.52075  0.16653  Biso   1.000  C
  C6292    1.0000 0.49681  0.54152  0.26404  Biso   1.000  C
  C6293    1.0000 0.19930  0.20924  0.43220  Biso   1.000  C
  C6294    1.0000 0.17504  0.14495  0.40018  Biso   1.000  C
  C6295    1.0000 0.23463  0.16645  0.33352  Biso   1.000  C
  C6296    1.0000 0.56156  0.02180  0.66774  Biso   1.000  C
  C6297    1.0000 0.49597  0.04121  0.76519  Biso   1.000  C
  C6298    1.0000 0.20214  0.71267  0.93234  Biso   1.000  C
  C6299    1.0000 0.19015  0.64142  0.91081  Biso   1.000  C
  C6300    1.0000 0.23833  0.69671  0.84316  Biso   1.000  C
  C6301    1.0000 0.63610  0.69243  0.12532  Biso   1.000  C
  C6302    1.0000 0.07420  0.51644  0.66346  Biso   1.000  C
  C6303    1.0000 0.99918  0.53937  0.76302  Biso   1.000  C
  C6304    1.0000 0.70183  0.21302  0.93242  Biso   1.000  C
  C6305    1.0000 0.67431  0.13652  0.90678  Biso   1.000  C
  C6306    1.0000 0.73523  0.16782  0.83386  Biso   1.000  C
  C6307    1.0000 0.64010  0.18656  0.61981  Biso   1.000  C
  C6308    1.0000 0.06233  0.02127  0.16695  Biso   1.000  C
  C6309    1.0000 0.99444  0.04051  0.26574  Biso   1.000  C
  C6310    1.0000 0.71410  0.72605  0.41186  Biso   1.000  C
  C6311    1.0000 0.70015  0.62900  0.38523  Biso   1.000  C
  C6312    1.0000 0.74284  0.69184  0.35631  Biso   1.000  C
  C6313    1.0000 0.36412  0.87660  0.44411  Biso   1.000  C
  C6314    1.0000 0.99622  0.50614  0.31664  Biso   1.000  C
  C6315    1.0000 0.29830  0.68222  0.96318  Biso   1.000  C
  C6316    1.0000 0.32496  0.64780  0.89465  Biso   1.000  C
  C6317    1.0000 0.33918  0.07682  0.39241  Biso   1.000  C
  C6318    1.0000 0.25933  0.59725  0.91311  Biso   1.000  C
  C6319    1.0000 0.36049  0.37055  0.93925  Biso   1.000  C
  C6320    1.0000 0.99578  0.00752  0.81549  Biso   1.000  C
  C6321    1.0000 0.31464  0.13869  0.36824  Biso   1.000  C
  C6322    1.0000 0.25871  0.09750  0.41315  Biso   1.000  C
  C6323    1.0000 0.86438  0.87557  0.94425  Biso   1.000  C
  C6324    1.0000 0.43683  0.41980  0.75553  Biso   1.000  C
  C6325    1.0000 0.49522  0.50568  0.81586  Biso   1.000  C
  C6326    1.0000 0.79653  0.68296  0.46435  Biso   1.000  C
  C6327    1.0000 0.81000  0.66291  0.38644  Biso   1.000  C
  C6328    1.0000 0.83792  0.07676  0.89206  Biso   1.000  C
  C6329    1.0000 0.75739  0.60698  0.43977  Biso   1.000  C
  C6330    1.0000 0.49695  0.00744  0.31592  Biso   1.000  C
  C6331    1.0000 0.81367  0.13857  0.86814  Biso   1.000  C
  C6332    1.0000 0.75799  0.09702  0.91355  Biso   1.000  C
  C6333    1.0000 0.93560  0.11370  0.37041  Biso   1.000  C
  C6334    1.0000 0.91348  0.66845  0.89329  Biso   1.000  C
  C6335    1.0000 0.98613  0.15624  0.44526  Biso   1.000  C
  C6336    1.0000 0.94646  0.57240  0.95830  Biso   1.000  C
  C6337    1.0000 0.93589  0.61456  0.87069  Biso   1.000  C
  C6338    1.0000 0.98410  0.66627  0.91765  Biso   1.000  C
  C6339    1.0000 0.46508  0.08423  0.97597  Biso   1.000  C
  C6340    1.0000 0.43613  0.11735  0.87330  Biso   1.000  C
  C6341    1.0000 0.41340  0.66926  0.39454  Biso   1.000  C
  C6342    1.0000 0.48271  0.15455  0.94761  Biso   1.000  C
  C6343    1.0000 0.44724  0.57281  0.45823  Biso   1.000  C
  C6344    1.0000 0.43584  0.61645  0.37088  Biso   1.000  C
  C6345    1.0000 0.48531  0.66689  0.41906  Biso   1.000  C
  C6346    1.0000 0.81377  0.61393  0.88000  Biso   1.000  C
  C6347    1.0000 0.82693  0.17671  0.34712  Biso   1.000  C
  C6348    1.0000 0.77203  0.66368  0.83264  Biso   1.000  C
  C6349    1.0000 0.49639  0.24075  0.93330  Biso   1.000  C
  C6350    1.0000 0.80310  0.07255  0.29166  Biso   1.000  C
  C6351    1.0000 0.81360  0.11374  0.37987  Biso   1.000  C
  C6352    1.0000 0.76613  0.16626  0.33317  Biso   1.000  C
  C6353    1.0000 0.31384  0.61452  0.38044  Biso   1.000  C
  C6354    1.0000 0.32675  0.17684  0.84871  Biso   1.000  C
  C6355    1.0000 0.27154  0.66412  0.33252  Biso   1.000  C
  C6356    1.0000 0.99629  0.24148  0.43253  Biso   1.000  C
  C6357    1.0000 0.30055  0.11401  0.86787  Biso   1.000  C
  C6358    1.0000 0.26610  0.16556  0.83417  Biso   1.000  C
  C6359    1.0000 0.75318  0.00759  0.93463  Biso   1.000  C
  C6360    1.0000 0.44895  0.18151  0.29025  Biso   1.000  C
  C6361    1.0000 0.44012  0.16125  0.35825  Biso   1.000  C
  C6362    1.0000 0.41044  0.57578  0.85696  Biso   1.000  C
  C6363    1.0000 0.49211  0.09753  0.33620  Biso   1.000  C
  C6364    1.0000 0.75287  0.50761  0.43318  Biso   1.000  C
  C6365    1.0000 0.44112  0.66232  0.86098  Biso   1.000  C
  C6366    1.0000 0.41167  0.07705  0.35725  Biso   1.000  C
  C6367    1.0000 0.49147  0.60607  0.80930  Biso   1.000  C
  C6368    1.0000 0.25320  0.00807  0.43457  Biso   1.000  C
  C6369    1.0000 0.94899  0.18194  0.79082  Biso   1.000  C
  C6370    1.0000 0.93915  0.16099  0.85808  Biso   1.000  C
  C6371    1.0000 0.99117  0.09740  0.83671  Biso   1.000  C
  C6372    1.0000 0.24657  0.51531  0.93625  Biso   1.000  C
  C6373    1.0000 0.94149  0.66278  0.36369  Biso   1.000  C
  C6374    1.0000 0.91027  0.07681  0.85643  Biso   1.000  C
  C6375    1.0000 0.98939  0.59726  0.33835  Biso   1.000  C
  C6376    1.0000 0.01466  0.95957  0.74672  Biso   1.000  C
  C6377    1.0000 0.15777  0.36795  0.42878  Biso   1.000  C
  C6378    1.0000 0.58310  0.85588  0.41644  Biso   1.000  C
  C6379    1.0000 0.09641  0.32904  0.49793  Biso   1.000  C
  C6380    1.0000 0.15808  0.86939  0.92739  Biso   1.000  C
  C6381    1.0000 0.59248  0.34485  0.91582  Biso   1.000  C
  C6382    1.0000 0.09789  0.82761  0.99837  Biso   1.000  C
  C6383    1.0000 0.41351  0.98252  0.31585  Biso   1.000  C
  C6384    1.0000 0.65808  0.36652  0.92645  Biso   1.000  C
  C6385    1.0000 0.08231  0.85580  0.91594  Biso   1.000  C
  C6386    1.0000 0.59636  0.33288  0.99401  Biso   1.000  C
  C6387    1.0000 0.87037  0.31348  0.38993  Biso   1.000  C
  C6388    1.0000 0.41567  0.49788  0.82055  Biso   1.000  C
  C6389    1.0000 0.51871  0.45048  0.74235  Biso   1.000  C
  C6390    1.0000 0.66176  0.86377  0.44113  Biso   1.000  C
  C6391    1.0000 0.09279  0.34420  0.41569  Biso   1.000  C
  C6392    1.0000 0.59752  0.83404  0.49391  Biso   1.000  C
  C6393    1.0000 0.73595  0.45994  0.50409  Biso   1.000  C
  C6394    1.0000 0.61840  0.87835  0.81440  Biso   1.000  C
  C6395    1.0000 0.16794  0.35618  0.83429  Biso   1.000  C
  C6396    1.0000 0.66737  0.82661  0.75897  Biso   1.000  C
  C6397    1.0000 0.73575  0.95916  0.00379  Biso   1.000  C
  C6398    1.0000 0.62167  0.37604  0.31436  Biso   1.000  C
  C6399    1.0000 0.16788  0.85611  0.33491  Biso   1.000  C
  C6400    1.0000 0.65238  0.32833  0.25133  Biso   1.000  C
  C6401    1.0000 0.11873  0.87858  0.31368  Biso   1.000  C
  C6402    1.0000 0.16705  0.82473  0.25778  Biso   1.000  C
  C6403    1.0000 0.09248  0.37069  0.82290  Biso   1.000  C
  C6404    1.0000 0.66793  0.85494  0.83510  Biso   1.000  C
  C6405    1.0000 0.16555  0.32332  0.75787  Biso   1.000  C
  C6406    1.0000 0.87930  0.93134  0.89231  Biso   1.000  C
  C6407    1.0000 0.11143  0.36854  0.93549  Biso   1.000  C
  C6408    1.0000 0.16000  0.44395  0.99205  Biso   1.000  C
  C6409    1.0000 0.87226  0.44336  0.38423  Biso   1.000  C
  C6410    1.0000 0.11431  0.86899  0.43553  Biso   1.000  C
  C6411    1.0000 0.15838  0.94472  0.49166  Biso   1.000  C
  C6412    1.0000 0.58906  0.47408  0.46311  Biso   1.000  C
  C6413    1.0000 0.61401  0.36972  0.43604  Biso   1.000  C
  C6414    1.0000 0.64133  0.44231  0.49156  Biso   1.000  C
  C6415    1.0000 0.38091  0.43600  0.89200  Biso   1.000  C
  C6416    1.0000 0.61518  0.86812  0.93626  Biso   1.000  C
  C6417    1.0000 0.65828  0.94400  0.99117  Biso   1.000  C
  C6418    1.0000 0.41374  0.26710  0.92426  Biso   1.000  C
  C6419    1.0000 0.51877  0.29506  0.00720  Biso   1.000  C
  C6420    1.0000 0.66304  0.97465  0.28532  Biso   1.000  C
  C6421    1.0000 0.66197  0.88562  0.31049  Biso   1.000  C
  C6422    1.0000 0.59199  0.94421  0.25975  Biso   1.000  C
  C6423    1.0000 0.41425  0.76877  0.42623  Biso   1.000  C
  C6424    1.0000 0.51046  0.81783  0.49942  Biso   1.000  C
  C6425    1.0000 0.66285  0.47507  0.78537  Biso   1.000  C
  C6426    1.0000 0.66096  0.39151  0.81043  Biso   1.000  C
  C6427    1.0000 0.58587  0.41784  0.77023  Biso   1.000  C
  C6428    1.0000 0.91356  0.26753  0.42398  Biso   1.000  C
  C6429    1.0000 0.01877  0.29452  0.50698  Biso   1.000  C
  C6430    1.0000 0.16726  0.95327  0.80712  Biso   1.000  C
  C6431    1.0000 0.15777  0.88109  0.82295  Biso   1.000  C
  C6432    1.0000 0.08600  0.91917  0.77010  Biso   1.000  C
  C6433    1.0000 0.91448  0.76896  0.92422  Biso   1.000  C
  C6434    1.0000 0.00762  0.81782  0.99511  Biso   1.000  C
  C6435    1.0000 0.16240  0.47479  0.28606  Biso   1.000  C
  C6436    1.0000 0.16114  0.39126  0.31154  Biso   1.000  C
  C6437    1.0000 0.08544  0.41724  0.27113  Biso   1.000  C
  C6438    1.0000 0.77449  0.78605  0.58738  Biso   1.000  C
  C6439    1.0000 0.86660  0.82355  0.59389  Biso   1.000  C
  C6440    1.0000 0.82936  0.76094  0.66615  Biso   1.000  C
  C6441    1.0000 0.47490  0.94221  0.31847  Biso   1.000  C
  C6442    1.0000 0.43278  0.99385  0.24575  Biso   1.000  C
  C6443    1.0000 0.78627  0.29772  0.06695  Biso   1.000  C
  C6444    1.0000 0.86278  0.32545  0.09404  Biso   1.000  C
  C6445    1.0000 0.34550  0.32546  0.67758  Biso   1.000  C
  C6446    1.0000 0.80381  0.26072  0.15709  Biso   1.000  C
  C6447    1.0000 0.97754  0.44009  0.33321  Biso   1.000  C
  C6448    1.0000 0.27552  0.78700  0.08928  Biso   1.000  C
  C6449    1.0000 0.36422  0.82475  0.09457  Biso   1.000  C
  C6450    1.0000 0.33304  0.75493  0.15288  Biso   1.000  C
  C6451    1.0000 0.97447  0.94323  0.81892  Biso   1.000  C
  C6452    1.0000 0.93141  0.99814  0.74078  Biso   1.000  C
  C6453    1.0000 0.27393  0.28656  0.58878  Biso   1.000  C
  C6454    1.0000 0.36213  0.32560  0.59426  Biso   1.000  C
  C6455    1.0000 0.33181  0.26377  0.66595  Biso   1.000  C
  C6456    1.0000 0.81527  0.38944  0.37075  Biso   1.000  C
  C6457    1.0000 0.95696  0.74406  0.01524  Biso   1.000  C
  C6458    1.0000 0.36071  0.44049  0.16033  Biso   1.000  C
  C6459    1.0000 0.85685  0.40737  0.57210  Biso   1.000  C
  C6460    1.0000 0.30275  0.48603  0.09364  Biso   1.000  C
  C6461    1.0000 0.97817  0.31167  0.41783  Biso   1.000  C
  C6462    1.0000 0.95822  0.24395  0.51537  Biso   1.000  C
  C6463    1.0000 0.29104  0.94817  0.68211  Biso   1.000  C
  C6464    1.0000 0.35683  0.92595  0.65067  Biso   1.000  C
  C6465    1.0000 0.30528  0.98923  0.59254  Biso   1.000  C
  C6466    1.0000 0.49644  0.81538  0.41755  Biso   1.000  C
  C6467    1.0000 0.45095  0.74258  0.51877  Biso   1.000  C
  C6468    1.0000 0.86032  0.44092  0.65881  Biso   1.000  C
  C6469    1.0000 0.35647  0.40693  0.07336  Biso   1.000  C
  C6470    1.0000 0.80308  0.48679  0.59289  Biso   1.000  C
  C6471    1.0000 0.47858  0.31132  0.91722  Biso   1.000  C
  C6472    1.0000 0.45776  0.24402  0.01587  Biso   1.000  C
  C6473    1.0000 0.86282  0.92500  0.15710  Biso   1.000  C
  C6474    1.0000 0.34560  0.92508  0.57451  Biso   1.000  C
  C6475    1.0000 0.81102  0.99495  0.08737  Biso   1.000  C
  C6476    1.0000 0.26832  0.93486  0.41290  Biso   1.000  C
  C6477    1.0000 0.95568  0.30577  0.67693  Biso   1.000  C
  C6478    1.0000 0.88204  0.32333  0.65548  Biso   1.000  C
  C6479    1.0000 0.39496  0.33650  0.08047  Biso   1.000  C
  C6480    1.0000 0.94719  0.26365  0.59359  Biso   1.000  C
  C6481    1.0000 0.27269  0.44013  0.91913  Biso   1.000  C
  C6482    1.0000 0.95738  0.80472  0.17639  Biso   1.000  C
  C6483    1.0000 0.88380  0.82268  0.15627  Biso   1.000  C
  C6484    1.0000 0.94733  0.76353  0.09252  Biso   1.000  C
  C6485    1.0000 0.76877  0.93442  0.91269  Biso   1.000  C
  C6486    1.0000 0.45641  0.30529  0.17698  Biso   1.000  C
  C6487    1.0000 0.38292  0.32291  0.15634  Biso   1.000  C
  C6488    1.0000 0.89484  0.33640  0.57979  Biso   1.000  C
  C6489    1.0000 0.44738  0.26352  0.09364  Biso   1.000  C
  C6490    1.0000 0.76809  0.43467  0.41365  Biso   1.000  C
  C6491    1.0000 0.45874  0.80125  0.68259  Biso   1.000  C
  C6492    1.0000 0.38565  0.82452  0.65725  Biso   1.000  C
  C6493    1.0000 0.44614  0.75905  0.59168  Biso   1.000  C
  C6494    1.0000 0.93405  0.89207  0.87909  Biso   1.000  C
  C6495    1.0000 0.77142  0.31222  0.33242  Biso   1.000  C
  C6496    1.0000 0.81667  0.25558  0.24518  Biso   1.000  C
  C6497    1.0000 0.37153  0.93574  0.11846  Biso   1.000  C
  C6498    1.0000 0.89446  0.91375  0.66951  Biso   1.000  C
  C6499    1.0000 0.41375  0.98544  0.15148  Biso   1.000  C
  C6500    1.0000 0.93584  0.39113  0.38009  Biso   1.000  C
  C6501    1.0000 0.77211  0.81012  0.83203  Biso   1.000  C
  C6502    1.0000 0.81692  0.75241  0.74242  Biso   1.000  C
  C6503    1.0000 0.38892  0.44052  0.59157  Biso   1.000  C
  C6504    1.0000 0.89410  0.41391  0.17012  Biso   1.000  C
  C6505    1.0000 0.44731  0.48357  0.65563  Biso   1.000  C
  C6506    1.0000 0.44274  0.88846  0.37658  Biso   1.000  C
  C6507    1.0000 0.26752  0.31580  0.83757  Biso   1.000  C
  C6508    1.0000 0.87233  0.93615  0.61814  Biso   1.000  C
  C6509    1.0000 0.39546  0.91433  0.16796  Biso   1.000  C
  C6510    1.0000 0.92674  0.97478  0.64068  Biso   1.000  C
  C6511    1.0000 0.43658  0.39060  0.87974  Biso   1.000  C
  C6512    1.0000 0.27176  0.81132  0.33254  Biso   1.000  C
  C6513    1.0000 0.28770  0.74953  0.23808  Biso   1.000  C
  C6514    1.0000 0.88359  0.42669  0.09375  Biso   1.000  C
  C6515    1.0000 0.39297  0.41327  0.67099  Biso   1.000  C
  C6516    1.0000 0.94842  0.48415  0.15554  Biso   1.000  C
  N1       1.0000 0.33976  0.29905  0.78099  Biso   1.000  N
  N2       1.0000 0.22537  0.24508  0.77655  Biso   1.000  N
  N3       1.0000 0.05372  0.94325  0.46464  Biso   1.000  N
  N4       1.0000 0.08122  0.91406  0.39021  Biso   1.000  N
  N5       1.0000 0.67540  0.94067  0.90205  Biso   1.000  N
  N6       1.0000 0.15882  0.98707  0.46401  Biso   1.000  N
  N7       1.0000 0.35308  0.87602  0.45647  Biso   1.000  N
  N8       1.0000 0.33665  0.79238  0.25051  Biso   1.000  N
  N9       1.0000 0.22243  0.74190  0.28150  Biso   1.000  N
  N10      1.0000 0.06653  0.43063  0.95356  Biso   1.000  N
  N11      1.0000 0.07612  0.44322  0.89745  Biso   1.000  N
  N12      1.0000 0.67664  0.41156  0.37820  Biso   1.000  N
  N13      1.0000 0.15784  0.48127  0.96488  Biso   1.000  N
  N14      1.0000 0.34587  0.36577  0.94541  Biso   1.000  N
  N15      1.0000 0.85120  0.30754  0.27485  Biso   1.000  N
  N16      1.0000 0.72723  0.24751  0.27465  Biso   1.000  N
  N17      1.0000 0.55384  0.94372  0.96551  Biso   1.000  N
  N18      1.0000 0.58142  0.91272  0.89070  Biso   1.000  N
  N19      1.0000 0.17422  0.94188  0.40285  Biso   1.000  N
  N20      1.0000 0.65875  0.98690  0.96291  Biso   1.000  N
  N21      1.0000 0.85335  0.87436  0.95656  Biso   1.000  N
  N22      1.0000 0.84534  0.79974  0.74688  Biso   1.000  N
  N23      1.0000 0.72354  0.74184  0.77935  Biso   1.000  N
  N24      1.0000 0.57973  0.44228  0.40346  Biso   1.000  N
  N25      1.0000 0.19889  0.42348  0.89488  Biso   1.000  N
  N26      1.0000 0.65791  0.48468  0.46445  Biso   1.000  N
  N27      1.0000 0.39857  0.92048  0.26967  Biso   1.000  N
  N28      1.0000 0.65463  0.28149  0.98970  Biso   1.000  N
  N29      1.0000 0.66597  0.33678  0.89222  Biso   1.000  N
  N30      1.0000 0.57234  0.26624  0.90564  Biso   1.000  N
  N31      1.0000 0.65616  0.78161  0.49090  Biso   1.000  N
  N32      1.0000 0.64736  0.83604  0.40793  Biso   1.000  N
  N33      1.0000 0.57206  0.76644  0.40711  Biso   1.000  N
  N34      1.0000 0.90577  0.95008  0.77863  Biso   1.000  N
  N35      1.0000 0.17086  0.28019  0.49148  Biso   1.000  N
  N36      1.0000 0.16915  0.33389  0.38560  Biso   1.000  N
  N37      1.0000 0.07322  0.26488  0.40626  Biso   1.000  N
  N38      1.0000 0.93368  0.45526  0.28557  Biso   1.000  N
  N39      1.0000 0.19470  0.81145  0.95874  Biso   1.000  N
  N40      1.0000 0.16505  0.83733  0.89382  Biso   1.000  N
  N41      1.0000 0.07192  0.76494  0.90656  Biso   1.000  N
  N42      1.0000 0.89992  0.81151  0.97437  Biso   1.000  N
  N43      1.0000 0.17838  0.44242  0.36146  Biso   1.000  N
  N44      1.0000 0.58290  0.41869  0.87179  Biso   1.000  N
  N45      1.0000 0.09167  0.48544  0.28848  Biso   1.000  N
  N46      1.0000 0.89971  0.30821  0.47462  Biso   1.000  N
  N47      1.0000 0.16928  0.91690  0.86822  Biso   1.000  N
  N48      1.0000 0.57652  0.91558  0.37409  Biso   1.000  N
  N49      1.0000 0.12068  0.96372  0.82875  Biso   1.000  N
  N50      1.0000 0.39895  0.81711  0.47856  Biso   1.000  N
  N51      1.0000 0.50751  0.76339  0.42145  Biso   1.000  N
  N52      1.0000 0.67771  0.44255  0.86062  Biso   1.000  N
  N53      1.0000 0.08397  0.41920  0.37262  Biso   1.000  N
  N54      1.0000 0.57746  0.50366  0.80209  Biso   1.000  N
  N55      1.0000 0.40024  0.30810  0.97458  Biso   1.000  N
  N56      1.0000 0.61805  0.93430  0.38300  Biso   1.000  N
  N57      1.0000 0.08312  0.91930  0.87181  Biso   1.000  N
  N58      1.0000 0.61989  0.96247  0.33137  Biso   1.000  N
  N59      1.0000 0.84265  0.44850  0.47010  Biso   1.000  N
  N60      1.0000 0.55938  0.81531  0.79461  Biso   1.000  N
  N61      1.0000 0.58042  0.83187  0.87028  Biso   1.000  N
  N62      1.0000 0.65941  0.76532  0.78552  Biso   1.000  N
  N63      1.0000 0.85089  0.91812  0.97944  Biso   1.000  N
  N64      1.0000 0.55613  0.31321  0.29343  Biso   1.000  N
  N65      1.0000 0.58183  0.33640  0.35961  Biso   1.000  N
  N66      1.0000 0.65990  0.26313  0.28749  Biso   1.000  N
  N67      1.0000 0.35163  0.43820  0.97637  Biso   1.000  N
  N68      1.0000 0.05918  0.81611  0.29452  Biso   1.000  N
  N69      1.0000 0.07988  0.83298  0.36935  Biso   1.000  N
  N70      1.0000 0.15977  0.76527  0.28635  Biso   1.000  N
  N71      1.0000 0.34148  0.94964  0.47034  Biso   1.000  N
  N72      1.0000 0.05512  0.31329  0.79246  Biso   1.000  N
  N73      1.0000 0.08490  0.33819  0.85589  Biso   1.000  N
  N74      1.0000 0.67454  0.33454  0.37439  Biso   1.000  N
  N75      1.0000 0.17716  0.26537  0.84306  Biso   1.000  N
  N76      1.0000 0.37561  0.12346  0.96138  Biso   1.000  N
  N77      1.0000 0.40559  0.17512  0.97560  Biso   1.000  N
  N78      1.0000 0.35296  0.61591  0.43363  Biso   1.000  N
  N79      1.0000 0.91326  0.16219  0.44089  Biso   1.000  N
  N80      1.0000 0.40561  0.67389  0.47080  Biso   1.000  N
  N81      1.0000 0.33304  0.23533  0.75833  Biso   1.000  N
  N82      1.0000 0.95341  0.06279  0.43349  Biso   1.000  N
  N83      1.0000 0.85326  0.11720  0.43411  Biso   1.000  N
  N84      1.0000 0.90598  0.17617  0.47587  Biso   1.000  N
  N85      1.0000 0.85284  0.61671  0.93364  Biso   1.000  N
  N86      1.0000 0.41428  0.16134  0.94123  Biso   1.000  N
  N87      1.0000 0.90537  0.67357  0.96976  Biso   1.000  N
  N88      1.0000 0.33332  0.51360  0.99330  Biso   1.000  N
  N89      1.0000 0.95467  0.68540  0.31779  Biso   1.000  N
  N90      1.0000 0.90420  0.67117  0.30714  Biso   1.000  N
  N91      1.0000 0.90997  0.59588  0.24000  Biso   1.000  N
  N92      1.0000 0.94054  0.40620  0.38514  Biso   1.000  N
  N93      1.0000 0.33329  0.01447  0.49297  Biso   1.000  N
  N94      1.0000 0.89709  0.17467  0.80787  Biso   1.000  N
  N95      1.0000 0.90762  0.09759  0.74062  Biso   1.000  N
  N96      1.0000 0.93435  0.90768  0.88465  Biso   1.000  N
  N97      1.0000 0.83309  0.51479  0.49217  Biso   1.000  N
  N98      1.0000 0.45437  0.68576  0.81829  Biso   1.000  N
  N99      1.0000 0.39758  0.67454  0.80790  Biso   1.000  N
  N100     1.0000 0.44847  0.62514  0.77499  Biso   1.000  N
  N101     1.0000 0.44201  0.40549  0.88459  Biso   1.000  N
  N102     1.0000 0.83354  0.01364  0.99251  Biso   1.000  N
  N103     1.0000 0.39749  0.17443  0.30776  Biso   1.000  N
  N104     1.0000 0.90029  0.60737  0.32763  Biso   1.000  N
  N105     1.0000 0.40672  0.09647  0.24176  Biso   1.000  N
  N106     1.0000 0.45426  0.90030  0.37795  Biso   1.000  N
  N107     1.0000 0.91621  0.01553  0.75778  Biso   1.000  N
  N108     1.0000 0.29643  0.18630  0.43275  Biso   1.000  N
  N109     1.0000 0.39194  0.12328  0.43469  Biso   1.000  N
  N110     1.0000 0.85089  0.60694  0.42160  Biso   1.000  N
  N111     1.0000 0.35118  0.09726  0.49827  Biso   1.000  N
  N112     1.0000 0.91784  0.51503  0.25572  Biso   1.000  N
  N113     1.0000 0.36123  0.67832  0.94219  Biso   1.000  N
  N114     1.0000 0.35297  0.59824  0.99579  Biso   1.000  N
  N115     1.0000 0.79550  0.18602  0.93325  Biso   1.000  N
  N116     1.0000 0.89111  0.12276  0.93349  Biso   1.000  N
  N117     1.0000 0.35712  0.55907  0.93213  Biso   1.000  N
  N118     1.0000 0.85059  0.09688  0.99906  Biso   1.000  N
  N119     1.0000 0.49946  0.41230  0.79482  Biso   1.000  N
  N120     1.0000 0.41768  0.51586  0.75447  Biso   1.000  N
  N121     1.0000 0.84947  0.67531  0.44068  Biso   1.000  N
  N122     1.0000 0.79674  0.61962  0.49387  Biso   1.000  N
  N123     1.0000 0.81407  0.40504  0.36533  Biso   1.000  N
  N124     1.0000 0.79585  0.56308  0.81682  Biso   1.000  N
  N125     1.0000 0.89690  0.61575  0.81630  Biso   1.000  N
  N126     1.0000 0.84459  0.67682  0.76935  Biso   1.000  N
  N127     1.0000 0.89707  0.11650  0.31663  Biso   1.000  N
  N128     1.0000 0.37400  0.67440  0.33699  Biso   1.000  N
  N129     1.0000 0.79016  0.16254  0.25549  Biso   1.000  N
  N130     1.0000 0.29817  0.56617  0.31998  Biso   1.000  N
  N131     1.0000 0.37985  0.63549  0.31743  Biso   1.000  N
  N132     1.0000 0.34049  0.67916  0.26254  Biso   1.000  N
  N133     1.0000 0.25993  0.09360  0.78158  Biso   1.000  N
  N134     1.0000 0.39646  0.11839  0.81624  Biso   1.000  N
  N135     1.0000 0.87418  0.67269  0.83570  Biso   1.000  N
  N136     1.0000 0.28938  0.16330  0.75694  Biso   1.000  N
  N137     1.0000 0.31496  0.77346  0.35264  Biso   1.000  N
  N138     1.0000 0.26832  0.82850  0.24569  Biso   1.000  N
  N139     1.0000 0.96543  0.48641  0.10149  Biso   1.000  N
  N140     1.0000 0.94138  0.41401  0.09153  Biso   1.000  N
  N141     1.0000 0.99815  0.45924  0.16462  Biso   1.000  N
  N142     1.0000 0.29989  0.27918  0.84556  Biso   1.000  N
  N143     1.0000 0.24647  0.27495  0.72700  Biso   1.000  N
  N144     1.0000 0.96649  0.98803  0.59690  Biso   1.000  N
  N145     1.0000 0.94265  0.90317  0.57862  Biso   1.000  N
  N146     1.0000 0.98814  0.96496  0.65929  Biso   1.000  N
  N147     1.0000 0.81607  0.77332  0.85212  Biso   1.000  N
  N148     1.0000 0.77788  0.81378  0.75622  Biso   1.000  N
  N149     1.0000 0.46437  0.48617  0.60037  Biso   1.000  N
  N150     1.0000 0.44075  0.41429  0.59290  Biso   1.000  N
  N151     1.0000 0.47293  0.40651  0.67428  Biso   1.000  N
  N152     1.0000 0.81063  0.27545  0.35110  Biso   1.000  N
  N153     1.0000 0.74744  0.27606  0.22763  Biso   1.000  N
  N154     1.0000 0.46537  0.98638  0.09956  Biso   1.000  N
  N155     1.0000 0.44314  0.90284  0.07816  Biso   1.000  N
  N156     1.0000 0.48355  0.96416  0.15791  Biso   1.000  N
  N157     1.0000 0.32561  0.89626  0.61781  Biso   1.000  N
  N158     1.0000 0.25908  0.96454  0.58971  Biso   1.000  N
  N159     1.0000 0.28043  0.48982  0.17284  Biso   1.000  N
  N160     1.0000 0.31713  0.37040  0.11426  Biso   1.000  N
  N161     1.0000 0.27475  0.44799  0.12557  Biso   1.000  N
  N162     1.0000 0.38681  0.44006  0.90695  Biso   1.000  N
  N163     1.0000 0.78161  0.99000  0.15708  Biso   1.000  N
  N164     1.0000 0.81652  0.86473  0.11809  Biso   1.000  N
  N165     1.0000 0.75517  0.96185  0.08821  Biso   1.000  N
  N166     1.0000 0.88420  0.92871  0.90794  Biso   1.000  N
  N167     1.0000 0.78034  0.48972  0.67235  Biso   1.000  N
  N168     1.0000 0.81659  0.37102  0.61242  Biso   1.000  N
  N169     1.0000 0.81003  0.89711  0.07107  Biso   1.000  N
  N170     1.0000 0.77459  0.44821  0.62466  Biso   1.000  N
  N171     1.0000 0.87275  0.45567  0.39531  Biso   1.000  N
  N172     1.0000 0.80055  0.97086  0.90693  Biso   1.000  N
  N173     1.0000 0.43334  0.39656  0.13212  Biso   1.000  N
  N174     1.0000 0.40670  0.87242  0.56915  Biso   1.000  N
  N175     1.0000 0.50037  0.34921  0.09703  Biso   1.000  N
  N176     1.0000 0.80072  0.47117  0.40559  Biso   1.000  N
  N177     1.0000 0.43464  0.88710  0.61840  Biso   1.000  N
  N178     1.0000 0.49189  0.83780  0.57186  Biso   1.000  N
  N179     1.0000 0.29969  0.97131  0.40681  Biso   1.000  N
  N180     1.0000 0.23777  0.95929  0.53412  Biso   1.000  N
  N181     1.0000 0.93230  0.39724  0.63263  Biso   1.000  N
  N182     1.0000 0.92708  0.86024  0.10072  Biso   1.000  N
  N183     1.0000 0.99820  0.35038  0.59693  Biso   1.000  N
  N184     1.0000 0.86524  0.30777  0.40464  Biso   1.000  N
  N185     1.0000 0.30331  0.50368  0.90666  Biso   1.000  N
  N186     1.0000 0.23735  0.45732  0.03399  Biso   1.000  N
  N187     1.0000 0.93424  0.89463  0.12828  Biso   1.000  N
  N188     1.0000 0.80803  0.83540  0.59515  Biso   1.000  N
  N189     1.0000 0.82999  0.37278  0.16851  Biso   1.000  N
  N190     1.0000 0.75145  0.85070  0.65473  Biso   1.000  N
  N191     1.0000 0.50815  0.97127  0.22288  Biso   1.000  N
  N192     1.0000 0.81577  0.38500  0.13200  Biso   1.000  N
  N193     1.0000 0.82969  0.87164  0.66631  Biso   1.000  N
  N194     1.0000 0.75603  0.29490  0.12979  Biso   1.000  N
  N195     1.0000 0.93812  0.47588  0.35201  Biso   1.000  N
  N196     1.0000 0.01337  0.45539  0.21734  Biso   1.000  N
  N197     1.0000 0.33636  0.86650  0.07910  Biso   1.000  N
  N198     1.0000 0.26180  0.85623  0.15075  Biso   1.000  N
  N199     1.0000 0.94524  0.97386  0.84491  Biso   1.000  N
  N200     1.0000 0.33346  0.36773  0.58031  Biso   1.000  N
  N201     1.0000 0.33779  0.87236  0.17526  Biso   1.000  N
  N202     1.0000 0.24972  0.34841  0.65520  Biso   1.000  N
  N203     1.0000 0.01245  0.49246  0.66888  Biso   1.000  N
  N204     1.0000 0.69193  0.32161  0.10951  Biso   1.000  N
  N205     1.0000 0.66432  0.92442  0.62275  Biso   1.000  N
  N206     1.0000 0.74474  0.40214  0.10283  Biso   1.000  N
  N207     1.0000 0.62620  0.60279  0.04403  Biso   1.000  N
  N208     1.0000 0.71849  0.84648  0.51151  Biso   1.000  N
  N209     1.0000 0.69103  0.84224  0.58684  Biso   1.000  N
  N210     1.0000 0.74570  0.90278  0.60338  Biso   1.000  N
  N211     1.0000 0.62337  0.10207  0.54432  Biso   1.000  N
  N212     1.0000 0.50714  0.48674  0.16692  Biso   1.000  N
  N213     1.0000 0.19092  0.34418  0.58658  Biso   1.000  N
  N214     1.0000 0.24269  0.40190  0.60536  Biso   1.000  N
  N215     1.0000 0.12497  0.60538  0.54355  Biso   1.000  N
  N216     1.0000 0.49607  0.97560  0.67187  Biso   1.000  N
  N217     1.0000 0.21551  0.84936  0.01315  Biso   1.000  N
  N218     1.0000 0.19251  0.84313  0.08589  Biso   1.000  N
  N219     1.0000 0.16245  0.42551  0.62452  Biso   1.000  N
  N220     1.0000 0.25197  0.90467  0.09719  Biso   1.000  N
  N221     1.0000 0.12517  0.10229  0.04422  Biso   1.000  N
  N222     1.0000 0.75903  0.77807  0.21951  Biso   1.000  N
  N223     1.0000 0.08384  0.92071  0.61797  Biso   1.000  N
  N224     1.0000 0.75754  0.27798  0.71953  Biso   1.000  N
  N225     1.0000 0.06776  0.43539  0.04735  Biso   1.000  N
  N226     1.0000 0.06642  0.38049  0.14724  Biso   1.000  N
  N227     1.0000 0.08418  0.82630  0.62344  Biso   1.000  N
  N228     1.0000 0.00099  0.34618  0.10067  Biso   1.000  N
  N229     1.0000 0.25807  0.77810  0.71794  Biso   1.000  N
  N230     1.0000 0.58430  0.91909  0.11958  Biso   1.000  N
  N231     1.0000 0.49590  0.86276  0.04783  Biso   1.000  N
  N232     1.0000 0.25782  0.27741  0.22117  Biso   1.000  N
  N233     1.0000 0.56564  0.43572  0.54608  Biso   1.000  N
  N234     1.0000 0.56564  0.38071  0.64647  Biso   1.000  N
  N235     1.0000 0.50386  0.34713  0.60249  Biso   1.000  N
  N236     1.0000 0.49217  0.27752  0.52738  Biso   1.000  N
  N237     1.0000 0.18309  0.36419  0.12065  Biso   1.000  N
  N238     1.0000 0.23576  0.32109  0.15852  Biso   1.000  N
  N239     1.0000 0.49170  0.77890  0.03302  Biso   1.000  N
  N240     1.0000 0.18432  0.94117  0.70628  Biso   1.000  N
  N241     1.0000 0.18321  0.86464  0.61974  Biso   1.000  N
  N242     1.0000 0.16425  0.32469  0.12731  Biso   1.000  N
  N243     1.0000 0.22772  0.85669  0.64841  Biso   1.000  N
  N244     1.0000 0.68232  0.36520  0.61899  Biso   1.000  N
  N245     1.0000 0.65676  0.81850  0.12679  Biso   1.000  N
  N246     1.0000 0.73498  0.32127  0.65661  Biso   1.000  N
  N247     1.0000 0.99092  0.77839  0.52985  Biso   1.000  N
  N248     1.0000 0.69484  0.94551  0.21670  Biso   1.000  N
  N249     1.0000 0.66363  0.91776  0.14054  Biso   1.000  N
  N250     1.0000 0.66400  0.32535  0.62615  Biso   1.000  N
  N251     1.0000 0.74795  0.86627  0.20228  Biso   1.000  N
  N252     1.0000 0.22445  0.00532  0.06358  Biso   1.000  N
  N253     1.0000 0.56583  0.88544  0.62018  Biso   1.000  N
  N254     1.0000 0.52184  0.89248  0.64989  Biso   1.000  N
  N255     1.0000 0.20054  0.58942  0.49772  Biso   1.000  N
  N256     1.0000 0.23584  0.49320  0.58036  Biso   1.000  N
  N257     1.0000 0.53571  0.35321  0.23639  Biso   1.000  N
  N258     1.0000 0.55671  0.32175  0.13951  Biso   1.000  N
  N259     1.0000 0.58593  0.92602  0.62615  Biso   1.000  N
  N260     1.0000 0.50309  0.40296  0.14821  Biso   1.000  N
  N261     1.0000 0.73376  0.99523  0.57804  Biso   1.000  N
  N262     1.0000 0.03657  0.85204  0.23568  Biso   1.000  N
  N263     1.0000 0.06715  0.88212  0.11647  Biso   1.000  N
  N264     1.0000 0.00644  0.90160  0.14567  Biso   1.000  N
  N265     1.0000 0.74401  0.48475  0.08315  Biso   1.000  N
  N266     1.0000 0.03548  0.35327  0.73606  Biso   1.000  N
  N267     1.0000 0.06539  0.38234  0.61642  Biso   1.000  N
  N268     1.0000 0.08684  0.92449  0.12545  Biso   1.000  N
  N269     1.0000 0.00128  0.40392  0.64913  Biso   1.000  N
  N270     1.0000 0.13440  0.59177  0.68812  Biso   1.000  N
  N271     1.0000 0.85067  0.73686  0.53559  Biso   1.000  N
  N272     1.0000 0.86167  0.61189  0.53802  Biso   1.000  N
  N273     1.0000 0.88265  0.70249  0.50290  Biso   1.000  N
  N274     1.0000 0.80414  0.21624  0.05417  Biso   1.000  N
  N275     1.0000 0.87650  0.12527  0.03871  Biso   1.000  N
  N276     1.0000 0.90333  0.14826  0.00216  Biso   1.000  N
  N277     1.0000 0.34677  0.74032  0.03154  Biso   1.000  N
  N278     1.0000 0.37623  0.62495  0.03899  Biso   1.000  N
  N279     1.0000 0.38370  0.70376  0.00378  Biso   1.000  N
  N280     1.0000 0.30334  0.21502  0.55592  Biso   1.000  N
  N281     1.0000 0.33301  0.14101  0.58724  Biso   1.000  N
  N282     1.0000 0.42760  0.15553  0.51868  Biso   1.000  N
  N283     1.0000 0.15494  0.52747  0.55201  Biso   1.000  N
  N284     1.0000 0.28385  0.54300  0.48730  Biso   1.000  N
  N285     1.0000 0.44270  0.20715  0.18511  Biso   1.000  N
  N286     1.0000 0.41806  0.13304  0.16594  Biso   1.000  N
  N287     1.0000 0.34535  0.18959  0.20400  Biso   1.000  N
  N288     1.0000 0.27463  0.02708  0.99419  Biso   1.000  N
  N289     1.0000 0.41911  0.63021  0.66653  Biso   1.000  N
  N290     1.0000 0.34318  0.71374  0.73057  Biso   1.000  N
  N291     1.0000 0.14738  0.70438  0.62497  Biso   1.000  N
  N292     1.0000 0.94262  0.20834  0.68524  Biso   1.000  N
  N293     1.0000 0.91879  0.13374  0.66578  Biso   1.000  N
  N294     1.0000 0.84543  0.19040  0.70408  Biso   1.000  N
  N295     1.0000 0.65497  0.19170  0.61463  Biso   1.000  N
  N296     1.0000 0.77507  0.02657  0.49532  Biso   1.000  N
  N297     1.0000 0.94316  0.70622  0.18391  Biso   1.000  N
  N298     1.0000 0.91831  0.63326  0.16503  Biso   1.000  N
  N299     1.0000 0.84223  0.71326  0.23401  Biso   1.000  N
  N300     1.0000 0.64730  0.70461  0.12448  Biso   1.000  N
  N301     1.0000 0.66283  0.24995  0.70486  Biso   1.000  N
  N302     1.0000 0.87378  0.64280  0.06538  Biso   1.000  N
  N303     1.0000 0.33551  0.12067  0.07877  Biso   1.000  N
  N304     1.0000 0.83599  0.53988  0.00336  Biso   1.000  N
  N305     1.0000 0.66166  0.75069  0.20108  Biso   1.000  N
  N306     1.0000 0.77380  0.72631  0.25281  Biso   1.000  N
  N307     1.0000 0.87429  0.14247  0.56535  Biso   1.000  N
  N308     1.0000 0.34153  0.61839  0.57666  Biso   1.000  N
  N309     1.0000 0.86892  0.08175  0.53770  Biso   1.000  N
  N310     1.0000 0.16104  0.25029  0.20278  Biso   1.000  N
  N311     1.0000 0.37506  0.64302  0.56591  Biso   1.000  N
  N312     1.0000 0.83551  0.12099  0.57924  Biso   1.000  N
  N313     1.0000 0.37095  0.54658  0.50912  Biso   1.000  N
  N314     1.0000 0.16100  0.75003  0.70230  Biso   1.000  N
  N315     1.0000 0.27448  0.72576  0.75307  Biso   1.000  N
  N316     1.0000 0.37448  0.14198  0.06526  Biso   1.000  N
  N317     1.0000 0.36946  0.07959  0.03780  Biso   1.000  N
  N318     1.0000 0.34207  0.01010  0.71942  Biso   1.000  N
  N319     1.0000 0.41307  0.04015  0.74564  Biso   1.000  N
  N320     1.0000 0.49934  0.21996  0.52038  Biso   1.000  N
  N321     1.0000 0.32913  0.51003  0.21987  Biso   1.000  N
  N322     1.0000 0.38503  0.63044  0.18261  Biso   1.000  N
  N323     1.0000 0.91493  0.12173  0.17144  Biso   1.000  N
  N324     1.0000 0.39831  0.60188  0.23463  Biso   1.000  N
  N325     1.0000 0.60280  0.59567  0.12510  Biso   1.000  N
  N326     1.0000 0.86861  0.14712  0.18362  Biso   1.000  N
  N327     1.0000 0.87972  0.04707  0.24072  Biso   1.000  N
  N328     1.0000 0.84892  0.51281  0.71469  Biso   1.000  N
  N329     1.0000 0.88280  0.63267  0.68377  Biso   1.000  N
  N330     1.0000 0.88011  0.57929  0.71297  Biso   1.000  N
  N331     1.0000 0.10416  0.59574  0.62607  Biso   1.000  N
  N332     1.0000 0.49637  0.55165  0.15562  Biso   1.000  N
  N333     1.0000 0.13071  0.19573  0.42658  Biso   1.000  N
  N334     1.0000 0.66336  0.19118  0.83775  Biso   1.000  N
  N335     1.0000 0.16179  0.26021  0.34701  Biso   1.000  N
  N336     1.0000 0.52569  0.05981  0.64957  Biso   1.000  N
  N337     1.0000 0.13955  0.69294  0.92871  Biso   1.000  N
  N338     1.0000 0.64360  0.68274  0.30958  Biso   1.000  N
  N339     1.0000 0.14827  0.74636  0.84765  Biso   1.000  N
  N340     1.0000 0.02293  0.56021  0.64838  Biso   1.000  N
  N341     1.0000 0.65044  0.19098  0.92473  Biso   1.000  N
  N342     1.0000 0.14329  0.18206  0.31030  Biso   1.000  N
  N343     1.0000 0.64929  0.24627  0.84711  Biso   1.000  N
  N344     1.0000 0.02616  0.05936  0.14891  Biso   1.000  N
  N345     1.0000 0.63944  0.69311  0.42852  Biso   1.000  N
  N346     1.0000 0.13068  0.67280  0.83954  Biso   1.000  N
  N347     1.0000 0.64891  0.74819  0.34785  Biso   1.000  N
  N348     1.0000 0.08038  0.23725  0.99135  Biso   1.000  N
  N349     1.0000 0.70307  0.56744  0.81372  Biso   1.000  N
  N350     1.0000 0.63950  0.58528  0.83063  Biso   1.000  N
  N351     1.0000 0.71106  0.50479  0.91246  Biso   1.000  N
  N352     1.0000 0.02276  0.68868  0.60174  Biso   1.000  N
  N353     1.0000 0.70322  0.06757  0.31283  Biso   1.000  N
  N354     1.0000 0.64043  0.08614  0.32999  Biso   1.000  N
  N355     1.0000 0.71084  0.00480  0.41231  Biso   1.000  N
  N356     1.0000 0.49931  0.20611  0.58692  Biso   1.000  N
  N357     1.0000 0.20371  0.56688  0.31386  Biso   1.000  N
  N358     1.0000 0.14074  0.58547  0.33069  Biso   1.000  N
  N359     1.0000 0.21333  0.51169  0.41018  Biso   1.000  N
  N360     1.0000 0.49979  0.70358  0.08808  Biso   1.000  N
  N361     1.0000 0.20264  0.06960  0.81544  Biso   1.000  N
  N362     1.0000 0.13660  0.08544  0.82910  Biso   1.000  N
  N363     1.0000 0.14719  0.01735  0.89705  Biso   1.000  N
  N364     1.0000 0.72268  0.05310  0.59463  Biso   1.000  N
  N365     1.0000 0.04852  0.67974  0.31577  Biso   1.000  N
  N366     1.0000 0.12061  0.66672  0.32846  Biso   1.000  N
  N367     1.0000 0.58388  0.68959  0.91051  Biso   1.000  N
  N368     1.0000 0.03752  0.74148  0.41103  Biso   1.000  N
  N369     1.0000 0.71975  0.54666  0.09165  Biso   1.000  N
  N370     1.0000 0.11022  0.19393  0.82091  Biso   1.000  N
  N371     1.0000 0.58333  0.18933  0.41076  Biso   1.000  N
  N372     1.0000 0.10332  0.24393  0.90085  Biso   1.000  N
  N373     1.0000 0.05762  0.11409  0.09503  Biso   1.000  N
  N374     1.0000 0.22362  0.05304  0.09447  Biso   1.000  N
  N375     1.0000 0.54822  0.67983  0.81516  Biso   1.000  N
  N376     1.0000 0.62148  0.66592  0.82880  Biso   1.000  N
  N377     1.0000 0.08440  0.68977  0.41073  Biso   1.000  N
  N378     1.0000 0.53743  0.74078  0.91014  Biso   1.000  N
  N379     1.0000 0.55973  0.61403  0.09469  Biso   1.000  N
  N380     1.0000 0.60213  0.19210  0.32371  Biso   1.000  N
  N381     1.0000 0.10273  0.18774  0.93005  Biso   1.000  N
  N382     1.0000 0.60242  0.24481  0.40274  Biso   1.000  N
  N383     1.0000 0.55662  0.11573  0.59658  Biso   1.000  N
  N384     1.0000 0.22385  0.69267  0.65421  Biso   1.000  N
  N385     1.0000 0.64557  0.06600  0.88084  Biso   1.000  N
  N386     1.0000 0.11765  0.07529  0.34245  Biso   1.000  N
  N387     1.0000 0.60299  0.00321  0.84787  Biso   1.000  N
  N388     1.0000 0.22358  0.19618  0.15399  Biso   1.000  N
  N389     1.0000 0.61509  0.58481  0.41863  Biso   1.000  N
  N390     1.0000 0.12179  0.59592  0.81852  Biso   1.000  N
  N391     1.0000 0.53594  0.51597  0.34210  Biso   1.000  N
  N392     1.0000 0.72448  0.69403  0.15396  Biso   1.000  N
  N393     1.0000 0.14344  0.06574  0.37648  Biso   1.000  N
  N394     1.0000 0.62361  0.08569  0.82578  Biso   1.000  N
  N395     1.0000 0.10187  0.00235  0.34737  Biso   1.000  N
  N396     1.0000 0.72725  0.18988  0.64820  Biso   1.000  N
  N397     1.0000 0.10902  0.58654  0.91567  Biso   1.000  N
  N398     1.0000 0.13961  0.56588  0.87117  Biso   1.000  N
  N399     1.0000 0.62232  0.59355  0.31927  Biso   1.000  N
  N400     1.0000 0.03687  0.51670  0.84232  Biso   1.000  N
  N401     1.0000 0.66303  0.70563  0.25066  Biso   1.000  N
  N402     1.0000 0.93342  0.07056  0.54853  Biso   1.000  N
  N403     1.0000 0.92081  0.08321  0.62111  Biso   1.000  N
  N404     1.0000 0.84854  0.02893  0.53831  Biso   1.000  N
  N405     1.0000 0.65466  0.17733  0.75792  Biso   1.000  N
  N406     1.0000 0.93384  0.57047  0.04815  Biso   1.000  N
  N407     1.0000 0.92012  0.58320  0.12105  Biso   1.000  N
  N408     1.0000 0.84314  0.51790  0.03636  Biso   1.000  N
  N409     1.0000 0.14822  0.68525  0.72751  Biso   1.000  N
  N410     1.0000 0.43391  0.06977  0.04912  Biso   1.000  N
  N411     1.0000 0.41983  0.08241  0.12152  Biso   1.000  N
  N412     1.0000 0.34811  0.02678  0.03639  Biso   1.000  N
  N413     1.0000 0.16268  0.20551  0.25104  Biso   1.000  N
  N414     1.0000 0.43381  0.56995  0.54830  Biso   1.000  N
  N415     1.0000 0.42022  0.58249  0.62114  Biso   1.000  N
  N416     1.0000 0.82551  0.58480  0.12346  Biso   1.000  N
  N417     1.0000 0.34049  0.51510  0.53687  Biso   1.000  N
  N418     1.0000 0.59277  0.05179  0.72186  Biso   1.000  N
  N419     1.0000 0.32214  0.69293  0.10997  Biso   1.000  N
  N420     1.0000 0.94115  0.68144  0.60549  Biso   1.000  N
  N421     1.0000 0.40272  0.74747  0.10120  Biso   1.000  N
  N422     1.0000 0.59550  0.55731  0.25501  Biso   1.000  N
  N423     1.0000 0.32564  0.19113  0.59724  Biso   1.000  N
  N424     1.0000 0.94917  0.17220  0.10431  Biso   1.000  N
  N425     1.0000 0.40199  0.24890  0.59911  Biso   1.000  N
  N426     1.0000 0.10146  0.08023  0.23065  Biso   1.000  N
  N427     1.0000 0.82611  0.69215  0.60259  Biso   1.000  N
  N428     1.0000 0.44177  0.68054  0.10635  Biso   1.000  N
  N429     1.0000 0.90350  0.75980  0.59032  Biso   1.000  N
  N430     1.0000 0.09206  0.55068  0.72049  Biso   1.000  N
  N431     1.0000 0.82220  0.19351  0.11010  Biso   1.000  N
  N432     1.0000 0.43193  0.18970  0.60416  Biso   1.000  N
  N433     1.0000 0.90157  0.24467  0.10247  Biso   1.000  N
  N434     1.0000 0.09344  0.19780  0.02839  Biso   1.000  N
  N435     1.0000 0.97168  0.25788  0.02909  Biso   1.000  N
  N436     1.0000 0.83032  0.58034  0.61984  Biso   1.000  N
  N437     1.0000 0.41597  0.58004  0.12846  Biso   1.000  N
  N438     1.0000 0.90081  0.52836  0.71304  Biso   1.000  N
  N439     1.0000 0.10302  0.67152  0.52107  Biso   1.000  N
  N440     1.0000 0.81474  0.06836  0.20278  Biso   1.000  N
  N441     1.0000 0.83328  0.08688  0.14130  Biso   1.000  N
  N442     1.0000 0.42365  0.08633  0.62681  Biso   1.000  N
  N443     1.0000 0.91054  0.01251  0.21236  Biso   1.000  N
  N444     1.0000 0.60154  0.17067  0.52000  Biso   1.000  N
  N445     1.0000 0.32984  0.58060  0.12281  Biso   1.000  N
  N446     1.0000 0.91103  0.57739  0.63052  Biso   1.000  N
  N447     1.0000 0.40871  0.51559  0.21437  Biso   1.000  N
  N448     1.0000 0.60382  0.67020  0.01940  Biso   1.000  N
  N449     1.0000 0.38241  0.06697  0.61842  Biso   1.000  N
  N450     1.0000 0.38000  0.03790  0.67077  Biso   1.000  N
  N451     1.0000 0.42069  0.19194  0.15423  Biso   1.000  N
  N452     1.0000 0.83747  0.19193  0.66163  Biso   1.000  N
  N453     1.0000 0.34610  0.25817  0.15796  Biso   1.000  N
  N454     1.0000 0.15817  0.11357  0.18691  Biso   1.000  N
  N455     1.0000 0.14790  0.06238  0.02401  Biso   1.000  N
  N456     1.0000 0.44397  0.68874  0.70819  Biso   1.000  N
  N457     1.0000 0.40095  0.66417  0.65683  Biso   1.000  N
  N458     1.0000 0.83285  0.67025  0.12816  Biso   1.000  N
  N459     1.0000 0.33558  0.74663  0.70877  Biso   1.000  N
  N460     1.0000 0.64790  0.56204  0.02428  Biso   1.000  N
  N461     1.0000 0.92041  0.19249  0.65440  Biso   1.000  N
  N462     1.0000 0.33723  0.19166  0.16151  Biso   1.000  N
  N463     1.0000 0.84550  0.25833  0.65757  Biso   1.000  N
  N464     1.0000 0.65753  0.11449  0.67794  Biso   1.000  N
  N465     1.0000 0.64782  0.06270  0.52264  Biso   1.000  N
  N466     1.0000 0.92147  0.69171  0.15255  Biso   1.000  N
  N467     1.0000 0.33938  0.68929  0.66780  Biso   1.000  N
  N468     1.0000 0.84697  0.75979  0.15920  Biso   1.000  N
  N469     1.0000 0.65697  0.61336  0.18720  Biso   1.000  N
  N470     1.0000 0.21045  0.78307  0.76176  Biso   1.000  N
  N471     1.0000 0.54250  0.94409  0.06124  Biso   1.000  N
  N472     1.0000 0.60928  0.91890  0.08623  Biso   1.000  N
  N473     1.0000 0.11994  0.33406  0.08072  Biso   1.000  N
  N474     1.0000 0.54657  0.86893  0.00679  Biso   1.000  N
  N475     1.0000 0.21094  0.28241  0.26320  Biso   1.000  N
  N476     1.0000 0.64104  0.37311  0.56525  Biso   1.000  N
  N477     1.0000 0.59306  0.32598  0.52811  Biso   1.000  N
  N478     1.0000 0.70872  0.78410  0.26227  Biso   1.000  N
  N479     1.0000 0.04226  0.94391  0.56172  Biso   1.000  N
  N480     1.0000 0.14195  0.87243  0.56454  Biso   1.000  N
  N481     1.0000 0.61797  0.33872  0.57763  Biso   1.000  N
  N482     1.0000 0.10003  0.84607  0.50190  Biso   1.000  N
  N483     1.0000 0.71081  0.28255  0.76183  Biso   1.000  N
  N484     1.0000 0.14124  0.37157  0.06583  Biso   1.000  N
  N485     1.0000 0.60205  0.85594  0.07687  Biso   1.000  N
  N486     1.0000 0.09427  0.32186  0.01925  Biso   1.000  N
  N487     1.0000 0.67088  0.49326  0.01644  Biso   1.000  N
  N488     1.0000 0.13566  0.38295  0.68557  Biso   1.000  N
  N489     1.0000 0.10231  0.39718  0.73352  Biso   1.000  N
  N490     1.0000 0.06784  0.59332  0.61481  Biso   1.000  N
  N491     1.0000 0.68707  0.00551  0.52637  Biso   1.000  N
  N492     1.0000 0.13574  0.88351  0.18472  Biso   1.000  N
  N493     1.0000 0.60030  0.42797  0.19090  Biso   1.000  N
  N494     1.0000 0.10265  0.89833  0.23528  Biso   1.000  N
  N495     1.0000 0.25082  0.58709  0.54497  Biso   1.000  N
  N496     1.0000 0.16708  0.48462  0.50631  Biso   1.000  N
  N497     1.0000 0.59561  0.32984  0.19317  Biso   1.000  N
  N498     1.0000 0.60266  0.39751  0.23477  Biso   1.000  N
  N499     1.0000 0.16995  0.99452  0.01576  Biso   1.000  N
  N500     1.0000 0.51337  0.84816  0.71700  Biso   1.000  N
  N501     1.0000 0.63370  0.88494  0.68478  Biso   1.000  N
  N502     1.0000 0.10220  0.43260  0.68867  Biso   1.000  N
  N503     1.0000 0.59203  0.90432  0.75965  Biso   1.000  N
  N504     1.0000 0.08216  0.99253  0.23511  Biso   1.000  N
  N505     1.0000 0.64091  0.82286  0.55811  Biso   1.000  N
  N506     1.0000 0.65015  0.90301  0.50192  Biso   1.000  N
  N507     1.0000 0.68521  0.09198  0.63593  Biso   1.000  N
  N508     1.0000 0.07576  0.47331  0.75616  Biso   1.000  N
  N509     1.0000 0.73862  0.34752  0.03227  Biso   1.000  N
  N510     1.0000 0.66385  0.34127  0.05909  Biso   1.000  N
  N511     1.0000 0.12935  0.93226  0.09538  Biso   1.000  N
  N512     1.0000 0.64638  0.40137  0.00603  Biso   1.000  N
  N513     1.0000 0.69108  0.59320  0.13638  Biso   1.000  N
  N514     1.0000 0.58217  0.98419  0.74479  Biso   1.000  N
  N515     1.0000 0.14901  0.82614  0.05795  Biso   1.000  N
  N516     1.0000 0.62651  0.42384  0.08632  Biso   1.000  N
  N517     1.0000 0.19180  0.09446  0.13563  Biso   1.000  N
  N518     1.0000 0.57659  0.47450  0.25473  Biso   1.000  N
  N519     1.0000 0.23870  0.34236  0.53216  Biso   1.000  N
  N520     1.0000 0.14649  0.32576  0.55937  Biso   1.000  N
  N521     1.0000 0.15829  0.40315  0.49184  Biso   1.000  N
  N522     1.0000 0.19144  0.59340  0.63486  Biso   1.000  N
  N523     1.0000 0.52732  0.27251  0.49692  Biso   1.000  N
  N524     1.0000 0.20901  0.44308  0.18901  Biso   1.000  N
  N525     1.0000 0.10872  0.37145  0.18588  Biso   1.000  N
  N526     1.0000 0.14999  0.34622  0.25026  Biso   1.000  N
  N527     1.0000 0.52616  0.77102  0.99949  Biso   1.000  N
  N528     1.0000 0.13507  0.91824  0.66508  Biso   1.000  N
  N529     1.0000 0.15838  0.84521  0.75921  Biso   1.000  N
  N530     1.0000 0.70884  0.44339  0.68782  Biso   1.000  N
  N531     1.0000 0.60886  0.37126  0.68544  Biso   1.000  N
  N532     1.0000 0.13010  0.83817  0.67199  Biso   1.000  N
  N533     1.0000 0.65014  0.34663  0.74904  Biso   1.000  N
  N534     1.0000 0.02573  0.77143  0.49828  Biso   1.000  N
  N535     1.0000 0.65721  0.89151  0.16591  Biso   1.000  N
  N536     1.0000 0.65047  0.84567  0.24871  Biso   1.000  N
  N537     1.0000 0.72698  0.21508  0.74871  Biso   1.000  N
  N538     1.0000 0.06189  0.54217  0.94531  Biso   1.000  N
  N539     1.0000 0.08526  0.61521  0.92157  Biso   1.000  N
  N540     1.0000 0.00616  0.54700  0.87033  Biso   1.000  N
  N541     1.0000 0.03191  0.00935  0.40590  Biso   1.000  N
  N542     1.0000 0.05745  0.10201  0.42624  Biso   1.000  N
  N543     1.0000 0.01322  0.03573  0.34133  Biso   1.000  N
  N544     1.0000 0.13525  0.06724  0.15670  Biso   1.000  N
  N545     1.0000 0.22790  0.21737  0.24905  Biso   1.000  N
  N546     1.0000 0.53537  0.51416  0.39866  Biso   1.000  N
  N547     1.0000 0.56650  0.64645  0.38097  Biso   1.000  N
  N548     1.0000 0.50209  0.60181  0.34718  Biso   1.000  N
  N549     1.0000 0.53037  0.00898  0.91022  Biso   1.000  N
  N550     1.0000 0.58404  0.11486  0.91878  Biso   1.000  N
  N551     1.0000 0.53988  0.04625  0.84941  Biso   1.000  N
  N552     1.0000 0.63465  0.06737  0.65557  Biso   1.000  N
  N553     1.0000 0.05522  0.75486  0.59622  Biso   1.000  N
  N554     1.0000 0.02198  0.71888  0.50054  Biso   1.000  N
  N555     1.0000 0.68517  0.14158  0.37668  Biso   1.000  N
  N556     1.0000 0.65385  0.62122  0.93199  Biso   1.000  N
  N557     1.0000 0.71225  0.08005  0.37923  Biso   1.000  N
  N558     1.0000 0.06974  0.25704  0.09609  Biso   1.000  N
  N559     1.0000 0.68517  0.64078  0.87747  Biso   1.000  N
  N560     1.0000 0.65393  0.12164  0.43118  Biso   1.000  N
  N561     1.0000 0.71209  0.58003  0.88047  Biso   1.000  N
  N562     1.0000 0.55826  0.75365  0.09657  Biso   1.000  N
  N563     1.0000 0.18405  0.14624  0.86775  Biso   1.000  N
  N564     1.0000 0.17333  0.61767  0.40923  Biso   1.000  N
  N565     1.0000 0.21205  0.07869  0.87884  Biso   1.000  N
  N566     1.0000 0.55480  0.25334  0.59537  Biso   1.000  N
  N567     1.0000 0.18552  0.64202  0.37596  Biso   1.000  N
  N568     1.0000 0.16304  0.12433  0.92320  Biso   1.000  N
  N569     1.0000 0.21302  0.58577  0.38483  Biso   1.000  N
  N570     1.0000 0.18963  0.02279  0.10128  Biso   1.000  N
  N571     1.0000 0.58758  0.64338  0.83455  Biso   1.000  N
  N572     1.0000 0.51094  0.71146  0.91057  Biso   1.000  N
  N573     1.0000 0.55649  0.21610  0.30328  Biso   1.000  N
  N574     1.0000 0.58750  0.14230  0.33292  Biso   1.000  N
  N575     1.0000 0.49331  0.19705  0.42213  Biso   1.000  N
  N576     1.0000 0.69122  0.02479  0.60033  Biso   1.000  N
  N577     1.0000 0.08770  0.64310  0.33449  Biso   1.000  N
  N578     1.0000 0.01167  0.71224  0.41083  Biso   1.000  N
  N579     1.0000 0.68572  0.52175  0.10329  Biso   1.000  N
  N580     1.0000 0.05421  0.21681  0.80338  Biso   1.000  N
  N581     1.0000 0.03860  0.11084  0.85744  Biso   1.000  N
  N582     1.0000 0.13390  0.18210  0.09445  Biso   1.000  N
  N583     1.0000 0.55405  0.52739  0.15448  Biso   1.000  N
  N584     1.0000 0.49716  0.52797  0.27356  Biso   1.000  N
  N585     1.0000 0.18840  0.20792  0.44460  Biso   1.000  N
  N586     1.0000 0.16354  0.15658  0.40259  Biso   1.000  N
  N587     1.0000 0.23126  0.15435  0.32269  Biso   1.000  N
  N588     1.0000 0.55093  0.02986  0.65787  Biso   1.000  N
  N589     1.0000 0.49578  0.02773  0.77482  Biso   1.000  N
  N590     1.0000 0.19419  0.71492  0.94670  Biso   1.000  N
  N591     1.0000 0.19203  0.64909  0.92538  Biso   1.000  N
  N592     1.0000 0.23742  0.71315  0.84128  Biso   1.000  N
  N593     1.0000 0.07831  0.51908  0.64761  Biso   1.000  N
  N594     1.0000 0.69379  0.21540  0.94671  Biso   1.000  N
  N595     1.0000 0.66212  0.14106  0.91707  Biso   1.000  N
  N596     1.0000 0.73264  0.15618  0.82234  Biso   1.000  N
  N597     1.0000 0.05234  0.02916  0.15634  Biso   1.000  N
  N598     1.0000 0.99266  0.02827  0.27677  Biso   1.000  N
  N599     1.0000 0.71811  0.74055  0.40489  Biso   1.000  N
  N600     1.0000 0.71162  0.62499  0.37395  Biso   1.000  N
  N601     1.0000 0.74616  0.70370  0.36739  Biso   1.000  N
  N602     1.0000 0.98663  0.50667  0.33014  Biso   1.000  N
  N603     1.0000 0.30583  0.69676  0.96566  Biso   1.000  N
  N604     1.0000 0.33638  0.64842  0.90659  Biso   1.000  N
  N605     1.0000 0.33658  0.07579  0.37606  Biso   1.000  N
  N606     1.0000 0.25611  0.59825  0.89690  Biso   1.000  N
  N607     1.0000 0.98636  0.00853  0.82908  Biso   1.000  N
  N608     1.0000 0.31618  0.13107  0.35360  Biso   1.000  N
  N609     1.0000 0.25509  0.09849  0.39702  Biso   1.000  N
  N610     1.0000 0.44869  0.41045  0.74874  Biso   1.000  N
  N611     1.0000 0.48579  0.50649  0.82946  Biso   1.000  N
  N612     1.0000 0.80319  0.69763  0.46818  Biso   1.000  N
  N613     1.0000 0.80755  0.67901  0.38943  Biso   1.000  N
  N614     1.0000 0.83497  0.07573  0.87577  Biso   1.000  N
  N615     1.0000 0.75319  0.61764  0.45175  Biso   1.000  N
  N616     1.0000 0.88478  0.40794  0.43651  Biso   1.000  N
  N617     1.0000 0.48796  0.00865  0.32979  Biso   1.000  N
  N618     1.0000 0.81500  0.13135  0.85328  Biso   1.000  N
  N619     1.0000 0.75430  0.09804  0.89743  Biso   1.000  N
  N620     1.0000 0.93438  0.12503  0.35837  Biso   1.000  N
  N621     1.0000 0.91998  0.66363  0.87884  Biso   1.000  N
  N622     1.0000 0.98593  0.15857  0.46170  Biso   1.000  N
  N623     1.0000 0.93275  0.56392  0.95452  Biso   1.000  N
  N624     1.0000 0.93468  0.62594  0.85868  Biso   1.000  N
  N625     1.0000 0.98167  0.67781  0.90600  Biso   1.000  N
  N626     1.0000 0.47029  0.08873  0.99104  Biso   1.000  N
  N627     1.0000 0.43468  0.13105  0.86409  Biso   1.000  N
  N628     1.0000 0.41952  0.66507  0.37973  Biso   1.000  N
  N629     1.0000 0.48010  0.15657  0.96387  Biso   1.000  N
  N630     1.0000 0.43364  0.56404  0.45468  Biso   1.000  N
  N631     1.0000 0.43460  0.62815  0.35920  Biso   1.000  N
  N632     1.0000 0.48318  0.67875  0.40767  Biso   1.000  N
  N633     1.0000 0.81495  0.62552  0.89180  Biso   1.000  N
  N634     1.0000 0.81201  0.18046  0.35324  Biso   1.000  N
  N635     1.0000 0.77972  0.67299  0.84403  Biso   1.000  N
  N636     1.0000 0.48751  0.23943  0.91937  Biso   1.000  N
  N637     1.0000 0.81673  0.06389  0.29537  Biso   1.000  N
  N638     1.0000 0.81481  0.12492  0.39204  Biso   1.000  N
  N639     1.0000 0.76911  0.17750  0.34500  Biso   1.000  N
  N640     1.0000 0.31502  0.62560  0.39272  Biso   1.000  N
  N641     1.0000 0.31186  0.18051  0.85495  Biso   1.000  N
  N642     1.0000 0.27902  0.67341  0.34406  Biso   1.000  N
  N643     1.0000 0.98719  0.24052  0.41872  Biso   1.000  N
  N644     1.0000 0.28972  0.12658  0.86750  Biso   1.000  N
  N645     1.0000 0.26874  0.17687  0.84603  Biso   1.000  N
  N646     1.0000 0.76175  0.00900  0.92052  Biso   1.000  N
  N647     1.0000 0.43785  0.19375  0.29161  Biso   1.000  N
  N648     1.0000 0.44183  0.17576  0.35045  Biso   1.000  N
  N649     1.0000 0.41296  0.57450  0.87330  Biso   1.000  N
  N650     1.0000 0.49574  0.09879  0.35231  Biso   1.000  N
  N651     1.0000 0.37488  0.89719  0.34503  Biso   1.000  N
  N652     1.0000 0.76170  0.50837  0.41917  Biso   1.000  N
  N653     1.0000 0.44347  0.67791  0.85597  Biso   1.000  N
  N654     1.0000 0.41431  0.07589  0.37357  Biso   1.000  N
  N655     1.0000 0.49493  0.61694  0.79729  Biso   1.000  N
  N656     1.0000 0.36295  0.40539  0.81840  Biso   1.000  N
  N657     1.0000 0.26157  0.00954  0.42034  Biso   1.000  N
  N658     1.0000 0.93803  0.19429  0.79210  Biso   1.000  N
  N659     1.0000 0.94100  0.17556  0.85042  Biso   1.000  N
  N660     1.0000 0.99406  0.09851  0.85296  Biso   1.000  N
  N661     1.0000 0.87297  0.89792  0.84492  Biso   1.000  N
  N662     1.0000 0.24642  0.52570  0.92335  Biso   1.000  N
  N663     1.0000 0.94416  0.67886  0.36078  Biso   1.000  N
  N664     1.0000 0.91265  0.07542  0.87279  Biso   1.000  N
  N665     1.0000 0.99144  0.59900  0.35469  Biso   1.000  N
  N666     1.0000 0.86539  0.40711  0.31951  Biso   1.000  N
  N667     1.0000 0.02461  0.97282  0.74688  Biso   1.000  N
  N668     1.0000 0.17060  0.36816  0.41829  Biso   1.000  N
  N669     1.0000 0.58910  0.86961  0.42352  Biso   1.000  N
  N670     1.0000 0.09515  0.34082  0.50952  Biso   1.000  N
  N671     1.0000 0.17101  0.87128  0.91720  Biso   1.000  N
  N672     1.0000 0.60718  0.34889  0.92227  Biso   1.000  N
  N673     1.0000 0.39877  0.97733  0.31033  Biso   1.000  N
  N674     1.0000 0.67058  0.36607  0.91559  Biso   1.000  N
  N675     1.0000 0.08571  0.87066  0.92241  Biso   1.000  N
  N676     1.0000 0.40396  0.31550  0.86584  Biso   1.000  N
  N677     1.0000 0.40333  0.50887  0.82168  Biso   1.000  N
  N678     1.0000 0.53361  0.45584  0.73752  Biso   1.000  N
  N679     1.0000 0.67771  0.85996  0.44336  Biso   1.000  N
  N680     1.0000 0.10799  0.34710  0.42157  Biso   1.000  N
  N681     1.0000 0.59749  0.84957  0.49967  Biso   1.000  N
  N682     1.0000 0.72644  0.47351  0.50387  Biso   1.000  N
  N683     1.0000 0.63074  0.88927  0.81596  Biso   1.000  N
  N684     1.0000 0.16460  0.37114  0.82796  Biso   1.000  N
  N685     1.0000 0.68081  0.83470  0.75364  Biso   1.000  N
  N686     1.0000 0.84468  0.82562  0.88405  Biso   1.000  N
  N687     1.0000 0.72639  0.97282  0.00315  Biso   1.000  N
  N688     1.0000 0.63611  0.38404  0.31571  Biso   1.000  N
  N689     1.0000 0.16191  0.86990  0.32799  Biso   1.000  N
  N690     1.0000 0.65300  0.33920  0.23883  Biso   1.000  N
  N691     1.0000 0.13099  0.88962  0.31512  Biso   1.000  N
  N692     1.0000 0.18058  0.83226  0.25189  Biso   1.000  N
  N693     1.0000 0.34409  0.82573  0.38507  Biso   1.000  N
  N694     1.0000 0.07951  0.37308  0.83296  Biso   1.000  N
  N695     1.0000 0.66188  0.86874  0.82824  Biso   1.000  N
  N696     1.0000 0.17912  0.33081  0.75203  Biso   1.000  N
  N697     1.0000 0.11901  0.35392  0.93376  Biso   1.000  N
  N698     1.0000 0.16504  0.45873  0.99762  Biso   1.000  N
  N699     1.0000 0.12507  0.85643  0.43439  Biso   1.000  N
  N700     1.0000 0.16298  0.95965  0.49719  Biso   1.000  N
  N701     1.0000 0.34341  0.93938  0.36343  Biso   1.000  N
  N702     1.0000 0.59924  0.48693  0.46551  Biso   1.000  N
  N703     1.0000 0.62464  0.35706  0.43496  Biso   1.000  N
  N704     1.0000 0.62932  0.45351  0.49373  Biso   1.000  N
  N705     1.0000 0.62608  0.85569  0.93524  Biso   1.000  N
  N706     1.0000 0.66268  0.95910  0.99641  Biso   1.000  N
  N707     1.0000 0.39786  0.27064  0.92115  Biso   1.000  N
  N708     1.0000 0.53268  0.28701  0.01121  Biso   1.000  N
  N709     1.0000 0.65669  0.98927  0.28080  Biso   1.000  N
  N710     1.0000 0.67807  0.88872  0.30812  Biso   1.000  N
  N711     1.0000 0.58770  0.95947  0.25496  Biso   1.000  N
  N712     1.0000 0.39833  0.77246  0.42350  Biso   1.000  N
  N713     1.0000 0.51506  0.83284  0.49414  Biso   1.000  N
  N714     1.0000 0.65676  0.48987  0.78109  Biso   1.000  N
  N715     1.0000 0.67522  0.39976  0.80878  Biso   1.000  N
  N716     1.0000 0.57645  0.40627  0.77743  Biso   1.000  N
  N717     1.0000 0.89776  0.27103  0.42052  Biso   1.000  N
  N718     1.0000 0.03248  0.28606  0.51082  Biso   1.000  N
  N719     1.0000 0.16418  0.94788  0.82250  Biso   1.000  N
  N720     1.0000 0.17069  0.88014  0.83329  Biso   1.000  N
  N721     1.0000 0.07593  0.90734  0.77585  Biso   1.000  N
  N722     1.0000 0.89869  0.77277  0.92099  Biso   1.000  N
  N723     1.0000 0.00995  0.83210  0.98703  Biso   1.000  N
  N724     1.0000 0.15592  0.48943  0.28182  Biso   1.000  N
  N725     1.0000 0.17533  0.39962  0.30975  Biso   1.000  N
  N726     1.0000 0.07619  0.40581  0.27876  Biso   1.000  N
  N727     1.0000 0.75978  0.78101  0.59307  Biso   1.000  N
  N728     1.0000 0.86452  0.83479  0.58188  Biso   1.000  N
  N729     1.0000 0.84023  0.75996  0.67864  Biso   1.000  N
  N730     1.0000 0.46380  0.95400  0.31493  Biso   1.000  N
  N731     1.0000 0.41938  0.98414  0.24547  Biso   1.000  N
  N732     1.0000 0.78264  0.30468  0.05235  Biso   1.000  N
  N733     1.0000 0.85789  0.33766  0.08393  Biso   1.000  N
  N734     1.0000 0.35173  0.31047  0.68084  Biso   1.000  N
  N735     1.0000 0.78742  0.26119  0.15948  Biso   1.000  N
  N736     1.0000 0.96885  0.45151  0.34150  Biso   1.000  N
  N737     1.0000 0.26121  0.78316  0.09670  Biso   1.000  N
  N738     1.0000 0.35914  0.83696  0.08460  Biso   1.000  N
  N739     1.0000 0.34824  0.74833  0.15299  Biso   1.000  N
  N740     1.0000 0.96367  0.95550  0.81627  Biso   1.000  N
  N741     1.0000 0.91777  0.98910  0.73791  Biso   1.000  N
  N742     1.0000 0.25955  0.28227  0.59581  Biso   1.000  N
  N743     1.0000 0.35659  0.33789  0.58464  Biso   1.000  N
  N744     1.0000 0.34353  0.26646  0.67736  Biso   1.000  N
  N745     1.0000 0.96813  0.74157  0.02722  Biso   1.000  N
  N746     1.0000 0.35350  0.44216  0.17516  Biso   1.000  N
  N747     1.0000 0.87226  0.40487  0.56659  Biso   1.000  N
  N748     1.0000 0.28643  0.48507  0.09101  Biso   1.000  N
  N749     1.0000 0.29454  0.37624  0.89720  Biso   1.000  N
  N750     1.0000 0.96988  0.30125  0.40796  Biso   1.000  N
  N751     1.0000 0.96957  0.24142  0.52718  Biso   1.000  N
  N752     1.0000 0.29219  0.93725  0.69451  Biso   1.000  N
  N753     1.0000 0.34550  0.91440  0.65401  Biso   1.000  N
  N754     1.0000 0.28892  0.98997  0.58998  Biso   1.000  N
  N755     1.0000 0.31251  0.86359  0.40764  Biso   1.000  N
  N756     1.0000 0.50469  0.80774  0.40537  Biso   1.000  N
  N757     1.0000 0.45611  0.73759  0.53371  Biso   1.000  N
  N758     1.0000 0.85306  0.44263  0.67362  Biso   1.000  N
  N759     1.0000 0.37187  0.40457  0.06778  Biso   1.000  N
  N760     1.0000 0.78678  0.48559  0.59023  Biso   1.000  N
  N761     1.0000 0.47024  0.30084  0.90741  Biso   1.000  N
  N762     1.0000 0.46902  0.24150  0.02778  Biso   1.000  N
  N763     1.0000 0.85749  0.91271  0.16688  Biso   1.000  N
  N764     1.0000 0.35000  0.94099  0.57331  Biso   1.000  N
  N765     1.0000 0.81325  0.86331  0.90715  Biso   1.000  N
  N766     1.0000 0.27430  0.94110  0.39877  Biso   1.000  N
  N767     1.0000 0.95150  0.32028  0.68377  Biso   1.000  N
  N768     1.0000 0.88358  0.33459  0.66756  Biso   1.000  N
  N769     1.0000 0.37964  0.33086  0.08321  Biso   1.000  N
  N770     1.0000 0.96358  0.26488  0.59146  Biso   1.000  N
  N771     1.0000 0.28153  0.45125  0.91059  Biso   1.000  N
  N772     1.0000 0.95326  0.81922  0.18332  Biso   1.000  N
  N773     1.0000 0.88525  0.83370  0.16859  Biso   1.000  N
  N774     1.0000 0.96367  0.76435  0.08997  Biso   1.000  N
  N775     1.0000 0.77484  0.94089  0.89870  Biso   1.000  N
  N776     1.0000 0.45222  0.31989  0.18362  Biso   1.000  N
  N777     1.0000 0.38454  0.33407  0.16850  Biso   1.000  N
  N778     1.0000 0.87949  0.33080  0.58244  Biso   1.000  N
  N779     1.0000 0.46375  0.26461  0.09137  Biso   1.000  N
  N780     1.0000 0.77403  0.44066  0.39940  Biso   1.000  N
  N781     1.0000 0.45759  0.81207  0.69508  Biso   1.000  N
  N782     1.0000 0.38902  0.83599  0.66874  Biso   1.000  N
  N783     1.0000 0.46165  0.75480  0.58773  Biso   1.000  N
  N784     1.0000 0.77923  0.30187  0.34277  Biso   1.000  N
  N785     1.0000 0.82907  0.26657  0.24518  Biso   1.000  N
  N786     1.0000 0.36102  0.93413  0.13118  Biso   1.000  N
  N787     1.0000 0.87948  0.91974  0.66587  Biso   1.000  N
  N788     1.0000 0.39740  0.98412  0.14926  Biso   1.000  N
  N789     1.0000 0.78031  0.79932  0.84160  Biso   1.000  N
  N790     1.0000 0.83084  0.76126  0.74108  Biso   1.000  N
  N791     1.0000 0.39699  0.44177  0.57716  Biso   1.000  N
  N792     1.0000 0.87890  0.41974  0.16711  Biso   1.000  N
  N793     1.0000 0.46351  0.48059  0.65732  Biso   1.000  N
  N794     1.0000 0.27348  0.30975  0.85180  Biso   1.000  N
  N795     1.0000 0.86232  0.93466  0.63126  Biso   1.000  N
  N796     1.0000 0.38139  0.92103  0.16237  Biso   1.000  N
  N797     1.0000 0.92138  0.96411  0.62919  Biso   1.000  N
  N798     1.0000 0.27960  0.80077  0.34266  Biso   1.000  N
  N799     1.0000 0.27296  0.75390  0.23190  Biso   1.000  N
  N800     1.0000 0.88508  0.41536  0.08174  Biso   1.000  N
  N801     1.0000 0.37775  0.41907  0.66803  Biso   1.000  N
  N802     1.0000 0.96450  0.48052  0.15704  Biso   1.000  N
  F1       1.0000 0.81236  0.93676  0.88645  Biso   1.000  F
  F2       1.0000 0.80958  0.43684  0.38669  Biso   1.000  F
  F3       1.0000 0.31286  0.81127  0.36331  Biso   1.000  F
  F4       1.0000 0.30978  0.31506  0.86483  Biso   1.000  F
  F5       1.0000 0.93731  0.31288  0.38707  Biso   1.000  F
  F6       1.0000 0.43708  0.31248  0.88672  Biso   1.000  F
  F7       1.0000 0.43834  0.81339  0.38867  Biso   1.000  F
  F8       1.0000 0.43743  0.43894  0.86220  Biso   1.000  F
  F9       1.0000 0.43770  0.94009  0.36274  Biso   1.000  F
  F10      1.0000 0.93510  0.43916  0.36377  Biso   1.000  F
  F11      1.0000 0.93822  0.93997  0.86246  Biso   1.000  F
  F12      1.0000 0.68674  0.06069  0.61277  Biso   1.000  F
  F13      1.0000 0.68627  0.55977  0.11477  Biso   1.000  F
  F14      1.0000 0.56016  0.56355  0.13779  Biso   1.000  F
  F15      1.0000 0.56216  0.06389  0.63741  Biso   1.000  F
  F16      1.0000 0.06115  0.56149  0.63632  Biso   1.000  F
  F17      1.0000 0.06302  0.06296  0.13720  Biso   1.000  F
  F18      1.0000 0.06129  0.18654  0.11239  Biso   1.000  F
  F19      1.0000 0.56171  0.18809  0.61302  Biso   1.000  F
  F20      1.0000 0.18776  0.68685  0.63778  Biso   1.000  F
  F21      1.0000 0.18681  0.18817  0.13630  Biso   1.000  F
  F22      1.0000 0.18837  0.06095  0.11360  Biso   1.000  F
  F23      1.0000 0.18713  0.56014  0.61139  Biso   1.000  F
  F24      1.0000 0.68836  0.18794  0.63606  Biso   1.000  F
  F25      1.0000 0.68832  0.68702  0.13674  Biso   1.000  F
  F26      1.0000 0.06072  0.68821  0.61379  Biso   1.000  F
  F27      1.0000 0.56163  0.68702  0.11204  Biso   1.000  F
  F28      1.0000 0.31046  0.93672  0.38600  Biso   1.000  F
  F29      1.0000 0.31393  0.43972  0.88864  Biso   1.000  F
  F30      1.0000 0.93940  0.81367  0.88743  Biso   1.000  F
  F31      1.0000 0.81318  0.31166  0.36231  Biso   1.000  F
  F32      1.0000 0.81345  0.81088  0.86269  Biso   1.000  F
  F33      1.0000 0.12771  0.37113  0.50203  Biso   1.000  F
  F34      1.0000 0.62072  0.87591  0.00068  Biso   1.000  F
  F35      1.0000 0.62245  0.37935  0.49981  Biso   1.000  F
  F36      1.0000 0.12341  0.87056  0.24995  Biso   1.000  F
  F37      1.0000 0.12293  0.37004  0.75096  Biso   1.000  F
  F38      1.0000 0.62831  0.37791  0.75107  Biso   1.000  F
  F39      1.0000 0.62850  0.87688  0.25183  Biso   1.000  F
  F40      1.0000 0.50062  0.12959  0.37176  Biso   1.000  F
  F41      1.0000 0.99889  0.12892  0.87251  Biso   1.000  F
  F42      1.0000 0.00034  0.62101  0.87809  Biso   1.000  F
  F43      1.0000 0.49991  0.62336  0.37899  Biso   1.000  F
  F44      1.0000 0.24964  0.12010  0.87259  Biso   1.000  F
  F45      1.0000 0.74972  0.12102  0.37195  Biso   1.000  F
  F46      1.0000 0.75147  0.62955  0.37778  Biso   1.000  F
  F47      1.0000 0.24960  0.62918  0.87725  Biso   1.000  F
  F48      1.0000 0.37137  0.49922  0.12926  Biso   1.000  F
  F49      1.0000 0.37252  0.00106  0.62960  Biso   1.000  F
  F50      1.0000 0.87871  0.99956  0.62244  Biso   1.000  F
  F51      1.0000 0.87913  0.49959  0.12157  Biso   1.000  F
  F52      1.0000 0.87073  0.25032  0.12197  Biso   1.000  F
  F53      1.0000 0.87162  0.74899  0.62108  Biso   1.000  F
  F54      1.0000 0.37856  0.74982  0.62710  Biso   1.000  F
  F55      1.0000 0.37812  0.24871  0.12850  Biso   1.000  F
  F56      1.0000 0.12232  0.37745  0.00035  Biso   1.000  F
  F57      1.0000 0.12174  0.87741  0.49911  Biso   1.000  F
  F58      1.0000 0.62852  0.87163  0.50057  Biso   1.000  F
  F59      1.0000 0.62675  0.37071  0.00065  Biso   1.000  F
  F60      1.0000 0.62291  0.37070  0.25047  Biso   1.000  F
  F61      1.0000 0.62217  0.87203  0.75026  Biso   1.000  F
  F62      1.0000 0.12774  0.87752  0.74982  Biso   1.000  F
  F63      1.0000 0.12821  0.37739  0.25216  Biso   1.000  F
  F64      1.0000 0.87863  0.74886  0.12791  Biso   1.000  F
  F65      1.0000 0.87766  0.24891  0.62821  Biso   1.000  F
  F66      1.0000 0.37082  0.24997  0.62119  Biso   1.000  F
  F67      1.0000 0.37100  0.74914  0.12246  Biso   1.000  F
  F68      1.0000 0.87155  0.50050  0.62882  Biso   1.000  F
  F69      1.0000 0.87188  0.99949  0.12885  Biso   1.000  F
  F70      1.0000 0.37629  0.99973  0.12128  Biso   1.000  F
  F71      1.0000 0.37818  0.49922  0.62193  Biso   1.000  F
  F72      1.0000 0.25012  0.62152  0.37215  Biso   1.000  F
  F73      1.0000 0.75004  0.62032  0.87299  Biso   1.000  F
  F74      1.0000 0.74868  0.12879  0.87769  Biso   1.000  F
  F75      1.0000 0.24931  0.12911  0.37732  Biso   1.000  F
  F76      1.0000 0.99970  0.12010  0.37769  Biso   1.000  F
  F77      1.0000 0.49919  0.12030  0.87867  Biso   1.000  F
  F78      1.0000 0.49992  0.62784  0.87104  Biso   1.000  F
  F79      1.0000 0.00076  0.62963  0.37316  Biso   1.000  F
  F80      1.0000 0.87126  0.62842  0.49862  Biso   1.000  F
  F81      1.0000 0.87213  0.12752  0.99898  Biso   1.000  F
  F82      1.0000 0.37809  0.12023  0.00053  Biso   1.000  F
  F83      1.0000 0.37675  0.62038  0.50035  Biso   1.000  F
  F84      1.0000 0.87806  0.13032  0.75034  Biso   1.000  F
  F85      1.0000 0.87944  0.62811  0.25065  Biso   1.000  F
  F86      1.0000 0.37127  0.62283  0.25004  Biso   1.000  F
  F87      1.0000 0.37180  0.12205  0.75021  Biso   1.000  F
  F88      1.0000 0.49834  0.87044  0.62829  Biso   1.000  F
  F89      1.0000 0.00053  0.87075  0.12641  Biso   1.000  F
  F90      1.0000 0.99908  0.37765  0.12259  Biso   1.000  F
  F91      1.0000 0.49853  0.37803  0.62259  Biso   1.000  F
  F92      1.0000 0.74996  0.87830  0.12850  Biso   1.000  F
  F93      1.0000 0.25140  0.87978  0.62711  Biso   1.000  F
  F94      1.0000 0.24889  0.37116  0.62458  Biso   1.000  F
  F95      1.0000 0.74934  0.36923  0.12391  Biso   1.000  F
  F96      1.0000 0.62853  0.49909  0.87197  Biso   1.000  F
  F97      1.0000 0.62860  0.00022  0.37104  Biso   1.000  F
  F98      1.0000 0.12316  0.00013  0.37958  Biso   1.000  F
  F99      1.0000 0.12195  0.50009  0.87987  Biso   1.000  F
  F100     1.0000 0.12722  0.74992  0.87976  Biso   1.000  F
  F101     1.0000 0.12960  0.24838  0.37795  Biso   1.000  F
  F102     1.0000 0.62309  0.25002  0.37112  Biso   1.000  F
  F103     1.0000 0.62281  0.74871  0.87132  Biso   1.000  F
  F104     1.0000 0.87697  0.62151  0.00008  Biso   1.000  F
  F105     1.0000 0.87774  0.12136  0.50004  Biso   1.000  F
  F106     1.0000 0.37251  0.12865  0.50055  Biso   1.000  F
  F107     1.0000 0.37391  0.63010  0.99959  Biso   1.000  F
  F108     1.0000 0.37935  0.62856  0.75131  Biso   1.000  F
  F109     1.0000 0.37764  0.12947  0.25091  Biso   1.000  F
  F110     1.0000 0.87336  0.12098  0.24997  Biso   1.000  F
  F111     1.0000 0.87217  0.62056  0.74993  Biso   1.000  F
  F112     1.0000 0.12243  0.25062  0.86974  Biso   1.000  F
  F113     1.0000 0.12220  0.74949  0.37150  Biso   1.000  F
  F114     1.0000 0.62743  0.74978  0.37957  Biso   1.000  F
  F115     1.0000 0.62806  0.24938  0.87836  Biso   1.000  F
  F116     1.0000 0.12965  0.49943  0.37289  Biso   1.000  F
  F117     1.0000 0.12656  0.00072  0.86933  Biso   1.000  F
  F118     1.0000 0.62270  0.99878  0.87868  Biso   1.000  F
  F119     1.0000 0.62145  0.50005  0.37892  Biso   1.000  F
  F120     1.0000 0.74943  0.37906  0.62626  Biso   1.000  F
  F121     1.0000 0.25027  0.37863  0.12796  Biso   1.000  F
  F122     1.0000 0.25091  0.87491  0.12007  Biso   1.000  F
  F123     1.0000 0.74967  0.87225  0.62350  Biso   1.000  F
  F124     1.0000 0.99962  0.87871  0.62161  Biso   1.000  F
  F125     1.0000 0.50028  0.87857  0.12100  Biso   1.000  F
  F126     1.0000 0.50035  0.37118  0.12744  Biso   1.000  F
  F127     1.0000 0.99886  0.37231  0.62780  Biso   1.000  F
  F128     1.0000 0.12358  0.33482  0.62624  Biso   1.000  F
  F129     1.0000 0.62313  0.83521  0.62577  Biso   1.000  F
  F130     1.0000 0.62438  0.91586  0.12649  Biso   1.000  F
  F131     1.0000 0.12608  0.41482  0.12610  Biso   1.000  F
  F132     1.0000 0.12549  0.83444  0.12539  Biso   1.000  F
  F133     1.0000 0.62514  0.41526  0.62577  Biso   1.000  F
  F134     1.0000 0.62601  0.12517  0.33306  Biso   1.000  F
  F135     1.0000 0.62612  0.62469  0.83374  Biso   1.000  F
  F136     1.0000 0.12535  0.62497  0.91648  Biso   1.000  F
  F137     1.0000 0.12363  0.12650  0.41646  Biso   1.000  F
  F138     1.0000 0.12518  0.12609  0.83218  Biso   1.000  F
  F139     1.0000 0.62527  0.62491  0.41595  Biso   1.000  F
  F140     1.0000 0.33391  0.62496  0.12592  Biso   1.000  F
  F141     1.0000 0.83422  0.62575  0.62558  Biso   1.000  F
  F142     1.0000 0.91608  0.12448  0.62572  Biso   1.000  F
  F143     1.0000 0.83388  0.12569  0.12485  Biso   1.000  F
  F144     1.0000 0.41619  0.62342  0.62635  Biso   1.000  F
  F145     1.0000 0.41558  0.12396  0.12603  Biso   1.000  F
  F146     1.0000 0.08418  0.37676  0.87490  Biso   1.000  F
  F147     1.0000 0.66579  0.87577  0.37582  Biso   1.000  F
  F148     1.0000 0.58514  0.37596  0.37362  Biso   1.000  F
  F149     1.0000 0.58476  0.87303  0.87521  Biso   1.000  F
  F150     1.0000 0.16605  0.87579  0.87512  Biso   1.000  F
  F151     1.0000 0.16627  0.37476  0.37725  Biso   1.000  F
  F152     1.0000 0.87484  0.87385  0.16615  Biso   1.000  F
  F153     1.0000 0.37367  0.37676  0.58513  Biso   1.000  F
  F154     1.0000 0.87235  0.37500  0.66450  Biso   1.000  F
  F155     1.0000 0.37622  0.87527  0.08438  Biso   1.000  F
  F156     1.0000 0.37511  0.58391  0.37380  Biso   1.000  F
  F157     1.0000 0.87404  0.16597  0.87379  Biso   1.000  F
  F158     1.0000 0.87469  0.08227  0.37501  Biso   1.000  F
  F159     1.0000 0.87497  0.58246  0.87528  Biso   1.000  F
  F160     1.0000 0.37594  0.66608  0.87461  Biso   1.000  F
  F161     1.0000 0.37490  0.16622  0.37456  Biso   1.000  F
  F162     1.0000 0.87538  0.66689  0.37400  Biso   1.000  F
  F163     1.0000 0.37583  0.08200  0.87440  Biso   1.000  F
  F164     1.0000 0.37483  0.87480  0.66581  Biso   1.000  F
  F165     1.0000 0.37362  0.37460  0.16575  Biso   1.000  F
  F166     1.0000 0.87404  0.37601  0.08448  Biso   1.000  F
  F167     1.0000 0.87542  0.87484  0.58413  Biso   1.000  F
  F168     1.0000 0.66596  0.37566  0.87552  Biso   1.000  F
  F169     1.0000 0.08431  0.87419  0.37420  Biso   1.000  F
  F170     1.0000 0.91511  0.62427  0.12540  Biso   1.000  F
  F171     1.0000 0.33375  0.12465  0.62586  Biso   1.000  F
  F172     1.0000 0.12589  0.62513  0.33331  Biso   1.000  F
  F173     1.0000 0.62377  0.12436  0.91614  Biso   1.000  F
  F174     1.0000 0.12600  0.91522  0.62458  Biso   1.000  F
  F175     1.0000 0.62515  0.33388  0.12618  Biso   1.000  F
  F176     1.0000 0.27060  0.19546  0.77264  Biso   1.000  F
  F177     1.0000 0.26986  0.69567  0.27236  Biso   1.000  F
  F178     1.0000 0.77093  0.69415  0.77185  Biso   1.000  F
  F179     1.0000 0.48055  0.05367  0.26986  Biso   1.000  F
  F180     1.0000 0.98034  0.05439  0.76965  Biso   1.000  F
  F181     1.0000 0.97704  0.69545  0.97942  Biso   1.000  F
  F182     1.0000 0.97832  0.19572  0.47907  Biso   1.000  F
  F183     1.0000 0.47744  0.69538  0.48103  Biso   1.000  F
  F184     1.0000 0.47782  0.19549  0.98028  Biso   1.000  F
  F185     1.0000 0.77026  0.55427  0.47822  Biso   1.000  F
  F186     1.0000 0.77063  0.05385  0.98027  Biso   1.000  F
  F187     1.0000 0.77069  0.26812  0.19713  Biso   1.000  F
  F188     1.0000 0.77034  0.77017  0.69736  Biso   1.000  F
  F189     1.0000 0.27016  0.48038  0.05379  Biso   1.000  F
  F190     1.0000 0.27087  0.98114  0.55412  Biso   1.000  F
  F191     1.0000 0.97886  0.98125  0.69676  Biso   1.000  F
  F192     1.0000 0.98172  0.47927  0.19667  Biso   1.000  F
  F193     1.0000 0.47956  0.98103  0.19663  Biso   1.000  F
  F194     1.0000 0.48087  0.47823  0.69581  Biso   1.000  F
  F195     1.0000 0.48030  0.76924  0.55387  Biso   1.000  F
  F196     1.0000 0.97994  0.76933  0.05261  Biso   1.000  F
  F197     1.0000 0.19715  0.77004  0.27014  Biso   1.000  F
  F198     1.0000 0.69745  0.77050  0.76877  Biso   1.000  F
  F199     1.0000 0.05495  0.26848  0.47830  Biso   1.000  F
  F200     1.0000 0.05349  0.76873  0.97953  Biso   1.000  F
  F201     1.0000 0.69521  0.97916  0.98100  Biso   1.000  F
  F202     1.0000 0.69556  0.48068  0.48081  Biso   1.000  F
  F203     1.0000 0.19624  0.97944  0.48188  Biso   1.000  F
  F204     1.0000 0.19671  0.47851  0.98170  Biso   1.000  F
  F205     1.0000 0.55466  0.47801  0.77072  Biso   1.000  F
  F206     1.0000 0.55537  0.97917  0.27039  Biso   1.000  F
  F207     1.0000 0.94624  0.52161  0.73194  Biso   1.000  F
  F208     1.0000 0.94691  0.02056  0.22954  Biso   1.000  F
  F209     1.0000 0.80533  0.73008  0.22970  Biso   1.000  F
  F210     1.0000 0.30439  0.73083  0.72833  Biso   1.000  F
  F211     1.0000 0.44516  0.22925  0.51893  Biso   1.000  F
  F212     1.0000 0.44680  0.73013  0.02103  Biso   1.000  F
  F213     1.0000 0.30414  0.02134  0.01789  Biso   1.000  F
  F214     1.0000 0.30347  0.52001  0.52043  Biso   1.000  F
  F215     1.0000 0.80469  0.02161  0.51910  Biso   1.000  F
  F216     1.0000 0.80484  0.51942  0.01983  Biso   1.000  F
  F217     1.0000 0.02050  0.01819  0.30367  Biso   1.000  F
  F218     1.0000 0.02027  0.52094  0.80551  Biso   1.000  F
  F219     1.0000 0.52004  0.01916  0.80454  Biso   1.000  F
  F220     1.0000 0.51912  0.52102  0.30456  Biso   1.000  F
  F221     1.0000 0.23057  0.51933  0.44755  Biso   1.000  F
  F222     1.0000 0.22899  0.02178  0.94560  Biso   1.000  F
  F223     1.0000 0.73044  0.22911  0.80355  Biso   1.000  F
  F224     1.0000 0.72951  0.73082  0.30442  Biso   1.000  F
  F225     1.0000 0.52084  0.72990  0.94617  Biso   1.000  F
  F226     1.0000 0.02104  0.72982  0.44657  Biso   1.000  F
  F227     1.0000 0.51990  0.44532  0.22918  Biso   1.000  F
  F228     1.0000 0.01908  0.44561  0.73049  Biso   1.000  F
  F229     1.0000 0.02064  0.30452  0.01991  Biso   1.000  F
  F230     1.0000 0.01899  0.80457  0.52045  Biso   1.000  F
  F231     1.0000 0.52108  0.30486  0.51870  Biso   1.000  F
  F232     1.0000 0.51982  0.80377  0.02206  Biso   1.000  F
  F233     1.0000 0.73108  0.94690  0.51986  Biso   1.000  F
  F234     1.0000 0.72959  0.44532  0.02037  Biso   1.000  F
  F235     1.0000 0.23021  0.80442  0.72804  Biso   1.000  F
  F236     1.0000 0.23011  0.30419  0.23051  Biso   1.000  F
  F237     1.0000 0.72996  0.30440  0.72889  Biso   1.000  F
  F238     1.0000 0.73080  0.80441  0.22899  Biso   1.000  F
  F239     1.0000 0.51952  0.94505  0.72914  Biso   1.000  F
  F240     1.0000 0.02085  0.94565  0.22922  Biso   1.000  F
  F241     1.0000 0.23006  0.44599  0.52211  Biso   1.000  F
  F242     1.0000 0.22872  0.94692  0.01731  Biso   1.000  F
  F243     1.0000 0.22955  0.73084  0.80415  Biso   1.000  F
  F244     1.0000 0.23112  0.22753  0.30338  Biso   1.000  F
  F245     1.0000 0.72980  0.52016  0.94590  Biso   1.000  F
  F246     1.0000 0.72999  0.02071  0.44534  Biso   1.000  F
  F247     1.0000 0.52092  0.23023  0.44608  Biso   1.000  F
  F248     1.0000 0.02044  0.22998  0.94629  Biso   1.000  F
  F249     1.0000 0.80292  0.22867  0.73128  Biso   1.000  F
  F250     1.0000 0.30342  0.22830  0.23124  Biso   1.000  F
  F251     1.0000 0.94546  0.72908  0.51894  Biso   1.000  F
  F252     1.0000 0.94545  0.22939  0.01922  Biso   1.000  F
  F253     1.0000 0.44690  0.52023  0.23066  Biso   1.000  F
  F254     1.0000 0.44623  0.02115  0.73005  Biso   1.000  F
  F255     1.0000 0.05487  0.47758  0.27054  Biso   1.000  F
  F256     1.0000 0.05520  0.97944  0.77091  Biso   1.000  F
  F257     1.0000 0.19569  0.26877  0.77038  Biso   1.000  F
  F258     1.0000 0.69624  0.27051  0.27005  Biso   1.000  F
  F259     1.0000 0.55410  0.76963  0.48022  Biso   1.000  F
  F260     1.0000 0.55469  0.26842  0.97905  Biso   1.000  F
  F261     1.0000 0.77059  0.48105  0.55324  Biso   1.000  F
  F262     1.0000 0.77118  0.98076  0.05368  Biso   1.000  F
  F263     1.0000 0.26898  0.77215  0.19530  Biso   1.000  F
  F264     1.0000 0.27019  0.26753  0.69595  Biso   1.000  F
  F265     1.0000 0.48049  0.26964  0.05371  Biso   1.000  F
  F266     1.0000 0.98061  0.26957  0.55379  Biso   1.000  F
  F267     1.0000 0.48075  0.55368  0.77116  Biso   1.000  F
  F268     1.0000 0.98116  0.55356  0.27169  Biso   1.000  F
  F269     1.0000 0.27078  0.05451  0.48002  Biso   1.000  F
  F270     1.0000 0.27129  0.55514  0.98064  Biso   1.000  F
  F271     1.0000 0.77073  0.19556  0.27130  Biso   1.000  F
  H1       1.0000 0.33338  0.29644  0.75182  Biso   1.000  H
  H2       1.0000 0.23933  0.26035  0.82633  Biso   1.000  H
  H3       1.0000 0.10457  0.95626  0.47702  Biso   1.000  H
  H4       1.0000 0.07991  0.94293  0.39890  Biso   1.000  H
  H5       1.0000 0.12091  0.95876  0.37557  Biso   1.000  H
  H6       1.0000 0.12641  0.93226  0.36716  Biso   1.000  H
  H7       1.0000 0.66038  0.91996  0.88637  Biso   1.000  H
  H8       1.0000 0.13425  0.99785  0.44984  Biso   1.000  H
  H9       1.0000 0.17443  0.98082  0.41264  Biso   1.000  H
  H10      1.0000 0.14989  0.99055  0.40310  Biso   1.000  H
  H11      1.0000 0.34118  0.80254  0.27846  Biso   1.000  H
  H12      1.0000 0.24590  0.76776  0.32244  Biso   1.000  H
  H13      1.0000 0.09367  0.46468  0.98555  Biso   1.000  H
  H14      1.0000 0.08649  0.41755  0.88510  Biso   1.000  H
  H15      1.0000 0.12470  0.46018  0.88164  Biso   1.000  H
  H16      1.0000 0.13171  0.43432  0.87283  Biso   1.000  H
  H17      1.0000 0.69053  0.42801  0.39949  Biso   1.000  H
  H18      1.0000 0.13253  0.49191  0.95202  Biso   1.000  H
  H19      1.0000 0.17402  0.48286  0.91345  Biso   1.000  H
  H20      1.0000 0.14926  0.49302  0.90499  Biso   1.000  H
  H21      1.0000 0.84030  0.30218  0.24716  Biso   1.000  H
  H22      1.0000 0.73978  0.26046  0.32545  Biso   1.000  H
  H23      1.0000 0.60563  0.95496  0.97543  Biso   1.000  H
  H24      1.0000 0.57972  0.94171  0.89894  Biso   1.000  H
  H25      1.0000 0.62068  0.95764  0.87557  Biso   1.000  H
  H26      1.0000 0.62650  0.93110  0.86757  Biso   1.000  H
  H27      1.0000 0.15926  0.92132  0.38684  Biso   1.000  H
  H28      1.0000 0.63432  0.99774  0.94862  Biso   1.000  H
  H29      1.0000 0.67392  0.97906  0.91160  Biso   1.000  H
  H30      1.0000 0.64946  0.98888  0.90198  Biso   1.000  H
  H31      1.0000 0.84620  0.80719  0.77621  Biso   1.000  H
  H32      1.0000 0.74555  0.76650  0.82182  Biso   1.000  H
  H33      1.0000 0.56371  0.43715  0.45804  Biso   1.000  H
  H34      1.0000 0.59596  0.46406  0.48468  Biso   1.000  H
  H35      1.0000 0.58869  0.41628  0.39127  Biso   1.000  H
  H36      1.0000 0.62264  0.45990  0.37619  Biso   1.000  H
  H37      1.0000 0.62888  0.43352  0.36746  Biso   1.000  H
  H38      1.0000 0.17811  0.40637  0.88109  Biso   1.000  H
  H39      1.0000 0.63244  0.49454  0.45140  Biso   1.000  H
  H40      1.0000 0.67192  0.47972  0.41252  Biso   1.000  H
  H41      1.0000 0.64726  0.48997  0.40397  Biso   1.000  H
  H42      1.0000 0.84806  0.36875  0.43310  Biso   1.000  H
  H43      1.0000 0.40984  0.92842  0.24265  Biso   1.000  H
  H44      1.0000 0.52011  0.00002  0.27797  Biso   1.000  H
  H45      1.0000 0.51137  0.98990  0.32598  Biso   1.000  H
  H46      1.0000 0.68289  0.31368  0.95710  Biso   1.000  H
  H47      1.0000 0.66949  0.30757  0.89879  Biso   1.000  H
  H48      1.0000 0.63031  0.29015  0.87355  Biso   1.000  H
  H49      1.0000 0.62374  0.31645  0.86553  Biso   1.000  H
  H50      1.0000 0.05331  0.33065  0.39891  Biso   1.000  H
  H51      1.0000 0.07025  0.34741  0.38334  Biso   1.000  H
  H52      1.0000 0.58938  0.26261  0.95656  Biso   1.000  H
  H53      1.0000 0.61489  0.25302  0.94818  Biso   1.000  H
  H54      1.0000 0.60090  0.25778  0.90052  Biso   1.000  H
  H55      1.0000 0.40120  0.38309  0.92461  Biso   1.000  H
  H56      1.0000 0.41449  0.45221  0.75067  Biso   1.000  H
  H57      1.0000 0.40756  0.44625  0.77725  Biso   1.000  H
  H58      1.0000 0.51945  0.49931  0.77836  Biso   1.000  H
  H59      1.0000 0.50911  0.48764  0.82570  Biso   1.000  H
  H60      1.0000 0.68321  0.81388  0.45734  Biso   1.000  H
  H61      1.0000 0.65535  0.80715  0.41123  Biso   1.000  H
  H62      1.0000 0.64080  0.79142  0.36627  Biso   1.000  H
  H63      1.0000 0.63477  0.81819  0.35882  Biso   1.000  H
  H64      1.0000 0.06829  0.81658  0.89880  Biso   1.000  H
  H65      1.0000 0.08407  0.83406  0.88289  Biso   1.000  H
  H66      1.0000 0.58931  0.76356  0.45798  Biso   1.000  H
  H67      1.0000 0.61472  0.75359  0.44968  Biso   1.000  H
  H68      1.0000 0.60051  0.75753  0.40201  Biso   1.000  H
  H69      1.0000 0.39716  0.87898  0.41358  Biso   1.000  H
  H70      1.0000 0.91391  0.95221  0.74989  Biso   1.000  H
  H71      1.0000 0.01004  0.98998  0.82580  Biso   1.000  H
  H72      1.0000 0.16919  0.31791  0.45292  Biso   1.000  H
  H73      1.0000 0.17209  0.30437  0.39122  Biso   1.000  H
  H74      1.0000 0.12496  0.29111  0.38249  Biso   1.000  H
  H75      1.0000 0.11878  0.31755  0.37518  Biso   1.000  H
  H76      1.0000 0.55450  0.32842  0.89819  Biso   1.000  H
  H77      1.0000 0.57129  0.34516  0.88244  Biso   1.000  H
  H78      1.0000 0.09082  0.26837  0.45697  Biso   1.000  H
  H79      1.0000 0.11663  0.25889  0.44963  Biso   1.000  H
  H80      1.0000 0.10169  0.25597  0.40202  Biso   1.000  H
  H81      1.0000 0.90326  0.38413  0.43451  Biso   1.000  H
  H82      1.0000 0.93624  0.45797  0.25561  Biso   1.000  H
  H83      1.0000 0.02074  0.50035  0.27926  Biso   1.000  H
  H84      1.0000 0.01047  0.48837  0.32652  Biso   1.000  H
  H85      1.0000 0.15205  0.78919  0.98265  Biso   1.000  H
  H86      1.0000 0.16869  0.80808  0.90059  Biso   1.000  H
  H87      1.0000 0.13029  0.79033  0.87440  Biso   1.000  H
  H88      1.0000 0.12376  0.81654  0.86610  Biso   1.000  H
  H89      1.0000 0.56646  0.81752  0.39959  Biso   1.000  H
  H90      1.0000 0.58250  0.83416  0.38330  Biso   1.000  H
  H91      1.0000 0.08862  0.76228  0.95764  Biso   1.000  H
  H92      1.0000 0.11437  0.75297  0.94959  Biso   1.000  H
  H93      1.0000 0.10066  0.75678  0.90177  Biso   1.000  H
  H94      1.0000 0.89725  0.87943  0.91363  Biso   1.000  H
  H95      1.0000 0.02273  0.74677  0.92698  Biso   1.000  H
  H96      1.0000 0.18272  0.43549  0.29438  Biso   1.000  H
  H97      1.0000 0.15605  0.46481  0.26425  Biso   1.000  H
  H98      1.0000 0.16601  0.41618  0.37058  Biso   1.000  H
  H99      1.0000 0.12726  0.45827  0.36655  Biso   1.000  H
  H100     1.0000 0.11924  0.43267  0.37528  Biso   1.000  H
  H101     1.0000 0.56447  0.43175  0.85171  Biso   1.000  H
  H102     1.0000 0.11620  0.49630  0.30252  Biso   1.000  H
  H103     1.0000 0.07719  0.47724  0.33996  Biso   1.000  H
  H104     1.0000 0.10161  0.48736  0.34932  Biso   1.000  H
  H105     1.0000 0.90223  0.36801  0.31331  Biso   1.000  H
  H106     1.0000 0.91083  0.30241  0.50215  Biso   1.000  H
  H107     1.0000 0.01993  0.24809  0.47035  Biso   1.000  H
  H108     1.0000 0.01050  0.25934  0.42273  Biso   1.000  H
  H109     1.0000 0.16640  0.93016  0.79866  Biso   1.000  H
  H110     1.0000 0.17091  0.96552  0.76390  Biso   1.000  H
  H111     1.0000 0.17183  0.94628  0.86166  Biso   1.000  H
  H112     1.0000 0.12373  0.95826  0.86551  Biso   1.000  H
  H113     1.0000 0.11769  0.93199  0.87336  Biso   1.000  H
  H114     1.0000 0.56126  0.93059  0.35260  Biso   1.000  H
  H115     1.0000 0.09172  0.95691  0.82241  Biso   1.000  H
  H116     1.0000 0.89428  0.87738  0.79989  Biso   1.000  H
  H117     1.0000 0.41058  0.81145  0.50602  Biso   1.000  H
  H118     1.0000 0.51988  0.75021  0.47226  Biso   1.000  H
  H119     1.0000 0.68223  0.43537  0.79394  Biso   1.000  H
  H120     1.0000 0.65696  0.46538  0.76331  Biso   1.000  H
  H121     1.0000 0.66518  0.41630  0.86935  Biso   1.000  H
  H122     1.0000 0.62681  0.45881  0.86664  Biso   1.000  H
  H123     1.0000 0.61861  0.43307  0.87490  Biso   1.000  H
  H124     1.0000 0.06558  0.43245  0.35268  Biso   1.000  H
  H125     1.0000 0.60548  0.50977  0.81191  Biso   1.000  H
  H126     1.0000 0.58764  0.45812  0.82925  Biso   1.000  H
  H127     1.0000 0.61262  0.46758  0.83747  Biso   1.000  H
  H128     1.0000 0.40123  0.36737  0.81959  Biso   1.000  H
  H129     1.0000 0.51946  0.24836  0.97128  Biso   1.000  H
  H130     1.0000 0.51076  0.25835  0.92325  Biso   1.000  H
  H131     1.0000 0.68316  0.93541  0.29432  Biso   1.000  H
  H132     1.0000 0.65671  0.96437  0.26365  Biso   1.000  H
  H133     1.0000 0.67003  0.94213  0.35105  Biso   1.000  H
  H134     1.0000 0.66299  0.91607  0.35950  Biso   1.000  H
  H135     1.0000 0.62984  0.96052  0.37393  Biso   1.000  H
  H136     1.0000 0.06470  0.93259  0.85193  Biso   1.000  H
  H137     1.0000 0.59135  0.95622  0.32357  Biso   1.000  H
  H138     1.0000 0.39537  0.87582  0.30007  Biso   1.000  H
  H139     1.0000 0.83588  0.45115  0.49913  Biso   1.000  H
  H140     1.0000 0.73007  0.50152  0.47159  Biso   1.000  H
  H141     1.0000 0.73838  0.48968  0.42391  Biso   1.000  H
  H142     1.0000 0.59505  0.78683  0.76612  Biso   1.000  H
  H143     1.0000 0.57868  0.80300  0.86129  Biso   1.000  H
  H144     1.0000 0.62695  0.79174  0.86613  Biso   1.000  H
  H145     1.0000 0.63231  0.81838  0.87434  Biso   1.000  H
  H146     1.0000 0.18414  0.81738  0.35115  Biso   1.000  H
  H147     1.0000 0.16797  0.83377  0.36758  Biso   1.000  H
  H148     1.0000 0.63400  0.75559  0.79880  Biso   1.000  H
  H149     1.0000 0.67479  0.76773  0.83723  Biso   1.000  H
  H150     1.0000 0.65006  0.75783  0.84602  Biso   1.000  H
  H151     1.0000 0.85278  0.87619  0.83945  Biso   1.000  H
  H152     1.0000 0.73867  0.99001  0.92485  Biso   1.000  H
  H153     1.0000 0.59814  0.29076  0.26857  Biso   1.000  H
  H154     1.0000 0.57996  0.30736  0.35165  Biso   1.000  H
  H155     1.0000 0.62058  0.29132  0.37554  Biso   1.000  H
  H156     1.0000 0.62651  0.31791  0.38336  Biso   1.000  H
  H157     1.0000 0.18176  0.31673  0.85095  Biso   1.000  H
  H158     1.0000 0.16612  0.33411  0.86709  Biso   1.000  H
  H159     1.0000 0.63500  0.25277  0.30127  Biso   1.000  H
  H160     1.0000 0.67411  0.27093  0.33909  Biso   1.000  H
  H161     1.0000 0.64941  0.26122  0.34824  Biso   1.000  H
  H162     1.0000 0.84733  0.38325  0.31910  Biso   1.000  H
  H163     1.0000 0.24304  0.48842  0.97222  Biso   1.000  H
  H164     1.0000 0.22790  0.50199  0.92671  Biso   1.000  H
  H165     1.0000 0.09405  0.78685  0.26585  Biso   1.000  H
  H166     1.0000 0.07808  0.80397  0.36079  Biso   1.000  H
  H167     1.0000 0.12622  0.79254  0.36625  Biso   1.000  H
  H168     1.0000 0.13165  0.81927  0.37414  Biso   1.000  H
  H169     1.0000 0.68422  0.81614  0.85112  Biso   1.000  H
  H170     1.0000 0.66817  0.83250  0.86770  Biso   1.000  H
  H171     1.0000 0.13413  0.75579  0.29927  Biso   1.000  H
  H172     1.0000 0.17348  0.77033  0.33837  Biso   1.000  H
  H173     1.0000 0.14862  0.76045  0.34680  Biso   1.000  H
  H174     1.0000 0.35415  0.87583  0.33997  Biso   1.000  H
  H175     1.0000 0.33497  0.95159  0.49949  Biso   1.000  H
  H176     1.0000 0.23154  0.00010  0.47331  Biso   1.000  H
  H177     1.0000 0.23869  0.99036  0.42498  Biso   1.000  H
  H178     1.0000 0.09682  0.29029  0.76759  Biso   1.000  H
  H179     1.0000 0.08103  0.30893  0.84918  Biso   1.000  H
  H180     1.0000 0.11922  0.29096  0.87556  Biso   1.000  H
  H181     1.0000 0.12587  0.31712  0.88385  Biso   1.000  H
  H182     1.0000 0.68919  0.31931  0.35261  Biso   1.000  H
  H183     1.0000 0.16028  0.26307  0.79202  Biso   1.000  H
  H184     1.0000 0.13458  0.25366  0.80009  Biso   1.000  H
  H185     1.0000 0.14848  0.25708  0.84789  Biso   1.000  H
  H186     1.0000 0.34568  0.38080  0.81578  Biso   1.000  H
  H187     1.0000 0.74849  0.33759  0.30302  Biso   1.000  H
  H188     1.0000 0.77582  0.34312  0.30800  Biso   1.000  H
  H189     1.0000 0.78322  0.22551  0.24776  Biso   1.000  H
  H190     1.0000 0.82610  0.24407  0.26500  Biso   1.000  H
  H191     1.0000 0.45262  0.07007  0.93509  Biso   1.000  H
  H192     1.0000 0.48762  0.08746  0.96608  Biso   1.000  H
  H193     1.0000 0.39971  0.07868  0.94337  Biso   1.000  H
  H194     1.0000 0.39159  0.08418  0.91678  Biso   1.000  H
  H195     1.0000 0.36753  0.12478  0.93243  Biso   1.000  H
  H196     1.0000 0.89950  0.67935  0.93467  Biso   1.000  H
  H197     1.0000 0.88396  0.66202  0.91884  Biso   1.000  H
  H198     1.0000 0.45595  0.16146  0.98940  Biso   1.000  H
  H199     1.0000 0.44732  0.13619  0.99882  Biso   1.000  H
  H200     1.0000 0.40058  0.14738  0.98577  Biso   1.000  H
  H201     1.0000 0.42387  0.34923  0.86730  Biso   1.000  H
  H202     1.0000 0.74825  0.83700  0.80478  Biso   1.000  H
  H203     1.0000 0.77552  0.84267  0.80962  Biso   1.000  H
  H204     1.0000 0.77870  0.72994  0.75030  Biso   1.000  H
  H205     1.0000 0.82691  0.73791  0.75993  Biso   1.000  H
  H206     1.0000 0.45801  0.56568  0.43702  Biso   1.000  H
  H207     1.0000 0.48350  0.59882  0.46404  Biso   1.000  H
  H208     1.0000 0.40723  0.58816  0.44195  Biso   1.000  H
  H209     1.0000 0.39893  0.59443  0.41565  Biso   1.000  H
  H210     1.0000 0.36600  0.60933  0.46008  Biso   1.000  H
  H211     1.0000 0.89528  0.14825  0.42116  Biso   1.000  H
  H212     1.0000 0.45485  0.66246  0.49006  Biso   1.000  H
  H213     1.0000 0.44586  0.63761  0.50025  Biso   1.000  H
  H214     1.0000 0.40006  0.64731  0.48331  Biso   1.000  H
  H215     1.0000 0.41417  0.85381  0.37302  Biso   1.000  H
  H216     1.0000 0.24835  0.33464  0.80142  Biso   1.000  H
  H217     1.0000 0.27519  0.34101  0.80798  Biso   1.000  H
  H218     1.0000 0.27938  0.23217  0.75701  Biso   1.000  H
  H219     1.0000 0.98371  0.09611  0.46327  Biso   1.000  H
  H220     1.0000 0.90597  0.08647  0.44211  Biso   1.000  H
  H221     1.0000 0.89750  0.09243  0.41587  Biso   1.000  H
  H222     1.0000 0.86642  0.11048  0.46045  Biso   1.000  H
  H223     1.0000 0.40062  0.67833  0.43672  Biso   1.000  H
  H224     1.0000 0.38472  0.66149  0.42070  Biso   1.000  H
  H225     1.0000 0.95645  0.16102  0.48758  Biso   1.000  H
  H226     1.0000 0.94744  0.13598  0.49730  Biso   1.000  H
  H227     1.0000 0.90059  0.14848  0.48595  Biso   1.000  H
  H228     1.0000 0.92540  0.34928  0.36715  Biso   1.000  H
  H229     1.0000 0.24883  0.83728  0.30366  Biso   1.000  H
  H230     1.0000 0.27616  0.84270  0.30870  Biso   1.000  H
  H231     1.0000 0.27697  0.73324  0.25333  Biso   1.000  H
  H232     1.0000 0.32643  0.73693  0.25740  Biso   1.000  H
  H233     1.0000 0.95733  0.56545  0.93707  Biso   1.000  H
  H234     1.0000 0.98314  0.59769  0.96484  Biso   1.000  H
  H235     1.0000 0.90624  0.58742  0.94245  Biso   1.000  H
  H236     1.0000 0.89822  0.59357  0.91610  Biso   1.000  H
  H237     1.0000 0.86560  0.61002  0.96021  Biso   1.000  H
  H238     1.0000 0.39627  0.14736  0.92153  Biso   1.000  H
  H239     1.0000 0.95489  0.66226  0.98834  Biso   1.000  H
  H240     1.0000 0.94600  0.63755  0.99898  Biso   1.000  H
  H241     1.0000 0.89989  0.64728  0.98288  Biso   1.000  H
  H242     1.0000 0.93042  0.84893  0.86660  Biso   1.000  H
  H243     1.0000 0.24723  0.41176  0.94313  Biso   1.000  H
  H244     1.0000 0.27435  0.40544  0.93823  Biso   1.000  H
  H245     1.0000 0.27985  0.51860  0.99624  Biso   1.000  H
  H246     1.0000 0.98460  0.65455  0.28520  Biso   1.000  H
  H247     1.0000 0.89169  0.66301  0.33329  Biso   1.000  H
  H248     1.0000 0.87534  0.62911  0.29003  Biso   1.000  H
  H249     1.0000 0.86619  0.62369  0.31646  Biso   1.000  H
  H250     1.0000 0.40411  0.07755  0.31283  Biso   1.000  H
  H251     1.0000 0.38774  0.09302  0.33013  Biso   1.000  H
  H252     1.0000 0.95607  0.59711  0.28073  Biso   1.000  H
  H253     1.0000 0.94702  0.62147  0.26957  Biso   1.000  H
  H254     1.0000 0.92086  0.57237  0.25560  Biso   1.000  H
  H255     1.0000 0.24904  0.91531  0.44860  Biso   1.000  H
  H256     1.0000 0.27592  0.90916  0.44210  Biso   1.000  H
  H257     1.0000 0.27966  0.01789  0.49501  Biso   1.000  H
  H258     1.0000 0.96069  0.18895  0.81155  Biso   1.000  H
  H259     1.0000 0.98076  0.15026  0.78737  Biso   1.000  H
  H260     1.0000 0.88443  0.16411  0.83338  Biso   1.000  H
  H261     1.0000 0.87896  0.12741  0.78962  Biso   1.000  H
  H262     1.0000 0.86996  0.12002  0.81532  Biso   1.000  H
  H263     1.0000 0.40329  0.57676  0.81249  Biso   1.000  H
  H264     1.0000 0.38723  0.59262  0.82976  Biso   1.000  H
  H265     1.0000 0.95550  0.09813  0.77925  Biso   1.000  H
  H266     1.0000 0.94614  0.12263  0.76883  Biso   1.000  H
  H267     1.0000 0.91908  0.07387  0.75545  Biso   1.000  H
  H268     1.0000 0.74889  0.41570  0.44967  Biso   1.000  H
  H269     1.0000 0.77570  0.40924  0.44307  Biso   1.000  H
  H270     1.0000 0.77939  0.51739  0.49353  Biso   1.000  H
  H271     1.0000 0.48450  0.65623  0.78470  Biso   1.000  H
  H272     1.0000 0.38522  0.66418  0.83364  Biso   1.000  H
  H273     1.0000 0.38010  0.62670  0.79047  Biso   1.000  H
  H274     1.0000 0.37120  0.61966  0.81631  Biso   1.000  H
  H275     1.0000 0.90345  0.07801  0.81192  Biso   1.000  H
  H276     1.0000 0.88679  0.09322  0.82919  Biso   1.000  H
  H277     1.0000 0.45590  0.59670  0.78170  Biso   1.000  H
  H278     1.0000 0.41853  0.57425  0.75757  Biso   1.000  H
  H279     1.0000 0.40990  0.59919  0.74765  Biso   1.000  H
  H280     1.0000 0.74929  0.91453  0.94810  Biso   1.000  H
  H281     1.0000 0.77599  0.90797  0.94131  Biso   1.000  H
  H282     1.0000 0.77999  0.01764  0.99557  Biso   1.000  H
  H283     1.0000 0.46085  0.18877  0.31077  Biso   1.000  H
  H284     1.0000 0.48104  0.15019  0.28650  Biso   1.000  H
  H285     1.0000 0.38531  0.16415  0.33365  Biso   1.000  H
  H286     1.0000 0.37901  0.12697  0.29037  Biso   1.000  H
  H287     1.0000 0.37050  0.11988  0.31631  Biso   1.000  H
  H288     1.0000 0.91559  0.58576  0.31310  Biso   1.000  H
  H289     1.0000 0.45579  0.09730  0.27885  Biso   1.000  H
  H290     1.0000 0.44620  0.12170  0.26842  Biso   1.000  H
  H291     1.0000 0.41856  0.07290  0.25650  Biso   1.000  H
  H292     1.0000 0.97720  0.90439  0.82618  Biso   1.000  H
  H293     1.0000 0.96909  0.02076  0.75075  Biso   1.000  H
  H294     1.0000 0.26688  0.15277  0.46299  Biso   1.000  H
  H295     1.0000 0.34962  0.16750  0.44100  Biso   1.000  H
  H296     1.0000 0.35885  0.16070  0.41492  Biso   1.000  H
  H297     1.0000 0.37915  0.13245  0.46054  Biso   1.000  H
  H298     1.0000 0.83509  0.58545  0.43569  Biso   1.000  H
  H299     1.0000 0.29239  0.09456  0.48036  Biso   1.000  H
  H300     1.0000 0.30248  0.11879  0.49103  Biso   1.000  H
  H301     1.0000 0.33738  0.07358  0.48550  Biso   1.000  H
  H302     1.0000 0.31625  0.90111  0.36912  Biso   1.000  H
  H303     1.0000 0.97529  0.40521  0.31451  Biso   1.000  H
  H304     1.0000 0.97156  0.51761  0.25509  Biso   1.000  H
  H305     1.0000 0.28490  0.69152  0.94439  Biso   1.000  H
  H306     1.0000 0.27443  0.64455  0.95713  Biso   1.000  H
  H307     1.0000 0.37030  0.66595  0.91592  Biso   1.000  H
  H308     1.0000 0.36859  0.62761  0.95860  Biso   1.000  H
  H309     1.0000 0.37712  0.61960  0.93288  Biso   1.000  H
  H310     1.0000 0.84636  0.07681  0.93631  Biso   1.000  H
  H311     1.0000 0.86221  0.09268  0.91890  Biso   1.000  H
  H312     1.0000 0.29319  0.59474  0.98165  Biso   1.000  H
  H313     1.0000 0.30363  0.61913  0.99166  Biso   1.000  H
  H314     1.0000 0.33868  0.57438  0.98393  Biso   1.000  H
  H315     1.0000 0.33606  0.39932  0.87169  Biso   1.000  H
  H316     1.0000 0.50571  0.90960  0.32261  Biso   1.000  H
  H317     1.0000 0.47848  0.90411  0.32868  Biso   1.000  H
  H318     1.0000 0.46678  0.02342  0.24639  Biso   1.000  H
  H319     1.0000 0.42425  0.00598  0.26558  Biso   1.000  H
  H320     1.0000 0.76672  0.15187  0.96351  Biso   1.000  H
  H321     1.0000 0.84905  0.16718  0.94028  Biso   1.000  H
  H322     1.0000 0.85816  0.16051  0.91411  Biso   1.000  H
  H323     1.0000 0.87845  0.13177  0.95941  Biso   1.000  H
  H324     1.0000 0.37025  0.57846  0.91276  Biso   1.000  H
  H325     1.0000 0.79218  0.09442  0.97995  Biso   1.000  H
  H326     1.0000 0.80228  0.11873  0.99050  Biso   1.000  H
  H327     1.0000 0.83686  0.07311  0.98634  Biso   1.000  H
  H328     1.0000 0.81691  0.90087  0.86866  Biso   1.000  H
  H329     1.0000 0.47100  0.40903  0.80379  Biso   1.000  H
  H330     1.0000 0.47141  0.51733  0.75476  Biso   1.000  H
  H331     1.0000 0.78267  0.69301  0.44625  Biso   1.000  H
  H332     1.0000 0.77520  0.64452  0.45473  Biso   1.000  H
  H333     1.0000 0.85967  0.66446  0.41458  Biso   1.000  H
  H334     1.0000 0.87545  0.63166  0.45882  Biso   1.000  H
  H335     1.0000 0.88427  0.62515  0.43265  Biso   1.000  H
  H336     1.0000 0.34671  0.07685  0.43681  Biso   1.000  H
  H337     1.0000 0.36295  0.09270  0.41974  Biso   1.000  H
  H338     1.0000 0.79090  0.59215  0.48285  Biso   1.000  H
  H339     1.0000 0.83801  0.57638  0.47883  Biso   1.000  H
  H340     1.0000 0.84715  0.60100  0.48912  Biso   1.000  H
  H341     1.0000 0.50065  0.83090  0.45376  Biso   1.000  H
  H342     1.0000 0.47364  0.83797  0.44915  Biso   1.000  H
  H343     1.0000 0.45583  0.72038  0.50896  Biso   1.000  H
  H344     1.0000 0.43380  0.75302  0.47844  Biso   1.000  H
  H345     1.0000 0.76613  0.59681  0.78696  Biso   1.000  H
  H346     1.0000 0.84280  0.58764  0.80807  Biso   1.000  H
  H347     1.0000 0.85121  0.59363  0.83432  Biso   1.000  H
  H348     1.0000 0.88369  0.60942  0.78985  Biso   1.000  H
  H349     1.0000 0.34914  0.17882  0.81614  Biso   1.000  H
  H350     1.0000 0.36562  0.16203  0.83160  Biso   1.000  H
  H351     1.0000 0.79372  0.65996  0.76482  Biso   1.000  H
  H352     1.0000 0.80215  0.63477  0.75452  Biso   1.000  H
  H353     1.0000 0.84971  0.64847  0.76020  Biso   1.000  H
  H354     1.0000 0.81534  0.84537  0.88296  Biso   1.000  H
  H355     1.0000 0.50288  0.33761  0.94465  Biso   1.000  H
  H356     1.0000 0.47591  0.34422  0.93915  Biso   1.000  H
  H357     1.0000 0.46494  0.22378  0.00369  Biso   1.000  H
  H358     1.0000 0.42655  0.24856  0.98366  Biso   1.000  H
  H359     1.0000 0.79213  0.06539  0.31277  Biso   1.000  H
  H360     1.0000 0.76675  0.09835  0.28546  Biso   1.000  H
  H361     1.0000 0.84338  0.08777  0.30779  Biso   1.000  H
  H362     1.0000 0.85148  0.09375  0.33412  Biso   1.000  H
  H363     1.0000 0.88425  0.10997  0.29004  Biso   1.000  H
  H364     1.0000 0.35297  0.68946  0.32112  Biso   1.000  H
  H365     1.0000 0.80451  0.13704  0.24736  Biso   1.000  H
  H366     1.0000 0.83659  0.16990  0.28173  Biso   1.000  H
  H367     1.0000 0.84718  0.14584  0.27172  Biso   1.000  H
  H368     1.0000 0.82144  0.34649  0.38282  Biso   1.000  H
  H369     1.0000 0.97567  0.84227  0.94565  Biso   1.000  H
  H370     1.0000 0.96406  0.72364  0.00323  Biso   1.000  H
  H371     1.0000 0.92601  0.74859  0.98281  Biso   1.000  H
  H372     1.0000 0.26557  0.59177  0.28533  Biso   1.000  H
  H373     1.0000 0.35709  0.57953  0.30559  Biso   1.000  H
  H374     1.0000 0.36489  0.58575  0.33215  Biso   1.000  H
  H375     1.0000 0.37059  0.62504  0.29080  Biso   1.000  H
  H376     1.0000 0.84945  0.17827  0.31461  Biso   1.000  H
  H377     1.0000 0.86587  0.16165  0.33039  Biso   1.000  H
  H378     1.0000 0.29222  0.65804  0.27300  Biso   1.000  H
  H379     1.0000 0.30008  0.63263  0.26282  Biso   1.000  H
  H380     1.0000 0.34564  0.65088  0.25349  Biso   1.000  H
  H381     1.0000 0.31497  0.84561  0.38349  Biso   1.000  H
  H382     1.0000 0.97542  0.34432  0.44014  Biso   1.000  H
  H383     1.0000 0.96552  0.22390  0.50293  Biso   1.000  H
  H384     1.0000 0.92678  0.24852  0.48338  Biso   1.000  H
  H385     1.0000 0.29385  0.06698  0.81375  Biso   1.000  H
  H386     1.0000 0.34388  0.08745  0.80809  Biso   1.000  H
  H387     1.0000 0.35229  0.09335  0.83435  Biso   1.000  H
  H388     1.0000 0.38337  0.11163  0.78984  Biso   1.000  H
  H389     1.0000 0.85321  0.68855  0.82058  Biso   1.000  H
  H390     1.0000 0.30306  0.13750  0.74857  Biso   1.000  H
  H391     1.0000 0.33701  0.17055  0.78097  Biso   1.000  H
  H392     1.0000 0.34689  0.14633  0.77070  Biso   1.000  H
  H393     1.0000 0.29845  0.35622  0.87491  Biso   1.000  H
  H394     1.0000 0.30995  0.74595  0.34103  Biso   1.000  H
  H395     1.0000 0.24719  0.78249  0.22710  Biso   1.000  H
  H396     1.0000 0.93911  0.45753  0.06417  Biso   1.000  H
  H397     1.0000 0.91490  0.40110  0.09769  Biso   1.000  H
  H398     1.0000 0.95887  0.36693  0.11105  Biso   1.000  H
  H399     1.0000 0.93242  0.35885  0.11734  Biso   1.000  H
  H400     1.0000 0.93707  0.90137  0.67715  Biso   1.000  H
  H401     1.0000 0.92056  0.88525  0.66099  Biso   1.000  H
  H402     1.0000 0.97150  0.41301  0.17153  Biso   1.000  H
  H403     1.0000 0.98070  0.40293  0.14696  Biso   1.000  H
  H404     1.0000 0.87005  0.41323  0.35077  Biso   1.000  H
  H405     1.0000 0.29801  0.25029  0.83786  Biso   1.000  H
  H406     1.0000 0.26462  0.32265  0.74469  Biso   1.000  H
  H407     1.0000 0.93577  0.95617  0.56604  Biso   1.000  H
  H408     1.0000 0.91643  0.89122  0.58739  Biso   1.000  H
  H409     1.0000 0.95975  0.87511  0.62128  Biso   1.000  H
  H410     1.0000 0.93331  0.86638  0.62712  Biso   1.000  H
  H411     1.0000 0.93696  0.40184  0.17664  Biso   1.000  H
  H412     1.0000 0.92020  0.38567  0.16079  Biso   1.000  H
  H413     1.0000 0.99581  0.95128  0.63345  Biso   1.000  H
  H414     1.0000 0.97895  0.91370  0.67340  Biso   1.000  H
  H415     1.0000 0.98862  0.90437  0.64862  Biso   1.000  H
  H416     1.0000 0.86812  0.93708  0.84899  Biso   1.000  H
  H417     1.0000 0.81083  0.74576  0.84071  Biso   1.000  H
  H418     1.0000 0.74276  0.79301  0.72107  Biso   1.000  H
  H419     1.0000 0.43694  0.45635  0.56461  Biso   1.000  H
  H420     1.0000 0.41426  0.40149  0.59923  Biso   1.000  H
  H421     1.0000 0.45810  0.36655  0.61083  Biso   1.000  H
  H422     1.0000 0.43168  0.35854  0.61740  Biso   1.000  H
  H423     1.0000 0.43494  0.89879  0.18300  Biso   1.000  H
  H424     1.0000 0.41864  0.88231  0.16676  Biso   1.000  H
  H425     1.0000 0.48868  0.45651  0.66110  Biso   1.000  H
  H426     1.0000 0.49903  0.44745  0.63626  Biso   1.000  H
  H427     1.0000 0.48589  0.40086  0.64799  Biso   1.000  H
  H428     1.0000 0.36561  0.42734  0.85047  Biso   1.000  H
  H429     1.0000 0.80514  0.24768  0.34063  Biso   1.000  H
  H430     1.0000 0.76516  0.32421  0.24442  Biso   1.000  H
  H431     1.0000 0.43566  0.95584  0.06650  Biso   1.000  H
  H432     1.0000 0.41692  0.89119  0.08739  Biso   1.000  H
  H433     1.0000 0.46050  0.87520  0.12101  Biso   1.000  H
  H434     1.0000 0.43411  0.86664  0.12716  Biso   1.000  H
  H435     1.0000 0.43590  0.40130  0.67724  Biso   1.000  H
  H436     1.0000 0.41910  0.38508  0.66156  Biso   1.000  H
  H437     1.0000 0.49344  0.95102  0.13244  Biso   1.000  H
  H438     1.0000 0.48257  0.91257  0.17358  Biso   1.000  H
  H439     1.0000 0.49242  0.90389  0.14875  Biso   1.000  H
  H440     1.0000 0.36845  0.93832  0.34648  Biso   1.000  H
  H441     1.0000 0.95662  0.25564  0.42963  Biso   1.000  H
  H442     1.0000 0.95027  0.28250  0.42446  Biso   1.000  H
  H443     1.0000 0.00820  0.28797  0.52843  Biso   1.000  H
  H444     1.0000 0.98142  0.31864  0.49975  Biso   1.000  H
  H445     1.0000 0.31154  0.96011  0.68947  Biso   1.000  H
  H446     1.0000 0.28805  0.97972  0.65012  Biso   1.000  H
  H447     1.0000 0.30093  0.87510  0.66988  Biso   1.000  H
  H448     1.0000 0.32742  0.86709  0.66288  Biso   1.000  H
  H449     1.0000 0.29723  0.90030  0.62710  Biso   1.000  H
  H450     1.0000 0.31318  0.41190  0.08486  Biso   1.000  H
  H451     1.0000 0.32991  0.39526  0.10030  Biso   1.000  H
  H452     1.0000 0.25210  0.95154  0.61625  Biso   1.000  H
  H453     1.0000 0.27634  0.91451  0.57967  Biso   1.000  H
  H454     1.0000 0.26654  0.90531  0.60446  Biso   1.000  H
  H455     1.0000 0.37949  0.92844  0.40191  Biso   1.000  H
  H456     1.0000 0.95734  0.75620  0.92926  Biso   1.000  H
  H457     1.0000 0.95151  0.78314  0.92403  Biso   1.000  H
  H458     1.0000 0.98819  0.82715  0.00730  Biso   1.000  H
  H459     1.0000 0.31806  0.45126  0.17037  Biso   1.000  H
  H460     1.0000 0.30574  0.39074  0.17133  Biso   1.000  H
  H461     1.0000 0.33211  0.38273  0.16469  Biso   1.000  H
  H462     1.0000 0.29075  0.38001  0.12511  Biso   1.000  H
  H463     1.0000 0.31726  0.89889  0.56594  Biso   1.000  H
  H464     1.0000 0.33414  0.88207  0.58149  Biso   1.000  H
  H465     1.0000 0.28163  0.45546  0.09721  Biso   1.000  H
  H466     1.0000 0.25740  0.41845  0.07435  Biso   1.000  H
  H467     1.0000 0.24751  0.40954  0.09922  Biso   1.000  H
  H468     1.0000 0.45683  0.25506  0.92920  Biso   1.000  H
  H469     1.0000 0.45052  0.28186  0.92368  Biso   1.000  H
  H470     1.0000 0.50837  0.28874  0.02879  Biso   1.000  H
  H471     1.0000 0.81443  0.95659  0.18354  Biso   1.000  H
  H472     1.0000 0.80872  0.89821  0.16922  Biso   1.000  H
  H473     1.0000 0.83462  0.88947  0.16254  Biso   1.000  H
  H474     1.0000 0.79036  0.87446  0.12952  Biso   1.000  H
  H475     1.0000 0.81360  0.41276  0.58345  Biso   1.000  H
  H476     1.0000 0.82998  0.39577  0.59878  Biso   1.000  H
  H477     1.0000 0.74744  0.94758  0.11398  Biso   1.000  H
  H478     1.0000 0.78039  0.91494  0.08017  Biso   1.000  H
  H479     1.0000 0.77081  0.90453  0.10437  Biso   1.000  H
  H480     1.0000 0.45734  0.75635  0.43004  Biso   1.000  H
  H481     1.0000 0.45113  0.78324  0.42514  Biso   1.000  H
  H482     1.0000 0.49879  0.77779  0.51646  Biso   1.000  H
  H483     1.0000 0.49376  0.82739  0.51507  Biso   1.000  H
  H484     1.0000 0.81773  0.45115  0.66750  Biso   1.000  H
  H485     1.0000 0.80488  0.39044  0.66974  Biso   1.000  H
  H486     1.0000 0.83125  0.38249  0.66314  Biso   1.000  H
  H487     1.0000 0.79014  0.38050  0.62326  Biso   1.000  H
  H488     1.0000 0.83020  0.88390  0.08896  Biso   1.000  H
  H489     1.0000 0.78196  0.45582  0.59647  Biso   1.000  H
  H490     1.0000 0.75805  0.41897  0.57303  Biso   1.000  H
  H491     1.0000 0.74768  0.40998  0.59770  Biso   1.000  H
  H492     1.0000 0.79845  0.99979  0.91441  Biso   1.000  H
  H493     1.0000 0.74788  0.96795  0.02353  Biso   1.000  H
  H494     1.0000 0.76439  0.92450  0.00568  Biso   1.000  H
  H495     1.0000 0.43397  0.29621  0.18208  Biso   1.000  H
  H496     1.0000 0.46455  0.26516  0.15810  Biso   1.000  H
  H497     1.0000 0.44164  0.34292  0.16112  Biso   1.000  H
  H498     1.0000 0.41532  0.35140  0.15540  Biso   1.000  H
  H499     1.0000 0.45973  0.38331  0.13837  Biso   1.000  H
  H500     1.0000 0.42496  0.85209  0.55626  Biso   1.000  H
  H501     1.0000 0.47917  0.29154  0.09484  Biso   1.000  H
  H502     1.0000 0.48938  0.30156  0.11931  Biso   1.000  H
  H503     1.0000 0.48794  0.33556  0.07306  Biso   1.000  H
  H504     1.0000 0.36686  0.32468  0.90414  Biso   1.000  H
  H505     1.0000 0.79885  0.50005  0.41293  Biso   1.000  H
  H506     1.0000 0.74813  0.46834  0.52394  Biso   1.000  H
  H507     1.0000 0.76519  0.42570  0.50467  Biso   1.000  H
  H508     1.0000 0.43797  0.78954  0.68955  Biso   1.000  H
  H509     1.0000 0.46182  0.76996  0.65039  Biso   1.000  H
  H510     1.0000 0.44211  0.85507  0.67037  Biso   1.000  H
  H511     1.0000 0.41599  0.86422  0.66344  Biso   1.000  H
  H512     1.0000 0.45997  0.87367  0.62780  Biso   1.000  H
  H513     1.0000 0.43812  0.34792  0.07467  Biso   1.000  H
  H514     1.0000 0.42146  0.36407  0.09071  Biso   1.000  H
  H515     1.0000 0.47692  0.79115  0.59387  Biso   1.000  H
  H516     1.0000 0.48620  0.79921  0.61966  Biso   1.000  H
  H517     1.0000 0.49983  0.84329  0.60043  Biso   1.000  H
  H518     1.0000 0.36742  0.82528  0.40397  Biso   1.000  H
  H519     1.0000 0.27072  0.93271  0.50064  Biso   1.000  H
  H520     1.0000 0.93334  0.29658  0.68214  Biso   1.000  H
  H521     1.0000 0.96379  0.26583  0.65762  Biso   1.000  H
  H522     1.0000 0.94046  0.34317  0.66090  Biso   1.000  H
  H523     1.0000 0.91418  0.35153  0.65473  Biso   1.000  H
  H524     1.0000 0.95864  0.38409  0.63914  Biso   1.000  H
  H525     1.0000 0.93999  0.84113  0.08164  Biso   1.000  H
  H526     1.0000 0.97916  0.29192  0.59484  Biso   1.000  H
  H527     1.0000 0.98884  0.30244  0.61935  Biso   1.000  H
  H528     1.0000 0.98653  0.33614  0.57293  Biso   1.000  H
  H529     1.0000 0.31046  0.47430  0.90586  Biso   1.000  H
  H530     1.0000 0.27122  0.43206  0.00043  Biso   1.000  H
  H531     1.0000 0.93507  0.79548  0.18177  Biso   1.000  H
  H532     1.0000 0.96526  0.76491  0.15675  Biso   1.000  H
  H533     1.0000 0.94210  0.84411  0.16261  Biso   1.000  H
  H534     1.0000 0.91590  0.85287  0.15714  Biso   1.000  H
  H535     1.0000 0.96041  0.88145  0.13524  Biso   1.000  H
  H536     1.0000 0.93807  0.34770  0.57426  Biso   1.000  H
  H537     1.0000 0.92133  0.36394  0.59012  Biso   1.000  H
  H538     1.0000 0.97880  0.79126  0.09442  Biso   1.000  H
  H539     1.0000 0.98917  0.80133  0.11885  Biso   1.000  H
  H540     1.0000 0.98889  0.83478  0.07221  Biso   1.000  H
  H541     1.0000 0.86820  0.82538  0.90268  Biso   1.000  H
  H542     1.0000 0.45472  0.49397  0.81487  Biso   1.000  H
  H543     1.0000 0.44884  0.46739  0.82138  Biso   1.000  H
  H544     1.0000 0.50892  0.45590  0.72023  Biso   1.000  H
  H545     1.0000 0.47824  0.43343  0.75244  Biso   1.000  H
  H546     1.0000 0.81439  0.79765  0.57012  Biso   1.000  H
  H547     1.0000 0.78467  0.76371  0.59124  Biso   1.000  H
  H548     1.0000 0.83470  0.84872  0.59979  Biso   1.000  H
  H549     1.0000 0.79084  0.88384  0.61096  Biso   1.000  H
  H550     1.0000 0.81738  0.89230  0.61651  Biso   1.000  H
  H551     1.0000 0.81431  0.35087  0.18228  Biso   1.000  H
  H552     1.0000 0.76904  0.79179  0.65664  Biso   1.000  H
  H553     1.0000 0.75794  0.80213  0.63264  Biso   1.000  H
  H554     1.0000 0.76462  0.83664  0.67804  Biso   1.000  H
  H555     1.0000 0.88382  0.81461  0.84855  Biso   1.000  H
  H556     1.0000 0.45218  0.99836  0.33249  Biso   1.000  H
  H557     1.0000 0.44483  0.97166  0.33754  Biso   1.000  H
  H558     1.0000 0.48527  0.92719  0.24358  Biso   1.000  H
  H559     1.0000 0.80461  0.28415  0.05691  Biso   1.000  H
  H560     1.0000 0.79537  0.27569  0.10514  Biso   1.000  H
  H561     1.0000 0.80764  0.34994  0.08206  Biso   1.000  H
  H562     1.0000 0.83364  0.35885  0.08839  Biso   1.000  H
  H563     1.0000 0.78951  0.37499  0.12110  Biso   1.000  H
  H564     1.0000 0.81491  0.84979  0.68085  Biso   1.000  H
  H565     1.0000 0.76697  0.28880  0.15735  Biso   1.000  H
  H566     1.0000 0.76694  0.33548  0.17491  Biso   1.000  H
  H567     1.0000 0.75670  0.34474  0.15031  Biso   1.000  H
  H568     1.0000 0.88383  0.32641  0.34888  Biso   1.000  H
  H569     1.0000 0.94404  0.50328  0.34076  Biso   1.000  H
  H570     1.0000 0.97823  0.43380  0.25211  Biso   1.000  H
  H571     1.0000 0.31373  0.79411  0.06656  Biso   1.000  H
  H572     1.0000 0.28537  0.76511  0.09541  Biso   1.000  H
  H573     1.0000 0.30762  0.85718  0.07680  Biso   1.000  H
  H574     1.0000 0.29254  0.87174  0.12198  Biso   1.000  H
  H575     1.0000 0.31916  0.87923  0.12850  Biso   1.000  H
  H576     1.0000 0.31274  0.34752  0.67953  Biso   1.000  H
  H577     1.0000 0.32855  0.36476  0.66375  Biso   1.000  H
  H578     1.0000 0.26295  0.79560  0.16081  Biso   1.000  H
  H579     1.0000 0.25258  0.80528  0.13607  Biso   1.000  H
  H580     1.0000 0.27415  0.84219  0.17433  Biso   1.000  H
  H581     1.0000 0.38350  0.81428  0.35002  Biso   1.000  H
  H582     1.0000 0.00283  0.96818  0.72669  Biso   1.000  H
  H583     1.0000 0.98446  0.92620  0.74614  Biso   1.000  H
  H584     1.0000 0.31238  0.29488  0.56690  Biso   1.000  H
  H585     1.0000 0.28408  0.26475  0.59463  Biso   1.000  H
  H586     1.0000 0.30507  0.35731  0.57877  Biso   1.000  H
  H587     1.0000 0.29074  0.37106  0.62445  Biso   1.000  H
  H588     1.0000 0.31717  0.37966  0.63020  Biso   1.000  H
  H589     1.0000 0.32247  0.85093  0.19019  Biso   1.000  H
  H590     1.0000 0.27045  0.29043  0.65498  Biso   1.000  H
  H591     1.0000 0.25955  0.30137  0.63108  Biso   1.000  H
  H592     1.0000 0.26257  0.33383  0.67834  Biso   1.000  H
  H593     1.0000 0.37913  0.31502  0.84899  Biso   1.000  H
  H594     1.0000 0.05378  0.58744  0.75181  Biso   1.000  H
  H595     1.0000 0.05903  0.59324  0.72457  Biso   1.000  H
  H596     1.0000 0.99670  0.47726  0.71820  Biso   1.000  H
  H597     1.0000 0.68697  0.31583  0.04298  Biso   1.000  H
  H598     1.0000 0.71413  0.34648  0.01467  Biso   1.000  H
  H599     1.0000 0.66583  0.33412  0.11885  Biso   1.000  H
  H600     1.0000 0.70883  0.37205  0.11748  Biso   1.000  H
  H601     1.0000 0.68326  0.38020  0.12619  Biso   1.000  H
  H602     1.0000 0.68022  0.93858  0.60123  Biso   1.000  H
  H603     1.0000 0.73086  0.40503  0.04284  Biso   1.000  H
  H604     1.0000 0.74082  0.38073  0.05359  Biso   1.000  H
  H605     1.0000 0.73324  0.42589  0.08816  Biso   1.000  H
  H606     1.0000 0.04296  0.06761  0.24472  Biso   1.000  H
  H607     1.0000 0.04935  0.07445  0.21821  Biso   1.000  H
  H608     1.0000 0.01317  0.99227  0.22002  Biso   1.000  H
  H609     1.0000 0.68703  0.81691  0.54368  Biso   1.000  H
  H610     1.0000 0.66449  0.84809  0.59985  Biso   1.000  H
  H611     1.0000 0.70849  0.86168  0.63396  Biso   1.000  H
  H612     1.0000 0.68200  0.86782  0.64209  Biso   1.000  H
  H613     1.0000 0.68711  0.42266  0.09712  Biso   1.000  H
  H614     1.0000 0.66982  0.40689  0.11321  Biso   1.000  H
  H615     1.0000 0.73614  0.90893  0.54287  Biso   1.000  H
  H616     1.0000 0.74625  0.88419  0.55291  Biso   1.000  H
  H617     1.0000 0.73309  0.92641  0.58944  Biso   1.000  H
  H618     1.0000 0.54681  0.57962  0.25060  Biso   1.000  H
  H619     1.0000 0.55135  0.58660  0.22357  Biso   1.000  H
  H620     1.0000 0.50409  0.48167  0.22045  Biso   1.000  H
  H621     1.0000 0.18429  0.31886  0.54870  Biso   1.000  H
  H622     1.0000 0.21385  0.34040  0.51485  Biso   1.000  H
  H623     1.0000 0.16436  0.34993  0.59963  Biso   1.000  H
  H624     1.0000 0.20823  0.35946  0.63520  Biso   1.000  H
  H625     1.0000 0.18187  0.36607  0.64338  Biso   1.000  H
  H626     1.0000 0.18843  0.91647  0.08839  Biso   1.000  H
  H627     1.0000 0.17188  0.90057  0.10487  Biso   1.000  H
  H628     1.0000 0.23547  0.41023  0.54483  Biso   1.000  H
  H629     1.0000 0.24549  0.38524  0.55428  Biso   1.000  H
  H630     1.0000 0.23012  0.42577  0.59188  Biso   1.000  H
  H631     1.0000 0.55335  0.08737  0.75306  Biso   1.000  H
  H632     1.0000 0.55862  0.09340  0.72587  Biso   1.000  H
  H633     1.0000 0.51208  0.99249  0.72056  Biso   1.000  H
  H634     1.0000 0.18774  0.81542  0.04457  Biso   1.000  H
  H635     1.0000 0.16610  0.84843  0.09937  Biso   1.000  H
  H636     1.0000 0.21037  0.86274  0.13280  Biso   1.000  H
  H637     1.0000 0.18391  0.86829  0.14144  Biso   1.000  H
  H638     1.0000 0.17834  0.44003  0.60316  Biso   1.000  H
  H639     1.0000 0.22923  0.90544  0.03995  Biso   1.000  H
  H640     1.0000 0.23986  0.88123  0.05035  Biso   1.000  H
  H641     1.0000 0.23917  0.92822  0.08326  Biso   1.000  H
  H642     1.0000 0.69463  0.66182  0.25250  Biso   1.000  H
  H643     1.0000 0.68900  0.65569  0.22552  Biso   1.000  H
  H644     1.0000 0.73511  0.75487  0.17724  Biso   1.000  H
  H645     1.0000 0.06144  0.93853  0.53881  Biso   1.000  H
  H646     1.0000 0.03784  0.89890  0.51992  Biso   1.000  H
  H647     1.0000 0.05474  0.92242  0.60972  Biso   1.000  H
  H648     1.0000 0.04291  0.87465  0.61733  Biso   1.000  H
  H649     1.0000 0.06969  0.86930  0.62512  Biso   1.000  H
  H650     1.0000 0.06280  0.32173  0.09980  Biso   1.000  H
  H651     1.0000 0.07931  0.33803  0.11587  Biso   1.000  H
  H652     1.0000 0.02936  0.83268  0.58800  Biso   1.000  H
  H653     1.0000 0.01946  0.85786  0.59532  Biso   1.000  H
  H654     1.0000 0.00750  0.83675  0.54326  Biso   1.000  H
  H655     1.0000 0.12715  0.64740  0.58850  Biso   1.000  H
  H656     1.0000 0.70674  0.18237  0.74487  Biso   1.000  H
  H657     1.0000 0.70144  0.17699  0.71782  Biso   1.000  H
  H658     1.0000 0.73384  0.25453  0.67729  Biso   1.000  H
  H659     1.0000 0.03741  0.40272  0.01700  Biso   1.000  H
  H660     1.0000 0.05849  0.41072  0.09420  Biso   1.000  H
  H661     1.0000 0.08470  0.40478  0.10272  Biso   1.000  H
  H662     1.0000 0.04009  0.38706  0.13395  Biso   1.000  H
  H663     1.0000 0.06862  0.81129  0.60219  Biso   1.000  H
  H664     1.0000 0.02029  0.34436  0.04219  Biso   1.000  H
  H665     1.0000 0.00964  0.36854  0.05251  Biso   1.000  H
  H666     1.0000 0.01367  0.32258  0.08666  Biso   1.000  H
  H667     1.0000 0.12680  0.14583  0.08771  Biso   1.000  H
  H668     1.0000 0.20393  0.66857  0.74767  Biso   1.000  H
  H669     1.0000 0.19665  0.66290  0.72096  Biso   1.000  H
  H670     1.0000 0.23283  0.75411  0.67691  Biso   1.000  H
  H671     1.0000 0.56168  0.93878  0.03827  Biso   1.000  H
  H672     1.0000 0.53783  0.89940  0.01918  Biso   1.000  H
  H673     1.0000 0.55532  0.92188  0.11179  Biso   1.000  H
  H674     1.0000 0.54276  0.87386  0.11492  Biso   1.000  H
  H675     1.0000 0.56879  0.86748  0.12332  Biso   1.000  H
  H676     1.0000 0.56552  0.31620  0.60065  Biso   1.000  H
  H677     1.0000 0.58152  0.33296  0.61696  Biso   1.000  H
  H678     1.0000 0.53174  0.83347  0.08850  Biso   1.000  H
  H679     1.0000 0.52133  0.85873  0.09511  Biso   1.000  H
  H680     1.0000 0.50918  0.83565  0.04400  Biso   1.000  H
  H681     1.0000 0.62893  0.64652  0.08728  Biso   1.000  H
  H682     1.0000 0.19207  0.16021  0.25287  Biso   1.000  H
  H683     1.0000 0.18702  0.15486  0.22567  Biso   1.000  H
  H684     1.0000 0.23423  0.25521  0.17817  Biso   1.000  H
  H685     1.0000 0.53648  0.40104  0.51676  Biso   1.000  H
  H686     1.0000 0.55766  0.41101  0.59347  Biso   1.000  H
  H687     1.0000 0.58388  0.40501  0.60195  Biso   1.000  H
  H688     1.0000 0.53931  0.38731  0.63322  Biso   1.000  H
  H689     1.0000 0.58061  0.80402  0.10178  Biso   1.000  H
  H690     1.0000 0.59716  0.82095  0.11745  Biso   1.000  H
  H691     1.0000 0.51447  0.34119  0.54213  Biso   1.000  H
  H692     1.0000 0.50363  0.36568  0.55199  Biso   1.000  H
  H693     1.0000 0.51718  0.32380  0.58877  Biso   1.000  H
  H694     1.0000 0.62748  0.14663  0.58661  Biso   1.000  H
  H695     1.0000 0.54250  0.17973  0.50523  Biso   1.000  H
  H696     1.0000 0.54908  0.17416  0.53195  Biso   1.000  H
  H697     1.0000 0.51426  0.25687  0.57192  Biso   1.000  H
  H698     1.0000 0.18923  0.43825  0.21156  Biso   1.000  H
  H699     1.0000 0.21178  0.39841  0.23125  Biso   1.000  H
  H700     1.0000 0.19397  0.42038  0.14337  Biso   1.000  H
  H701     1.0000 0.16751  0.41362  0.13569  Biso   1.000  H
  H702     1.0000 0.20957  0.37523  0.12951  Biso   1.000  H
  H703     1.0000 0.18183  0.81458  0.64826  Biso   1.000  H
  H704     1.0000 0.16562  0.83102  0.63192  Biso   1.000  H
  H705     1.0000 0.22980  0.34103  0.20809  Biso   1.000  H
  H706     1.0000 0.23956  0.36648  0.20003  Biso   1.000  H
  H707     1.0000 0.24470  0.34946  0.15332  Biso   1.000  H
  H708     1.0000 0.11968  0.15117  0.18456  Biso   1.000  H
  H709     1.0000 0.54556  0.68508  0.00626  Biso   1.000  H
  H710     1.0000 0.55227  0.67873  0.03273  Biso   1.000  H
  H711     1.0000 0.51640  0.75478  0.07429  Biso   1.000  H
  H712     1.0000 0.21252  0.90455  0.73381  Biso   1.000  H
  H713     1.0000 0.19389  0.92052  0.64326  Biso   1.000  H
  H714     1.0000 0.16741  0.91368  0.63568  Biso   1.000  H
  H715     1.0000 0.20978  0.87589  0.62828  Biso   1.000  H
  H716     1.0000 0.17989  0.31018  0.14889  Biso   1.000  H
  H717     1.0000 0.24070  0.83624  0.70505  Biso   1.000  H
  H718     1.0000 0.25064  0.86170  0.69705  Biso   1.000  H
  H719     1.0000 0.21902  0.83092  0.66046  Biso   1.000  H
  H720     1.0000 0.11828  0.65088  0.68264  Biso   1.000  H
  H721     1.0000 0.06030  0.15537  0.02380  Biso   1.000  H
  H722     1.0000 0.99547  0.27618  0.03299  Biso   1.000  H
  H723     1.0000 0.01470  0.25322  0.07294  Biso   1.000  H
  H724     1.0000 0.68928  0.43867  0.71055  Biso   1.000  H
  H725     1.0000 0.71184  0.39871  0.73005  Biso   1.000  H
  H726     1.0000 0.69330  0.42077  0.64312  Biso   1.000  H
  H727     1.0000 0.66671  0.41403  0.63581  Biso   1.000  H
  H728     1.0000 0.70890  0.37617  0.62757  Biso   1.000  H
  H729     1.0000 0.67439  0.80463  0.14715  Biso   1.000  H
  H730     1.0000 0.72975  0.34081  0.70643  Biso   1.000  H
  H731     1.0000 0.73929  0.36636  0.69840  Biso   1.000  H
  H732     1.0000 0.74373  0.34971  0.65150  Biso   1.000  H
  H733     1.0000 0.61915  0.15133  0.68723  Biso   1.000  H
  H734     1.0000 0.04488  0.68481  0.50599  Biso   1.000  H
  H735     1.0000 0.05097  0.67931  0.53281  Biso   1.000  H
  H736     1.0000 0.01387  0.75612  0.57314  Biso   1.000  H
  H737     1.0000 0.70678  0.89389  0.22653  Biso   1.000  H
  H738     1.0000 0.69279  0.92124  0.14762  Biso   1.000  H
  H739     1.0000 0.70998  0.87994  0.12583  Biso   1.000  H
  H740     1.0000 0.68385  0.87326  0.11764  Biso   1.000  H
  H741     1.0000 0.67963  0.31068  0.64763  Biso   1.000  H
  H742     1.0000 0.73794  0.83801  0.20668  Biso   1.000  H
  H743     1.0000 0.72797  0.82718  0.15904  Biso   1.000  H
  H744     1.0000 0.73801  0.85217  0.15108  Biso   1.000  H
  H745     1.0000 0.61952  0.65195  0.18428  Biso   1.000  H
  H746     1.0000 0.20278  0.08104  0.00329  Biso   1.000  H
  H747     1.0000 0.19613  0.08527  0.03035  Biso   1.000  H
  H748     1.0000 0.25826  0.97186  0.03832  Biso   1.000  H
  H749     1.0000 0.56471  0.81644  0.70514  Biso   1.000  H
  H750     1.0000 0.53669  0.84387  0.73578  Biso   1.000  H
  H751     1.0000 0.55556  0.82973  0.64427  Biso   1.000  H
  H752     1.0000 0.58193  0.83661  0.63639  Biso   1.000  H
  H753     1.0000 0.53935  0.87414  0.62897  Biso   1.000  H
  H754     1.0000 0.56770  0.43433  0.14842  Biso   1.000  H
  H755     1.0000 0.58440  0.41811  0.13218  Biso   1.000  H
  H756     1.0000 0.50863  0.91317  0.70636  Biso   1.000  H
  H757     1.0000 0.49849  0.88778  0.69833  Biso   1.000  H
  H758     1.0000 0.53080  0.91805  0.66193  Biso   1.000  H
  H759     1.0000 0.63368  0.09645  0.67990  Biso   1.000  H
  H760     1.0000 0.18982  0.59366  0.52553  Biso   1.000  H
  H761     1.0000 0.24923  0.47991  0.52981  Biso   1.000  H
  H762     1.0000 0.56121  0.31448  0.20879  Biso   1.000  H
  H763     1.0000 0.58333  0.33392  0.13121  Biso   1.000  H
  H764     1.0000 0.54150  0.37306  0.13431  Biso   1.000  H
  H765     1.0000 0.56737  0.38086  0.12623  Biso   1.000  H
  H766     1.0000 0.57039  0.94062  0.64773  Biso   1.000  H
  H767     1.0000 0.51962  0.40594  0.20746  Biso   1.000  H
  H768     1.0000 0.50896  0.38174  0.19727  Biso   1.000  H
  H769     1.0000 0.51565  0.42664  0.16217  Biso   1.000  H
  H770     1.0000 0.63236  0.59611  0.18467  Biso   1.000  H
  H771     1.0000 0.70362  0.07997  0.50321  Biso   1.000  H
  H772     1.0000 0.69634  0.08461  0.53009  Biso   1.000  H
  H773     1.0000 0.75413  0.97733  0.53138  Biso   1.000  H
  H774     1.0000 0.06250  0.81443  0.20688  Biso   1.000  H
  H775     1.0000 0.05884  0.83015  0.14837  Biso   1.000  H
  H776     1.0000 0.08500  0.83720  0.14029  Biso   1.000  H
  H777     1.0000 0.04080  0.87031  0.12517  Biso   1.000  H
  H778     1.0000 0.06286  0.42900  0.65202  Biso   1.000  H
  H779     1.0000 0.07886  0.41309  0.63521  Biso   1.000  H
  H780     1.0000 0.01468  0.90919  0.20619  Biso   1.000  H
  H781     1.0000 0.00437  0.88438  0.19659  Biso   1.000  H
  H782     1.0000 0.01917  0.92532  0.15924  Biso   1.000  H
  H783     1.0000 0.13398  0.09567  0.18463  Biso   1.000  H
  H784     1.0000 0.70398  0.57768  0.00435  Biso   1.000  H
  H785     1.0000 0.69722  0.58224  0.03131  Biso   1.000  H
  H786     1.0000 0.74477  0.48235  0.02938  Biso   1.000  H
  H787     1.0000 0.06104  0.31537  0.70738  Biso   1.000  H
  H788     1.0000 0.05692  0.33144  0.64998  Biso   1.000  H
  H789     1.0000 0.08313  0.33823  0.64194  Biso   1.000  H
  H790     1.0000 0.03908  0.37089  0.62543  Biso   1.000  H
  H791     1.0000 0.07091  0.93921  0.14668  Biso   1.000  H
  H792     1.0000 0.01842  0.40594  0.70826  Biso   1.000  H
  H793     1.0000 0.00783  0.38184  0.69774  Biso   1.000  H
  H794     1.0000 0.01375  0.42745  0.66342  Biso   1.000  H
  H795     1.0000 0.09254  0.02553  0.19230  Biso   1.000  H
  H796     1.0000 0.97460  0.03301  0.25304  Biso   1.000  H
  H797     1.0000 0.99678  0.07431  0.23601  Biso   1.000  H
  H798     1.0000 0.81319  0.70795  0.56161  Biso   1.000  H
  H799     1.0000 0.83852  0.65669  0.55730  Biso   1.000  H
  H800     1.0000 0.84451  0.64926  0.58384  Biso   1.000  H
  H801     1.0000 0.86747  0.60830  0.56740  Biso   1.000  H
  H802     1.0000 0.43277  0.15051  0.56719  Biso   1.000  H
  H803     1.0000 0.41643  0.13387  0.58342  Biso   1.000  H
  H804     1.0000 0.91109  0.70706  0.51241  Biso   1.000  H
  H805     1.0000 0.92300  0.65933  0.52019  Biso   1.000  H
  H806     1.0000 0.89801  0.65128  0.51021  Biso   1.000  H
  H807     1.0000 0.10130  0.66381  0.62940  Biso   1.000  H
  H808     1.0000 0.06583  0.50686  0.70672  Biso   1.000  H
  H809     1.0000 0.07216  0.53314  0.69946  Biso   1.000  H
  H810     1.0000 0.98203  0.52884  0.74875  Biso   1.000  H
  H811     1.0000 0.98855  0.57771  0.74179  Biso   1.000  H
  H812     1.0000 0.85562  0.22709  0.04247  Biso   1.000  H
  H813     1.0000 0.83173  0.14928  0.05675  Biso   1.000  H
  H814     1.0000 0.83700  0.14092  0.08322  Biso   1.000  H
  H815     1.0000 0.87772  0.11690  0.06773  Biso   1.000  H
  H816     1.0000 0.42451  0.65514  0.06224  Biso   1.000  H
  H817     1.0000 0.40766  0.63819  0.07751  Biso   1.000  H
  H818     1.0000 0.90647  0.20776  0.01745  Biso   1.000  H
  H819     1.0000 0.88235  0.19753  0.00663  Biso   1.000  H
  H820     1.0000 0.92688  0.16230  0.01488  Biso   1.000  H
  H821     1.0000 0.09617  0.17744  0.13284  Biso   1.000  H
  H822     1.0000 0.59415  0.02534  0.69003  Biso   1.000  H
  H823     1.0000 0.47590  0.03327  0.75303  Biso   1.000  H
  H824     1.0000 0.49626  0.07525  0.73567  Biso   1.000  H
  H825     1.0000 0.31681  0.70795  0.06244  Biso   1.000  H
  H826     1.0000 0.33215  0.65036  0.05692  Biso   1.000  H
  H827     1.0000 0.33703  0.64165  0.08339  Biso   1.000  H
  H828     1.0000 0.37700  0.61645  0.06789  Biso   1.000  H
  H829     1.0000 0.91762  0.16056  0.06219  Biso   1.000  H
  H830     1.0000 0.90115  0.14408  0.07812  Biso   1.000  H
  H831     1.0000 0.41198  0.70825  0.01398  Biso   1.000  H
  H832     1.0000 0.42433  0.66036  0.01989  Biso   1.000  H
  H833     1.0000 0.39954  0.65250  0.00920  Biso   1.000  H
  H834     1.0000 0.60278  0.66226  0.12804  Biso   1.000  H
  H835     1.0000 0.58513  0.50161  0.20100  Biso   1.000  H
  H836     1.0000 0.59006  0.52850  0.19481  Biso   1.000  H
  H837     1.0000 0.47698  0.53295  0.25201  Biso   1.000  H
  H838     1.0000 0.49588  0.57559  0.23459  Biso   1.000  H
  H839     1.0000 0.35334  0.22897  0.54140  Biso   1.000  H
  H840     1.0000 0.32999  0.14864  0.55809  Biso   1.000  H
  H841     1.0000 0.37041  0.12534  0.54082  Biso   1.000  H
  H842     1.0000 0.37681  0.11691  0.56699  Biso   1.000  H
  H843     1.0000 0.92455  0.65460  0.56197  Biso   1.000  H
  H844     1.0000 0.90799  0.63772  0.57759  Biso   1.000  H
  H845     1.0000 0.41160  0.20651  0.51255  Biso   1.000  H
  H846     1.0000 0.38626  0.19823  0.50252  Biso   1.000  H
  H847     1.0000 0.39924  0.15062  0.50950  Biso   1.000  H
  H848     1.0000 0.59867  0.17496  0.63310  Biso   1.000  H
  H849     1.0000 0.16322  0.49839  0.55088  Biso   1.000  H
  H850     1.0000 0.24920  0.56678  0.52114  Biso   1.000  H
  H851     1.0000 0.40566  0.23407  0.21332  Biso   1.000  H
  H852     1.0000 0.42073  0.14009  0.19515  Biso   1.000  H
  H853     1.0000 0.37306  0.13431  0.20806  Biso   1.000  H
  H854     1.0000 0.36690  0.12601  0.18185  Biso   1.000  H
  H855     1.0000 0.81783  0.64839  0.18371  Biso   1.000  H
  H856     1.0000 0.83341  0.63221  0.16629  Biso   1.000  H
  H857     1.0000 0.37067  0.18201  0.21911  Biso   1.000  H
  H858     1.0000 0.32434  0.18268  0.25304  Biso   1.000  H
  H859     1.0000 0.34962  0.17497  0.26372  Biso   1.000  H
  H860     1.0000 0.15139  0.18385  0.11888  Biso   1.000  H
  H861     1.0000 0.16759  0.00251  0.04747  Biso   1.000  H
  H862     1.0000 0.16240  0.02903  0.05522  Biso   1.000  H
  H863     1.0000 0.25992  0.07661  0.00931  Biso   1.000  H
  H864     1.0000 0.43889  0.71150  0.68873  Biso   1.000  H
  H865     1.0000 0.39880  0.73039  0.71154  Biso   1.000  H
  H866     1.0000 0.42201  0.63768  0.69561  Biso   1.000  H
  H867     1.0000 0.37410  0.63397  0.70839  Biso   1.000  H
  H868     1.0000 0.36771  0.62552  0.68230  Biso   1.000  H
  H869     1.0000 0.80729  0.14880  0.67370  Biso   1.000  H
  H870     1.0000 0.82301  0.13223  0.65698  Biso   1.000  H
  H871     1.0000 0.36831  0.70074  0.74126  Biso   1.000  H
  H872     1.0000 0.32648  0.66254  0.73257  Biso   1.000  H
  H873     1.0000 0.35125  0.65391  0.74274  Biso   1.000  H
  H874     1.0000 0.66713  0.50177  0.04810  Biso   1.000  H
  H875     1.0000 0.66109  0.52819  0.05587  Biso   1.000  H
  H876     1.0000 0.76020  0.57593  0.00973  Biso   1.000  H
  H877     1.0000 0.90518  0.23481  0.71334  Biso   1.000  H
  H878     1.0000 0.92140  0.14116  0.69492  Biso   1.000  H
  H879     1.0000 0.87381  0.13499  0.70791  Biso   1.000  H
  H880     1.0000 0.86772  0.12637  0.68181  Biso   1.000  H
  H881     1.0000 0.30449  0.64854  0.67113  Biso   1.000  H
  H882     1.0000 0.32069  0.63226  0.65436  Biso   1.000  H
  H883     1.0000 0.87087  0.18297  0.71909  Biso   1.000  H
  H884     1.0000 0.82468  0.18340  0.75322  Biso   1.000  H
  H885     1.0000 0.85004  0.17589  0.76379  Biso   1.000  H
  H886     1.0000 0.65735  0.02514  0.55844  Biso   1.000  H
  H887     1.0000 0.76027  0.07642  0.50927  Biso   1.000  H
  H888     1.0000 0.90656  0.73342  0.21243  Biso   1.000  H
  H889     1.0000 0.92162  0.63991  0.19428  Biso   1.000  H
  H890     1.0000 0.87452  0.63251  0.20838  Biso   1.000  H
  H891     1.0000 0.86785  0.62452  0.18222  Biso   1.000  H
  H892     1.0000 0.30658  0.14876  0.17314  Biso   1.000  H
  H893     1.0000 0.32225  0.13212  0.15640  Biso   1.000  H
  H894     1.0000 0.86787  0.70023  0.24329  Biso   1.000  H
  H895     1.0000 0.82731  0.66145  0.23157  Biso   1.000  H
  H896     1.0000 0.85234  0.65291  0.24101  Biso   1.000  H
  H897     1.0000 0.65892  0.22193  0.69493  Biso   1.000  H
  H898     1.0000 0.75144  0.21368  0.73094  Biso   1.000  H
  H899     1.0000 0.77464  0.17668  0.75491  Biso   1.000  H
  H900     1.0000 0.93307  0.54653  0.06617  Biso   1.000  H
  H901     1.0000 0.90939  0.51532  0.03550  Biso   1.000  H
  H902     1.0000 0.91643  0.59891  0.05879  Biso   1.000  H
  H903     1.0000 0.90921  0.60748  0.08498  Biso   1.000  H
  H904     1.0000 0.88323  0.63062  0.03933  Biso   1.000  H
  H905     1.0000 0.31694  0.10102  0.06520  Biso   1.000  H
  H906     1.0000 0.82880  0.58599  0.03015  Biso   1.000  H
  H907     1.0000 0.85349  0.59611  0.02126  Biso   1.000  H
  H908     1.0000 0.64367  0.54975  0.12666  Biso   1.000  H
  H909     1.0000 0.65755  0.72284  0.19036  Biso   1.000  H
  H910     1.0000 0.76123  0.67524  0.24110  Biso   1.000  H
  H911     1.0000 0.93180  0.04692  0.56684  Biso   1.000  H
  H912     1.0000 0.90897  0.01543  0.53581  Biso   1.000  H
  H913     1.0000 0.91730  0.09897  0.55869  Biso   1.000  H
  H914     1.0000 0.91033  0.10772  0.58488  Biso   1.000  H
  H915     1.0000 0.88345  0.13001  0.53932  Biso   1.000  H
  H916     1.0000 0.32348  0.59876  0.56263  Biso   1.000  H
  H917     1.0000 0.82986  0.05534  0.49812  Biso   1.000  H
  H918     1.0000 0.85562  0.06334  0.48892  Biso   1.000  H
  H919     1.0000 0.84013  0.07447  0.54304  Biso   1.000  H
  H920     1.0000 0.65177  0.06525  0.63086  Biso   1.000  H
  H921     1.0000 0.15665  0.22280  0.19125  Biso   1.000  H
  H922     1.0000 0.25257  0.21558  0.23169  Biso   1.000  H
  H923     1.0000 0.27261  0.17526  0.25306  Biso   1.000  H
  H924     1.0000 0.43211  0.54611  0.56639  Biso   1.000  H
  H925     1.0000 0.40899  0.51508  0.53514  Biso   1.000  H
  H926     1.0000 0.41695  0.59845  0.55913  Biso   1.000  H
  H927     1.0000 0.41035  0.60749  0.58535  Biso   1.000  H
  H928     1.0000 0.38370  0.63020  0.53989  Biso   1.000  H
  H929     1.0000 0.81653  0.10151  0.56596  Biso   1.000  H
  H930     1.0000 0.32527  0.58715  0.51705  Biso   1.000  H
  H931     1.0000 0.35020  0.59626  0.50751  Biso   1.000  H
  H932     1.0000 0.34290  0.54051  0.51844  Biso   1.000  H
  H933     1.0000 0.14398  0.54896  0.62384  Biso   1.000  H
  H934     1.0000 0.15738  0.72195  0.69205  Biso   1.000  H
  H935     1.0000 0.26185  0.67475  0.74136  Biso   1.000  H
  H936     1.0000 0.43222  0.04613  0.06749  Biso   1.000  H
  H937     1.0000 0.40940  0.01468  0.03642  Biso   1.000  H
  H938     1.0000 0.41748  0.09835  0.05929  Biso   1.000  H
  H939     1.0000 0.41028  0.10731  0.08537  Biso   1.000  H
  H940     1.0000 0.38383  0.12930  0.03943  Biso   1.000  H
  H941     1.0000 0.82549  0.59608  0.06289  Biso   1.000  H
  H942     1.0000 0.84127  0.61234  0.08005  Biso   1.000  H
  H943     1.0000 0.34050  0.07256  0.04272  Biso   1.000  H
  H944     1.0000 0.15281  0.06528  0.13223  Biso   1.000  H
  H945     1.0000 0.57973  0.74908  0.04746  Biso   1.000  H
  H946     1.0000 0.58634  0.72194  0.05183  Biso   1.000  H
  H947     1.0000 0.49778  0.71804  0.01794  Biso   1.000  H
  H948     1.0000 0.47707  0.67798  0.99679  Biso   1.000  H
  H949     1.0000 0.31683  0.04375  0.68588  Biso   1.000  H
  H950     1.0000 0.32883  0.10519  0.69215  Biso   1.000  H
  H951     1.0000 0.33610  0.11405  0.66603  Biso   1.000  H
  H952     1.0000 0.37107  0.12446  0.71043  Biso   1.000  H
  H953     1.0000 0.37856  0.13270  0.68439  Biso   1.000  H
  H954     1.0000 0.93359  0.60134  0.68268  Biso   1.000  H
  H955     1.0000 0.91749  0.61755  0.66605  Biso   1.000  H
  H956     1.0000 0.38680  0.05369  0.75270  Biso   1.000  H
  H957     1.0000 0.42084  0.08751  0.72121  Biso   1.000  H
  H958     1.0000 0.39612  0.09728  0.73025  Biso   1.000  H
  H959     1.0000 0.59623  0.07066  0.61773  Biso   1.000  H
  H960     1.0000 0.57801  0.24901  0.54704  Biso   1.000  H
  H961     1.0000 0.58499  0.22204  0.55171  Biso   1.000  H
  H962     1.0000 0.47653  0.17714  0.49717  Biso   1.000  H
  H963     1.0000 0.32776  0.54831  0.18183  Biso   1.000  H
  H964     1.0000 0.32878  0.60812  0.19410  Biso   1.000  H
  H965     1.0000 0.33530  0.61569  0.16754  Biso   1.000  H
  H966     1.0000 0.37434  0.62114  0.20912  Biso   1.000  H
  H967     1.0000 0.93047  0.10053  0.18606  Biso   1.000  H
  H968     1.0000 0.40737  0.54108  0.23397  Biso   1.000  H
  H969     1.0000 0.38253  0.55093  0.24311  Biso   1.000  H
  H970     1.0000 0.42352  0.58769  0.22722  Biso   1.000  H
  H971     1.0000 0.07903  0.74985  0.54823  Biso   1.000  H
  H972     1.0000 0.08596  0.72300  0.55339  Biso   1.000  H
  H973     1.0000 0.99704  0.71733  0.51755  Biso   1.000  H
  H974     1.0000 0.97689  0.67736  0.49568  Biso   1.000  H
  H975     1.0000 0.81603  0.04373  0.18532  Biso   1.000  H
  H976     1.0000 0.84452  0.01595  0.21522  Biso   1.000  H
  H977     1.0000 0.83900  0.09374  0.19167  Biso   1.000  H
  H978     1.0000 0.84517  0.10210  0.16548  Biso   1.000  H
  H979     1.0000 0.86188  0.13396  0.21001  Biso   1.000  H
  H980     1.0000 0.42564  0.59772  0.18666  Biso   1.000  H
  H981     1.0000 0.40990  0.61397  0.16999  Biso   1.000  H
  H982     1.0000 0.90759  0.04103  0.23092  Biso   1.000  H
  H983     1.0000 0.92521  0.08769  0.23206  Biso   1.000  H
  H984     1.0000 0.90037  0.09682  0.24185  Biso   1.000  H
  H985     1.0000 0.09729  0.06840  0.11826  Biso   1.000  H
  H986     1.0000 0.06831  0.24421  0.04364  Biso   1.000  H
  H987     1.0000 0.07411  0.21738  0.04914  Biso   1.000  H
  H988     1.0000 0.99556  0.17543  0.01542  Biso   1.000  H
  H989     1.0000 0.81326  0.54286  0.68735  Biso   1.000  H
  H990     1.0000 0.83017  0.60182  0.69178  Biso   1.000  H
  H991     1.0000 0.83719  0.61028  0.66573  Biso   1.000  H
  H992     1.0000 0.87103  0.62357  0.71002  Biso   1.000  H
  H993     1.0000 0.42423  0.09847  0.68721  Biso   1.000  H
  H994     1.0000 0.40832  0.11449  0.66995  Biso   1.000  H
  H995     1.0000 0.92068  0.55580  0.75289  Biso   1.000  H
  H996     1.0000 0.89483  0.56351  0.76224  Biso   1.000  H
  H997     1.0000 0.90901  0.57249  0.70736  Biso   1.000  H
  H998     1.0000 0.52555  0.55952  0.15486  Biso   1.000  H
  H999     1.0000 0.52836  0.51257  0.25737  Biso   1.000  H
  H1000    1.0000 0.57341  0.49834  0.27314  Biso   1.000  H
  H1001    1.0000 0.21126  0.18867  0.43925  Biso   1.000  H
  H1002    1.0000 0.23075  0.21273  0.40018  Biso   1.000  H
  H1003    1.0000 0.12313  0.16901  0.41486  Biso   1.000  H
  H1004    1.0000 0.13938  0.20612  0.37429  Biso   1.000  H
  H1005    1.0000 0.13050  0.18050  0.36695  Biso   1.000  H
  H1006    1.0000 0.64520  0.17115  0.85106  Biso   1.000  H
  H1007    1.0000 0.20601  0.21749  0.34797  Biso   1.000  H
  H1008    1.0000 0.19695  0.22842  0.37251  Biso   1.000  H
  H1009    1.0000 0.17235  0.24470  0.32327  Biso   1.000  H
  H1010    1.0000 0.18938  0.11929  0.15279  Biso   1.000  H
  H1011    1.0000 0.49808  0.05414  0.66043  Biso   1.000  H
  H1012    1.0000 0.57685  0.00610  0.76505  Biso   1.000  H
  H1013    1.0000 0.21528  0.69373  0.94177  Biso   1.000  H
  H1014    1.0000 0.22699  0.70706  0.89522  Biso   1.000  H
  H1015    1.0000 0.13074  0.66653  0.91649  Biso   1.000  H
  H1016    1.0000 0.13303  0.70872  0.87764  Biso   1.000  H
  H1017    1.0000 0.12450  0.68303  0.86986  Biso   1.000  H
  H1018    1.0000 0.63054  0.66308  0.32869  Biso   1.000  H
  H1019    1.0000 0.20772  0.73080  0.84456  Biso   1.000  H
  H1020    1.0000 0.19736  0.74101  0.86890  Biso   1.000  H
  H1021    1.0000 0.16251  0.73447  0.82378  Biso   1.000  H
  H1022    1.0000 0.18915  0.61777  0.65274  Biso   1.000  H
  H1023    1.0000 0.02959  0.51392  0.75706  Biso   1.000  H
  H1024    1.0000 0.07332  0.49746  0.77433  Biso   1.000  H
  H1025    1.0000 0.71454  0.19382  0.94190  Biso   1.000  H
  H1026    1.0000 0.72679  0.20709  0.89546  Biso   1.000  H
  H1027    1.0000 0.64033  0.16496  0.91374  Biso   1.000  H
  H1028    1.0000 0.62438  0.20921  0.88109  Biso   1.000  H
  H1029    1.0000 0.61561  0.18306  0.87452  Biso   1.000  H
  H1030    1.0000 0.13000  0.16220  0.32911  Biso   1.000  H
  H1031    1.0000 0.70867  0.23058  0.84396  Biso   1.000  H
  H1032    1.0000 0.69836  0.24091  0.86833  Biso   1.000  H
  H1033    1.0000 0.66336  0.23402  0.82337  Biso   1.000  H
  H1034    1.0000 0.68378  0.11631  0.65352  Biso   1.000  H
  H1035    1.0000 0.03293  0.99613  0.27191  Biso   1.000  H
  H1036    1.0000 0.07696  0.01335  0.25622  Biso   1.000  H
  H1037    1.0000 0.70652  0.68723  0.43334  Biso   1.000  H
  H1038    1.0000 0.73572  0.71603  0.40512  Biso   1.000  H
  H1039    1.0000 0.63098  0.66665  0.41609  Biso   1.000  H
  H1040    1.0000 0.63435  0.70883  0.37730  Biso   1.000  H
  H1041    1.0000 0.62618  0.68306  0.36923  Biso   1.000  H
  H1042    1.0000 0.15085  0.68689  0.82219  Biso   1.000  H
  H1043    1.0000 0.70782  0.73053  0.34530  Biso   1.000  H
  H1044    1.0000 0.69746  0.74076  0.36971  Biso   1.000  H
  H1045    1.0000 0.66300  0.73608  0.32403  Biso   1.000  H
  H1046    1.0000 0.68902  0.61813  0.15346  Biso   1.000  H
  H1047    1.0000 0.02618  0.19107  0.09449  Biso   1.000  H
  H1048    1.0000 0.02928  0.24979  0.97943  Biso   1.000  H
  H1049    1.0000 0.73368  0.53581  0.84494  Biso   1.000  H
  H1050    1.0000 0.64748  0.55629  0.82883  Biso   1.000  H
  H1051    1.0000 0.62378  0.54026  0.86956  Biso   1.000  H
  H1052    1.0000 0.61604  0.56692  0.87557  Biso   1.000  H
  H1053    1.0000 0.14885  0.56654  0.43325  Biso   1.000  H
  H1054    1.0000 0.13268  0.58309  0.41689  Biso   1.000  H
  H1055    1.0000 0.69735  0.49736  0.88635  Biso   1.000  H
  H1056    1.0000 0.66305  0.52758  0.92106  Biso   1.000  H
  H1057    1.0000 0.65320  0.51829  0.89644  Biso   1.000  H
  H1058    1.0000 0.67855  0.62891  0.09806  Biso   1.000  H
  H1059    1.0000 0.03185  0.75055  0.47747  Biso   1.000  H
  H1060    1.0000 0.07628  0.73646  0.49494  Biso   1.000  H
  H1061    1.0000 0.73407  0.03658  0.34446  Biso   1.000  H
  H1062    1.0000 0.64852  0.05717  0.32808  Biso   1.000  H
  H1063    1.0000 0.62426  0.04084  0.36838  Biso   1.000  H
  H1064    1.0000 0.61638  0.06740  0.37446  Biso   1.000  H
  H1065    1.0000 0.15288  0.06363  0.92249  Biso   1.000  H
  H1066    1.0000 0.13721  0.08052  0.90592  Biso   1.000  H
  H1067    1.0000 0.66325  0.02854  0.42056  Biso   1.000  H
  H1068    1.0000 0.65339  0.01944  0.39581  Biso   1.000  H
  H1069    1.0000 0.68410  0.13016  0.59787  Biso   1.000  H
  H1070    1.0000 0.52719  0.19586  0.59122  Biso   1.000  H
  H1071    1.0000 0.53267  0.25105  0.47657  Biso   1.000  H
  H1072    1.0000 0.57498  0.23360  0.49617  Biso   1.000  H
  H1073    1.0000 0.23428  0.53618  0.34601  Biso   1.000  H
  H1074    1.0000 0.14907  0.55654  0.32940  Biso   1.000  H
  H1075    1.0000 0.12567  0.54100  0.37051  Biso   1.000  H
  H1076    1.0000 0.11760  0.56765  0.37601  Biso   1.000  H
  H1077    1.0000 0.65979  0.56173  0.91742  Biso   1.000  H
  H1078    1.0000 0.64348  0.57814  0.90129  Biso   1.000  H
  H1079    1.0000 0.19970  0.50161  0.38501  Biso   1.000  H
  H1080    1.0000 0.16170  0.51878  0.42439  Biso   1.000  H
  H1081    1.0000 0.15270  0.50928  0.39955  Biso   1.000  H
  H1082    1.0000 0.17747  0.62999  0.59788  Biso   1.000  H
  H1083    1.0000 0.52799  0.69393  0.09124  Biso   1.000  H
  H1084    1.0000 0.53189  0.75060  0.97809  Biso   1.000  H
  H1085    1.0000 0.57675  0.73639  0.99428  Biso   1.000  H
  H1086    1.0000 0.23461  0.03457  0.84139  Biso   1.000  H
  H1087    1.0000 0.14234  0.05586  0.82598  Biso   1.000  H
  H1088    1.0000 0.12809  0.04147  0.87144  Biso   1.000  H
  H1089    1.0000 0.12059  0.06776  0.87762  Biso   1.000  H
  H1090    1.0000 0.66029  0.06228  0.41624  Biso   1.000  H
  H1091    1.0000 0.64391  0.07869  0.40016  Biso   1.000  H
  H1092    1.0000 0.20789  0.01765  0.90705  Biso   1.000  H
  H1093    1.0000 0.19833  0.00829  0.88220  Biso   1.000  H
  H1094    1.0000 0.16110  0.02486  0.92252  Biso   1.000  H
  H1095    1.0000 0.17727  0.12979  0.09767  Biso   1.000  H
  H1096    1.0000 0.75159  0.05196  0.58599  Biso   1.000  H
  H1097    1.0000 0.70835  0.99097  0.47051  Biso   1.000  H
  H1098    1.0000 0.68620  0.02287  0.50171  Biso   1.000  H
  H1099    1.0000 0.01599  0.71470  0.34100  Biso   1.000  H
  H1100    1.0000 0.11155  0.69561  0.32684  Biso   1.000  H
  H1101    1.0000 0.11743  0.70696  0.37503  Biso   1.000  H
  H1102    1.0000 0.12575  0.68034  0.38027  Biso   1.000  H
  H1103    1.0000 0.60209  0.66952  0.89721  Biso   1.000  H
  H1104    1.0000 0.05035  0.74811  0.38436  Biso   1.000  H
  H1105    1.0000 0.08772  0.72493  0.42125  Biso   1.000  H
  H1106    1.0000 0.09678  0.73450  0.39628  Biso   1.000  H
  H1107    1.0000 0.06725  0.61721  0.59680  Biso   1.000  H
  H1108    1.0000 0.74855  0.54395  0.08345  Biso   1.000  H
  H1109    1.0000 0.71818  0.49698  0.97709  Biso   1.000  H
  H1110    1.0000 0.67413  0.51291  0.99396  Biso   1.000  H
  H1111    1.0000 0.03385  0.19497  0.80848  Biso   1.000  H
  H1112    1.0000 0.02384  0.20649  0.85589  Biso   1.000  H
  H1113    1.0000 0.11920  0.16744  0.83286  Biso   1.000  H
  H1114    1.0000 0.11544  0.20895  0.87234  Biso   1.000  H
  H1115    1.0000 0.12404  0.18314  0.87994  Biso   1.000  H
  H1116    1.0000 0.60191  0.16968  0.39739  Biso   1.000  H
  H1117    1.0000 0.04287  0.23634  0.90917  Biso   1.000  H
  H1118    1.0000 0.05224  0.24684  0.88433  Biso   1.000  H
  H1119    1.0000 0.08991  0.23112  0.92462  Biso   1.000  H
  H1120    1.0000 0.25233  0.05182  0.08526  Biso   1.000  H
  H1121    1.0000 0.17321  0.01477  0.99367  Biso   1.000  H
  H1122    1.0000 0.51655  0.71462  0.84175  Biso   1.000  H
  H1123    1.0000 0.61246  0.69480  0.82687  Biso   1.000  H
  H1124    1.0000 0.61769  0.70643  0.87508  Biso   1.000  H
  H1125    1.0000 0.62589  0.67983  0.88060  Biso   1.000  H
  H1126    1.0000 0.10288  0.66997  0.39741  Biso   1.000  H
  H1127    1.0000 0.55067  0.74728  0.88364  Biso   1.000  H
  H1128    1.0000 0.58767  0.72511  0.92149  Biso   1.000  H
  H1129    1.0000 0.59706  0.73443  0.89657  Biso   1.000  H
  H1130    1.0000 0.25110  0.55453  0.58824  Biso   1.000  H
  H1131    1.0000 0.22398  0.56022  0.59360  Biso   1.000  H
  H1132    1.0000 0.22248  0.50251  0.48624  Biso   1.000  H
  H1133    1.0000 0.17279  0.50645  0.48605  Biso   1.000  H
  H1134    1.0000 0.53559  0.19460  0.30772  Biso   1.000  H
  H1135    1.0000 0.52393  0.20669  0.35462  Biso   1.000  H
  H1136    1.0000 0.61105  0.16573  0.33501  Biso   1.000  H
  H1137    1.0000 0.62492  0.20933  0.36948  Biso   1.000  H
  H1138    1.0000 0.63306  0.18300  0.37619  Biso   1.000  H
  H1139    1.0000 0.11723  0.16628  0.91444  Biso   1.000  H
  H1140    1.0000 0.54247  0.23153  0.40630  Biso   1.000  H
  H1141    1.0000 0.55285  0.24205  0.38211  Biso   1.000  H
  H1142    1.0000 0.58817  0.23243  0.42632  Biso   1.000  H
  H1143    1.0000 0.25247  0.69453  0.66331  Biso   1.000  H
  H1144    1.0000 0.20928  0.75871  0.77941  Biso   1.000  H
  H1145    1.0000 0.18222  0.72979  0.74921  Biso   1.000  H
  H1146    1.0000 0.54813  0.06502  0.92850  Biso   1.000  H
  H1147    1.0000 0.51302  0.03387  0.91177  Biso   1.000  H
  H1148    1.0000 0.59261  0.05775  0.91110  Biso   1.000  H
  H1149    1.0000 0.60083  0.08401  0.90499  Biso   1.000  H
  H1150    1.0000 0.63257  0.03962  0.88761  Biso   1.000  H
  H1151    1.0000 0.09821  0.06131  0.32409  Biso   1.000  H
  H1152    1.0000 0.54272  0.01298  0.84060  Biso   1.000  H
  H1153    1.0000 0.55223  0.00267  0.86549  Biso   1.000  H
  H1154    1.0000 0.58960  0.01620  0.82411  Biso   1.000  H
  H1155    1.0000 0.57605  0.13438  0.65205  Biso   1.000  H
  H1156    1.0000 0.25241  0.19760  0.16288  Biso   1.000  H
  H1157    1.0000 0.20993  0.25786  0.28062  Biso   1.000  H
  H1158    1.0000 0.18239  0.22940  0.25045  Biso   1.000  H
  H1159    1.0000 0.54125  0.56263  0.43627  Biso   1.000  H
  H1160    1.0000 0.51633  0.53726  0.40146  Biso   1.000  H
  H1161    1.0000 0.60806  0.55563  0.42127  Biso   1.000  H
  H1162    1.0000 0.61700  0.54202  0.37426  Biso   1.000  H
  H1163    1.0000 0.62553  0.56814  0.36823  Biso   1.000  H
  H1164    1.0000 0.10161  0.57800  0.80485  Biso   1.000  H
  H1165    1.0000 0.54907  0.50590  0.36743  Biso   1.000  H
  H1166    1.0000 0.58773  0.51957  0.32735  Biso   1.000  H
  H1167    1.0000 0.59635  0.50923  0.35201  Biso   1.000  H
  H1168    1.0000 0.57234  0.63470  0.15139  Biso   1.000  H
  H1169    1.0000 0.75303  0.69600  0.16336  Biso   1.000  H
  H1170    1.0000 0.70778  0.75989  0.28020  Biso   1.000  H
  H1171    1.0000 0.68350  0.72953  0.24907  Biso   1.000  H
  H1172    1.0000 0.04351  0.06333  0.43311  Biso   1.000  H
  H1173    1.0000 0.01389  0.03359  0.40636  Biso   1.000  H
  H1174    1.0000 0.09798  0.05938  0.41753  Biso   1.000  H
  H1175    1.0000 0.10731  0.08550  0.41099  Biso   1.000  H
  H1176    1.0000 0.13032  0.03985  0.38497  Biso   1.000  H
  H1177    1.0000 0.60221  0.06967  0.81146  Biso   1.000  H
  H1178    1.0000 0.04259  0.01854  0.34430  Biso   1.000  H
  H1179    1.0000 0.05301  0.00881  0.36883  Biso   1.000  H
  H1180    1.0000 0.08761  0.01386  0.32330  Biso   1.000  H
  H1181    1.0000 0.07619  0.13382  0.15044  Biso   1.000  H
  H1182    1.0000 0.75504  0.19349  0.65981  Biso   1.000  H
  H1183    1.0000 0.71012  0.25787  0.77907  Biso   1.000  H
  H1184    1.0000 0.68263  0.22937  0.74888  Biso   1.000  H
  H1185    1.0000 0.03908  0.56158  0.94027  Biso   1.000  H
  H1186    1.0000 0.01941  0.53800  0.90100  Biso   1.000  H
  H1187    1.0000 0.10242  0.55738  0.91925  Biso   1.000  H
  H1188    1.0000 0.12665  0.53993  0.87968  Biso   1.000  H
  H1189    1.0000 0.60167  0.57583  0.30616  Biso   1.000  H
  H1190    1.0000 0.04979  0.50709  0.86789  Biso   1.000  H
  H1191    1.0000 0.08883  0.52211  0.82865  Biso   1.000  H
  H1192    1.0000 0.09724  0.51208  0.85356  Biso   1.000  H
  H1193    1.0000 0.06601  0.63252  0.65204  Biso   1.000  H
  H1194    1.0000 0.65975  0.69588  0.22245  Biso   1.000  H
  H1195    1.0000 0.77747  0.75438  0.21591  Biso   1.000  H
  H1196    1.0000 0.75465  0.73439  0.17629  Biso   1.000  H
  H1197    1.0000 0.90879  0.03537  0.51569  Biso   1.000  H
  H1198    1.0000 0.92275  0.05419  0.61262  Biso   1.000  H
  H1199    1.0000 0.87460  0.04265  0.61781  Biso   1.000  H
  H1200    1.0000 0.86905  0.06940  0.62559  Biso   1.000  H
  H1201    1.0000 0.32165  0.06398  0.09811  Biso   1.000  H
  H1202    1.0000 0.33770  0.08037  0.11445  Biso   1.000  H
  H1203    1.0000 0.87150  0.01527  0.55156  Biso   1.000  H
  H1204    1.0000 0.82468  0.01423  0.58461  Biso   1.000  H
  H1205    1.0000 0.84883  0.00342  0.59433  Biso   1.000  H
  H1206    1.0000 0.64719  0.12665  0.58601  Biso   1.000  H
  H1207    1.0000 0.65277  0.17352  0.72787  Biso   1.000  H
  H1208    1.0000 0.77584  0.25418  0.71636  Biso   1.000  H
  H1209    1.0000 0.75332  0.23393  0.67670  Biso   1.000  H
  H1210    1.0000 0.90853  0.53553  0.01563  Biso   1.000  H
  H1211    1.0000 0.92236  0.55440  0.11203  Biso   1.000  H
  H1212    1.0000 0.87417  0.54249  0.11610  Biso   1.000  H
  H1213    1.0000 0.86835  0.56908  0.12434  Biso   1.000  H
  H1214    1.0000 0.31484  0.56869  0.60136  Biso   1.000  H
  H1215    1.0000 0.33115  0.58500  0.61773  Biso   1.000  H
  H1216    1.0000 0.86859  0.50770  0.04924  Biso   1.000  H
  H1217    1.0000 0.82757  0.51797  0.08801  Biso   1.000  H
  H1218    1.0000 0.85242  0.50807  0.09648  Biso   1.000  H
  H1219    1.0000 0.64869  0.62651  0.08692  Biso   1.000  H
  H1220    1.0000 0.15973  0.69052  0.75512  Biso   1.000  H
  H1221    1.0000 0.27605  0.75412  0.71459  Biso   1.000  H
  H1222    1.0000 0.25214  0.73329  0.67604  Biso   1.000  H
  H1223    1.0000 0.40934  0.03459  0.01628  Biso   1.000  H
  H1224    1.0000 0.42135  0.05349  0.11268  Biso   1.000  H
  H1225    1.0000 0.37287  0.04287  0.11649  Biso   1.000  H
  H1226    1.0000 0.36770  0.06963  0.12460  Biso   1.000  H
  H1227    1.0000 0.82120  0.06458  0.59903  Biso   1.000  H
  H1228    1.0000 0.83766  0.08083  0.61509  Biso   1.000  H
  H1229    1.0000 0.37104  0.01349  0.05013  Biso   1.000  H
  H1230    1.0000 0.32437  0.01414  0.08343  Biso   1.000  H
  H1231    1.0000 0.34832  0.00331  0.09331  Biso   1.000  H
  H1232    1.0000 0.14670  0.12600  0.08762  Biso   1.000  H
  H1233    1.0000 0.15987  0.19652  0.22246  Biso   1.000  H
  H1234    1.0000 0.27619  0.25375  0.21727  Biso   1.000  H
  H1235    1.0000 0.25370  0.23464  0.17703  Biso   1.000  H
  H1236    1.0000 0.40901  0.53518  0.51519  Biso   1.000  H
  H1237    1.0000 0.42191  0.55366  0.61212  Biso   1.000  H
  H1238    1.0000 0.37350  0.54266  0.61613  Biso   1.000  H
  H1239    1.0000 0.36817  0.56934  0.62431  Biso   1.000  H
  H1240    1.0000 0.81081  0.56908  0.10215  Biso   1.000  H
  H1241    1.0000 0.36607  0.50543  0.54969  Biso   1.000  H
  H1242    1.0000 0.32742  0.52134  0.58895  Biso   1.000  H
  H1243    1.0000 0.35222  0.51108  0.59725  Biso   1.000  H
  H1244    1.0000 0.14707  0.62755  0.58747  Biso   1.000  H
  H1245    1.0000 0.58548  0.04935  0.75077  Biso   1.000  H
  H1246    1.0000 0.49284  0.01280  0.72080  Biso   1.000  H
  H1247    1.0000 0.47784  0.99957  0.67512  Biso   1.000  H
  H1248    1.0000 0.31702  0.68763  0.04265  Biso   1.000  H
  H1249    1.0000 0.34636  0.71579  0.01394  Biso   1.000  H
  H1250    1.0000 0.33438  0.66651  0.11877  Biso   1.000  H
  H1251    1.0000 0.37342  0.70835  0.11466  Biso   1.000  H
  H1252    1.0000 0.38134  0.68259  0.12310  Biso   1.000  H
  H1253    1.0000 0.92185  0.66215  0.61883  Biso   1.000  H
  H1254    1.0000 0.40553  0.72971  0.04226  Biso   1.000  H
  H1255    1.0000 0.38123  0.74038  0.05240  Biso   1.000  H
  H1256    1.0000 0.42642  0.73493  0.08733  Biso   1.000  H
  H1257    1.0000 0.60578  0.62463  0.04892  Biso   1.000  H
  H1258    1.0000 0.59656  0.56555  0.22582  Biso   1.000  H
  H1259    1.0000 0.48420  0.50173  0.22213  Biso   1.000  H
  H1260    1.0000 0.48650  0.50820  0.17270  Biso   1.000  H
  H1261    1.0000 0.30877  0.19358  0.53521  Biso   1.000  H
  H1262    1.0000 0.35428  0.20877  0.52202  Biso   1.000  H
  H1263    1.0000 0.33663  0.16529  0.60775  Biso   1.000  H
  H1264    1.0000 0.36760  0.21003  0.62550  Biso   1.000  H
  H1265    1.0000 0.37431  0.18396  0.63431  Biso   1.000  H
  H1266    1.0000 0.92823  0.15545  0.11833  Biso   1.000  H
  H1267    1.0000 0.40401  0.22955  0.54064  Biso   1.000  H
  H1268    1.0000 0.37976  0.24031  0.55090  Biso   1.000  H
  H1269    1.0000 0.42554  0.23622  0.58519  Biso   1.000  H
  H1270    1.0000 0.60313  0.12403  0.54942  Biso   1.000  H
  H1271    1.0000 0.09102  0.07068  0.25752  Biso   1.000  H
  H1272    1.0000 0.99390  0.01258  0.22038  Biso   1.000  H
  H1273    1.0000 0.81359  0.68803  0.54154  Biso   1.000  H
  H1274    1.0000 0.84810  0.71376  0.51660  Biso   1.000  H
  H1275    1.0000 0.83644  0.66655  0.61519  Biso   1.000  H
  H1276    1.0000 0.87436  0.70942  0.61905  Biso   1.000  H
  H1277    1.0000 0.88140  0.68361  0.62801  Biso   1.000  H
  H1278    1.0000 0.42215  0.66132  0.11926  Biso   1.000  H
  H1279    1.0000 0.90189  0.71922  0.54411  Biso   1.000  H
  H1280    1.0000 0.87760  0.73049  0.55326  Biso   1.000  H
  H1281    1.0000 0.92685  0.74402  0.57941  Biso   1.000  H
  H1282    1.0000 0.10442  0.62689  0.54914  Biso   1.000  H
  H1283    1.0000 0.08439  0.54825  0.74933  Biso   1.000  H
  H1284    1.0000 0.97651  0.49719  0.71867  Biso   1.000  H
  H1285    1.0000 0.99147  0.51338  0.67397  Biso   1.000  H
  H1286    1.0000 0.80933  0.19455  0.03366  Biso   1.000  H
  H1287    1.0000 0.85628  0.20699  0.02286  Biso   1.000  H
  H1288    1.0000 0.83439  0.16706  0.11882  Biso   1.000  H
  H1289    1.0000 0.87359  0.20872  0.11445  Biso   1.000  H
  H1290    1.0000 0.88143  0.18293  0.12293  Biso   1.000  H
  H1291    1.0000 0.41321  0.17016  0.61736  Biso   1.000  H
  H1292    1.0000 0.90918  0.23586  0.04203  Biso   1.000  H
  H1293    1.0000 0.88444  0.24647  0.05150  Biso   1.000  H
  H1294    1.0000 0.92518  0.23157  0.08905  Biso   1.000  H
  H1295    1.0000 0.10454  0.12403  0.04877  Biso   1.000  H
  H1296    1.0000 0.99400  0.23390  0.07178  Biso   1.000  H
  H1297    1.0000 0.81344  0.56269  0.70755  Biso   1.000  H
  H1298    1.0000 0.84617  0.53585  0.73367  Biso   1.000  H
  H1299    1.0000 0.82772  0.55226  0.63067  Biso   1.000  H
  H1300    1.0000 0.87519  0.54555  0.64387  Biso   1.000  H
  H1301    1.0000 0.88120  0.57174  0.63579  Biso   1.000  H
  H1302    1.0000 0.43358  0.56637  0.14881  Biso   1.000  H
  H1303    1.0000 0.87774  0.51526  0.69941  Biso   1.000  H
  H1304    1.0000 0.92488  0.51311  0.66689  Biso   1.000  H
  H1305    1.0000 0.90075  0.50257  0.65709  Biso   1.000  H
  H1306    1.0000 0.09806  0.63100  0.68220  Biso   1.000  H
  H1307    1.0000 0.09286  0.67967  0.49360  Biso   1.000  H
  H1308    1.0000 0.97264  0.75452  0.53326  Biso   1.000  H
  H1309    1.0000 0.99456  0.73537  0.57378  Biso   1.000  H
  H1310    1.0000 0.84423  0.03626  0.23464  Biso   1.000  H
  H1311    1.0000 0.82988  0.05771  0.14833  Biso   1.000  H
  H1312    1.0000 0.87002  0.04028  0.12470  Biso   1.000  H
  H1313    1.0000 0.87676  0.06653  0.11669  Biso   1.000  H
  H1314    1.0000 0.43858  0.07093  0.64821  Biso   1.000  H
  H1315    1.0000 0.88535  0.00253  0.19880  Biso   1.000  H
  H1316    1.0000 0.92329  0.02257  0.16076  Biso   1.000  H
  H1317    1.0000 0.89853  0.01292  0.15188  Biso   1.000  H
  H1318    1.0000 0.09937  0.13152  0.18457  Biso   1.000  H
  H1319    1.0000 0.59075  0.17874  0.49282  Biso   1.000  H
  H1320    1.0000 0.47352  0.25403  0.53164  Biso   1.000  H
  H1321    1.0000 0.49472  0.23649  0.57326  Biso   1.000  H
  H1322    1.0000 0.32812  0.56859  0.20103  Biso   1.000  H
  H1323    1.0000 0.33092  0.53468  0.23742  Biso   1.000  H
  H1324    1.0000 0.32753  0.55233  0.13303  Biso   1.000  H
  H1325    1.0000 0.37587  0.54389  0.14105  Biso   1.000  H
  H1326    1.0000 0.38189  0.57005  0.13288  Biso   1.000  H
  H1327    1.0000 0.92824  0.56341  0.65092  Biso   1.000  H
  H1328    1.0000 0.38289  0.50631  0.20151  Biso   1.000  H
  H1329    1.0000 0.42302  0.51855  0.16239  Biso   1.000  H
  H1330    1.0000 0.39803  0.50895  0.15401  Biso   1.000  H
  H1331    1.0000 0.59866  0.63280  0.18414  Biso   1.000  H
  H1332    1.0000 0.47341  0.75509  0.03628  Biso   1.000  H
  H1333    1.0000 0.49696  0.73409  0.07496  Biso   1.000  H
  H1334    1.0000 0.31690  0.06446  0.70540  Biso   1.000  H
  H1335    1.0000 0.34214  0.03499  0.73659  Biso   1.000  H
  H1336    1.0000 0.32990  0.05842  0.64933  Biso   1.000  H
  H1337    1.0000 0.33680  0.08457  0.64104  Biso   1.000  H
  H1338    1.0000 0.37080  0.04059  0.62730  Biso   1.000  H
  H1339    1.0000 0.93323  0.06754  0.14890  Biso   1.000  H
  H1340    1.0000 0.91678  0.08418  0.13283  Biso   1.000  H
  H1341    1.0000 0.40850  0.04426  0.67861  Biso   1.000  H
  H1342    1.0000 0.59916  0.13140  0.68815  Biso   1.000  H
  H1343    1.0000 0.16335  0.55022  0.49918  Biso   1.000  H
  H1344    1.0000 0.15695  0.55626  0.52582  Biso   1.000  H
  H1345    1.0000 0.26938  0.49960  0.52912  Biso   1.000  H
  H1346    1.0000 0.25942  0.51176  0.57641  Biso   1.000  H
  H1347    1.0000 0.43774  0.18697  0.20714  Biso   1.000  H
  H1348    1.0000 0.40519  0.21393  0.23344  Biso   1.000  H
  H1349    1.0000 0.41215  0.16554  0.14236  Biso   1.000  H
  H1350    1.0000 0.37939  0.20895  0.12425  Biso   1.000  H
  H1351    1.0000 0.37374  0.18247  0.11558  Biso   1.000  H
  H1352    1.0000 0.85057  0.17155  0.64393  Biso   1.000  H
  H1353    1.0000 0.34669  0.22097  0.20696  Biso   1.000  H
  H1354    1.0000 0.37117  0.23139  0.19748  Biso   1.000  H
  H1355    1.0000 0.32255  0.24317  0.16940  Biso   1.000  H
  H1356    1.0000 0.27884  0.99141  0.03847  Biso   1.000  H
  H1357    1.0000 0.24923  0.02235  0.06389  Biso   1.000  H
  H1358    1.0000 0.40017  0.70988  0.73103  Biso   1.000  H
  H1359    1.0000 0.40843  0.69319  0.65970  Biso   1.000  H
  H1360    1.0000 0.39142  0.70859  0.61551  Biso   1.000  H
  H1361    1.0000 0.38547  0.68177  0.60840  Biso   1.000  H
  H1362    1.0000 0.81854  0.68511  0.15009  Biso   1.000  H
  H1363    1.0000 0.36185  0.75377  0.69532  Biso   1.000  H
  H1364    1.0000 0.32849  0.72121  0.66184  Biso   1.000  H
  H1365    1.0000 0.35315  0.73055  0.65198  Biso   1.000  H
  H1366    1.0000 0.15312  0.61539  0.68583  Biso   1.000  H
  H1367    1.0000 0.76531  0.50166  0.02788  Biso   1.000  H
  H1368    1.0000 0.76535  0.50562  0.07762  Biso   1.000  H
  H1369    1.0000 0.93812  0.18828  0.70746  Biso   1.000  H
  H1370    1.0000 0.90512  0.21483  0.73361  Biso   1.000  H
  H1371    1.0000 0.91220  0.16604  0.64245  Biso   1.000  H
  H1372    1.0000 0.87916  0.20916  0.62414  Biso   1.000  H
  H1373    1.0000 0.87381  0.18263  0.61542  Biso   1.000  H
  H1374    1.0000 0.35020  0.17130  0.14372  Biso   1.000  H
  H1375    1.0000 0.84638  0.22185  0.70711  Biso   1.000  H
  H1376    1.0000 0.87076  0.23228  0.69745  Biso   1.000  H
  H1377    1.0000 0.82204  0.24337  0.66928  Biso   1.000  H
  H1378    1.0000 0.65933  0.05854  0.49483  Biso   1.000  H
  H1379    1.0000 0.77435  0.99721  0.53170  Biso   1.000  H
  H1380    1.0000 0.75674  0.01437  0.57507  Biso   1.000  H
  H1381    1.0000 0.93821  0.68606  0.20595  Biso   1.000  H
  H1382    1.0000 0.90610  0.71327  0.23253  Biso   1.000  H
  H1383    1.0000 0.91225  0.66535  0.14116  Biso   1.000  H
  H1384    1.0000 0.87878  0.70886  0.12463  Biso   1.000  H
  H1385    1.0000 0.87253  0.68235  0.11641  Biso   1.000  H
  H1386    1.0000 0.35262  0.67001  0.64863  Biso   1.000  H
  H1387    1.0000 0.84800  0.71715  0.20350  Biso   1.000  H
  H1388    1.0000 0.87245  0.72817  0.19462  Biso   1.000  H
  H1389    1.0000 0.82326  0.74425  0.16978  Biso   1.000  H
  H1390    1.0000 0.24902  0.66429  0.70274  Biso   1.000  H
  H1391    1.0000 0.22223  0.65890  0.69642  Biso   1.000  H
  H1392    1.0000 0.18258  0.74988  0.72949  Biso   1.000  H
  H1393    1.0000 0.51866  0.90092  0.03990  Biso   1.000  H
  H1394    1.0000 0.60075  0.91999  0.05722  Biso   1.000  H
  H1395    1.0000 0.62555  0.87976  0.04162  Biso   1.000  H
  H1396    1.0000 0.63384  0.87452  0.06821  Biso   1.000  H
  H1397    1.0000 0.10010  0.31558  0.06739  Biso   1.000  H
  H1398    1.0000 0.54062  0.84130  0.01742  Biso   1.000  H
  H1399    1.0000 0.58750  0.82434  0.01841  Biso   1.000  H
  H1400    1.0000 0.59664  0.84901  0.00817  Biso   1.000  H
  H1401    1.0000 0.57259  0.65287  0.12968  Biso   1.000  H
  H1402    1.0000 0.25001  0.16319  0.19884  Biso   1.000  H
  H1403    1.0000 0.22316  0.15828  0.19258  Biso   1.000  H
  H1404    1.0000 0.18249  0.24969  0.23095  Biso   1.000  H
  H1405    1.0000 0.54113  0.43393  0.56346  Biso   1.000  H
  H1406    1.0000 0.51610  0.40063  0.53623  Biso   1.000  H
  H1407    1.0000 0.59855  0.41724  0.55930  Biso   1.000  H
  H1408    1.0000 0.60773  0.41014  0.58533  Biso   1.000  H
  H1409    1.0000 0.62842  0.38265  0.53942  Biso   1.000  H
  H1410    1.0000 0.09556  0.82599  0.56289  Biso   1.000  H
  H1411    1.0000 0.11177  0.84185  0.58001  Biso   1.000  H
  H1412    1.0000 0.54363  0.33851  0.51008  Biso   1.000  H
  H1413    1.0000 0.55288  0.36333  0.49994  Biso   1.000  H
  H1414    1.0000 0.59889  0.35244  0.51554  Biso   1.000  H
  H1415    1.0000 0.57515  0.15300  0.63066  Biso   1.000  H
  H1416    1.0000 0.74974  0.66426  0.20162  Biso   1.000  H
  H1417    1.0000 0.72306  0.65885  0.19504  Biso   1.000  H
  H1418    1.0000 0.68402  0.74940  0.22908  Biso   1.000  H
  H1419    1.0000 0.01858  0.90052  0.54064  Biso   1.000  H
  H1420    1.0000 0.09884  0.91597  0.55869  Biso   1.000  H
  H1421    1.0000 0.10808  0.90892  0.58473  Biso   1.000  H
  H1422    1.0000 0.12913  0.88179  0.53875  Biso   1.000  H
  H1423    1.0000 0.59864  0.32039  0.56373  Biso   1.000  H
  H1424    1.0000 0.04123  0.84419  0.51996  Biso   1.000  H
  H1425    1.0000 0.05170  0.86834  0.50942  Biso   1.000  H
  H1426    1.0000 0.08584  0.82250  0.51442  Biso   1.000  H
  H1427    1.0000 0.06560  0.65246  0.63195  Biso   1.000  H
  H1428    1.0000 0.74773  0.16775  0.70195  Biso   1.000  H
  H1429    1.0000 0.72101  0.16306  0.69450  Biso   1.000  H
  H1430    1.0000 0.68260  0.24977  0.72945  Biso   1.000  H
  H1431    1.0000 0.04317  0.43376  0.06479  Biso   1.000  H
  H1432    1.0000 0.01703  0.40235  0.03640  Biso   1.000  H
  H1433    1.0000 0.10052  0.41729  0.05955  Biso   1.000  H
  H1434    1.0000 0.10928  0.40991  0.08565  Biso   1.000  H
  H1435    1.0000 0.12910  0.38150  0.03994  Biso   1.000  H
  H1436    1.0000 0.58635  0.83435  0.06272  Biso   1.000  H
  H1437    1.0000 0.04362  0.33910  0.01393  Biso   1.000  H
  H1438    1.0000 0.05240  0.36440  0.00421  Biso   1.000  H
  H1439    1.0000 0.09977  0.35030  0.01062  Biso   1.000  H
  H1440    1.0000 0.07486  0.15219  0.12890  Biso   1.000  H
  H1441    1.0000 0.75247  0.58672  0.05810  Biso   1.000  H
  H1442    1.0000 0.72550  0.59264  0.06399  Biso   1.000  H
  H1443    1.0000 0.71870  0.47705  0.99726  Biso   1.000  H
  H1444    1.0000 0.04064  0.31537  0.68775  Biso   1.000  H
  H1445    1.0000 0.01591  0.35006  0.71345  Biso   1.000  H
  H1446    1.0000 0.10540  0.33009  0.69375  Biso   1.000  H
  H1447    1.0000 0.11390  0.33718  0.66748  Biso   1.000  H
  H1448    1.0000 0.12321  0.37314  0.71122  Biso   1.000  H
  H1449    1.0000 0.59678  0.92434  0.68680  Biso   1.000  H
  H1450    1.0000 0.61287  0.90874  0.66933  Biso   1.000  H
  H1451    1.0000 0.04246  0.41080  0.73887  Biso   1.000  H
  H1452    1.0000 0.05160  0.38569  0.74851  Biso   1.000  H
  H1453    1.0000 0.08896  0.42245  0.72549  Biso   1.000  H
  H1454    1.0000 0.74905  0.08630  0.54997  Biso   1.000  H
  H1455    1.0000 0.72215  0.09106  0.55618  Biso   1.000  H
  H1456    1.0000 0.70856  0.97121  0.49089  Biso   1.000  H
  H1457    1.0000 0.04228  0.81456  0.18709  Biso   1.000  H
  H1458    1.0000 0.01737  0.84913  0.21274  Biso   1.000  H
  H1459    1.0000 0.10739  0.82961  0.19304  Biso   1.000  H
  H1460    1.0000 0.11607  0.83671  0.16681  Biso   1.000  H
  H1461    1.0000 0.12330  0.87348  0.21025  Biso   1.000  H
  H1462    1.0000 0.61551  0.41194  0.17056  Biso   1.000  H
  H1463    1.0000 0.04184  0.90714  0.23313  Biso   1.000  H
  H1464    1.0000 0.05156  0.88260  0.24304  Biso   1.000  H
  H1465    1.0000 0.08853  0.92333  0.22698  Biso   1.000  H
  H1466    1.0000 0.06103  0.09728  0.11995  Biso   1.000  H
  H1467    1.0000 0.22242  0.59027  0.55387  Biso   1.000  H
  H1468    1.0000 0.22081  0.48229  0.50600  Biso   1.000  H
  H1469    1.0000 0.54121  0.31445  0.18878  Biso   1.000  H
  H1470    1.0000 0.51650  0.34986  0.21349  Biso   1.000  H
  H1471    1.0000 0.60772  0.33826  0.16689  Biso   1.000  H
  H1472    1.0000 0.62598  0.37077  0.21044  Biso   1.000  H
  H1473    1.0000 0.63465  0.37652  0.18395  Biso   1.000  H
  H1474    1.0000 0.09707  0.92365  0.18621  Biso   1.000  H
  H1475    1.0000 0.11348  0.90799  0.16914  Biso   1.000  H
  H1476    1.0000 0.54257  0.41064  0.23708  Biso   1.000  H
  H1477    1.0000 0.55140  0.38551  0.24705  Biso   1.000  H
  H1478    1.0000 0.58961  0.42282  0.22640  Biso   1.000  H
  H1479    1.0000 0.56113  0.59750  0.12002  Biso   1.000  H
  H1480    1.0000 0.24938  0.08658  0.04968  Biso   1.000  H
  H1481    1.0000 0.22263  0.09152  0.05652  Biso   1.000  H
  H1482    1.0000 0.54432  0.81689  0.68580  Biso   1.000  H
  H1483    1.0000 0.60721  0.83018  0.69367  Biso   1.000  H
  H1484    1.0000 0.61530  0.83742  0.66731  Biso   1.000  H
  H1485    1.0000 0.62184  0.87466  0.71048  Biso   1.000  H
  H1486    1.0000 0.11676  0.41690  0.66726  Biso   1.000  H
  H1487    1.0000 0.54524  0.90286  0.71975  Biso   1.000  H
  H1488    1.0000 0.55438  0.87860  0.73091  Biso   1.000  H
  H1489    1.0000 0.58096  0.92773  0.74402  Biso   1.000  H
  H1490    1.0000 0.55971  0.09858  0.62128  Biso   1.000  H
  H1491    1.0000 0.02697  0.09179  0.19189  Biso   1.000  H
  H1492    1.0000 0.03350  0.97625  0.25171  Biso   1.000  H
  H1493    1.0000 0.70659  0.81707  0.56425  Biso   1.000  H
  H1494    1.0000 0.73572  0.84617  0.53630  Biso   1.000  H
  H1495    1.0000 0.63123  0.83508  0.58424  Biso   1.000  H
  H1496    1.0000 0.63268  0.87335  0.54147  Biso   1.000  H
  H1497    1.0000 0.62355  0.88118  0.56698  Biso   1.000  H
  H1498    1.0000 0.15304  0.42301  0.56367  Biso   1.000  H
  H1499    1.0000 0.13676  0.40740  0.58094  Biso   1.000  H
  H1500    1.0000 0.70904  0.90548  0.51963  Biso   1.000  H
  H1501    1.0000 0.69853  0.88097  0.50982  Biso   1.000  H
  H1502    1.0000 0.66440  0.92693  0.51361  Biso   1.000  H
  H1503    1.0000 0.00235  0.58160  0.70235  Biso   1.000  H
  H1504    1.0000 0.02906  0.58637  0.69507  Biso   1.000  H
  H1505    1.0000 0.02932  0.49358  0.73775  Biso   1.000  H
  H1506    1.0000 0.70729  0.31608  0.06278  Biso   1.000  H
  H1507    1.0000 0.65073  0.34738  0.08551  Biso   1.000  H
  H1508    1.0000 0.61669  0.36022  0.04126  Biso   1.000  H
  H1509    1.0000 0.60843  0.36657  0.06767  Biso   1.000  H
  H1510    1.0000 0.14956  0.94550  0.07725  Biso   1.000  H
  H1511    1.0000 0.70680  0.40850  0.01483  Biso   1.000  H
  H1512    1.0000 0.69713  0.38382  0.00423  Biso   1.000  H
  H1513    1.0000 0.65998  0.42486  0.01916  Biso   1.000  H
  H1514    1.0000 0.49982  0.08546  0.69917  Biso   1.000  H
  H1515    1.0000 0.52688  0.09138  0.69317  Biso   1.000  H
  H1516    1.0000 0.52845  0.98217  0.74571  Biso   1.000  H
  H1517    1.0000 0.20817  0.81566  0.06421  Biso   1.000  H
  H1518    1.0000 0.23504  0.84640  0.03577  Biso   1.000  H
  H1519    1.0000 0.13663  0.83618  0.08380  Biso   1.000  H
  H1520    1.0000 0.12917  0.87299  0.04038  Biso   1.000  H
  H1521    1.0000 0.12063  0.87997  0.06635  Biso   1.000  H
  H1522    1.0000 0.64791  0.43857  0.07073  Biso   1.000  H
  H1523    1.0000 0.16228  0.91679  0.03038  Biso   1.000  H
  H1524    1.0000 0.15498  0.89167  0.02020  Biso   1.000  H
  H1525    1.0000 0.20600  0.91403  0.00643  Biso   1.000  H
  H1526    1.0000 0.49735  0.58543  0.19755  Biso   1.000  H
  H1527    1.0000 0.52449  0.59198  0.19270  Biso   1.000  H
  H1528    1.0000 0.52869  0.49250  0.23777  Biso   1.000  H
  H1529    1.0000 0.20521  0.31976  0.56768  Biso   1.000  H
  H1530    1.0000 0.13425  0.33628  0.58510  Biso   1.000  H
  H1531    1.0000 0.12794  0.37305  0.54148  Biso   1.000  H
  H1532    1.0000 0.11932  0.38031  0.56731  Biso   1.000  H
  H1533    1.0000 0.65376  0.92270  0.56204  Biso   1.000  H
  H1534    1.0000 0.63735  0.90737  0.57951  Biso   1.000  H
  H1535    1.0000 0.20467  0.40256  0.53225  Biso   1.000  H
  H1536    1.0000 0.19539  0.37800  0.52176  Biso   1.000  H
  H1537    1.0000 0.16943  0.42692  0.50682  Biso   1.000  H
  H1538    1.0000 0.49753  0.16183  0.55597  Biso   1.000  H
  H1539    1.0000 0.52431  0.15548  0.56214  Biso   1.000  H
  H1540    1.0000 0.57422  0.25377  0.51591  Biso   1.000  H
  H1541    1.0000 0.23140  0.39940  0.21087  Biso   1.000  H
  H1542    1.0000 0.15107  0.41564  0.19226  Biso   1.000  H
  H1543    1.0000 0.14231  0.40849  0.16615  Biso   1.000  H
  H1544    1.0000 0.12109  0.38099  0.21183  Biso   1.000  H
  H1545    1.0000 0.66194  0.83238  0.18658  Biso   1.000  H
  H1546    1.0000 0.64573  0.84854  0.17021  Biso   1.000  H
  H1547    1.0000 0.20829  0.34420  0.23066  Biso   1.000  H
  H1548    1.0000 0.19810  0.36844  0.24131  Biso   1.000  H
  H1549    1.0000 0.16382  0.32261  0.23748  Biso   1.000  H
  H1550    1.0000 0.17680  0.15101  0.11636  Biso   1.000  H
  H1551    1.0000 0.49894  0.66163  0.05393  Biso   1.000  H
  H1552    1.0000 0.52598  0.65570  0.05936  Biso   1.000  H
  H1553    1.0000 0.57564  0.75583  0.01470  Biso   1.000  H
  H1554    1.0000 0.20670  0.93644  0.68652  Biso   1.000  H
  H1555    1.0000 0.23286  0.90413  0.71391  Biso   1.000  H
  H1556    1.0000 0.14130  0.92103  0.69455  Biso   1.000  H
  H1557    1.0000 0.13101  0.87433  0.70815  Biso   1.000  H
  H1558    1.0000 0.12316  0.86830  0.68189  Biso   1.000  H
  H1559    1.0000 0.65245  0.32559  0.68668  Biso   1.000  H
  H1560    1.0000 0.63623  0.34122  0.66935  Biso   1.000  H
  H1561    1.0000 0.20426  0.84652  0.71826  Biso   1.000  H
  H1562    1.0000 0.19512  0.87085  0.72925  Biso   1.000  H
  H1563    1.0000 0.16931  0.82168  0.74367  Biso   1.000  H
  H1564    1.0000 0.17700  0.65062  0.61718  Biso   1.000  H
  H1565    1.0000 0.02555  0.15840  0.05681  Biso   1.000  H
  H1566    1.0000 0.02870  0.26974  0.99931  Biso   1.000  H
  H1567    1.0000 0.07635  0.26042  0.01039  Biso   1.000  H
  H1568    1.0000 0.73124  0.39960  0.70945  Biso   1.000  H
  H1569    1.0000 0.65050  0.41624  0.69107  Biso   1.000  H
  H1570    1.0000 0.64140  0.40889  0.66510  Biso   1.000  H
  H1571    1.0000 0.62147  0.38108  0.71115  Biso   1.000  H
  H1572    1.0000 0.15005  0.82059  0.68608  Biso   1.000  H
  H1573    1.0000 0.70824  0.34463  0.72889  Biso   1.000  H
  H1574    1.0000 0.69813  0.36888  0.73961  Biso   1.000  H
  H1575    1.0000 0.66388  0.32300  0.73622  Biso   1.000  H
  H1576    1.0000 0.68458  0.15072  0.61745  Biso   1.000  H
  H1577    1.0000 0.00263  0.66893  0.54699  Biso   1.000  H
  H1578    1.0000 0.02932  0.66389  0.55436  Biso   1.000  H
  H1579    1.0000 0.07476  0.75628  0.51497  Biso   1.000  H
  H1580    1.0000 0.71585  0.94105  0.19530  Biso   1.000  H
  H1581    1.0000 0.72662  0.89382  0.20675  Biso   1.000  H
  H1582    1.0000 0.66090  0.90070  0.19454  Biso   1.000  H
  H1583    1.0000 0.61419  0.89262  0.20963  Biso   1.000  H
  H1584    1.0000 0.60659  0.88650  0.18280  Biso   1.000  H
  H1585    1.0000 0.15272  0.32536  0.18784  Biso   1.000  H
  H1586    1.0000 0.13651  0.34090  0.17040  Biso   1.000  H
  H1587    1.0000 0.70886  0.84430  0.22931  Biso   1.000  H
  H1588    1.0000 0.69855  0.86822  0.24057  Biso   1.000  H
  H1589    1.0000 0.66444  0.82241  0.23548  Biso   1.000  H
  H1590    1.0000 0.67823  0.65017  0.11673  Biso   1.000  H
  H1591    1.0000 0.69476  0.25120  0.66118  Biso   1.000  H
  H1592    1.0000 0.68863  0.22435  0.65497  Biso   1.000  H
  H1593    1.0000 0.75439  0.17703  0.77496  Biso   1.000  H
  H1594    1.0000 0.03995  0.51863  0.90226  Biso   1.000  H
  H1595    1.0000 0.05662  0.60549  0.92340  Biso   1.000  H
  H1596    1.0000 0.04154  0.62168  0.87879  Biso   1.000  H
  H1597    1.0000 0.06804  0.62978  0.87271  Biso   1.000  H
  H1598    1.0000 0.06871  0.10027  0.31464  Biso   1.000  H
  H1599    1.0000 0.08499  0.11658  0.33101  Biso   1.000  H
  H1600    1.0000 0.01648  0.54137  0.84257  Biso   1.000  H
  H1601    1.0000 0.01859  0.58850  0.82640  Biso   1.000  H
  H1602    1.0000 0.00842  0.59741  0.85123  Biso   1.000  H
  H1603    1.0000 0.12370  0.54890  0.64375  Biso   1.000  H
  H1604    1.0000 0.70068  0.74946  0.16368  Biso   1.000  H
  H1605    1.0000 0.69483  0.72275  0.15730  Biso   1.000  H
  H1606    1.0000 0.75001  0.72293  0.27090  Biso   1.000  H
  H1607    1.0000 0.74054  0.67514  0.26055  Biso   1.000  H
  H1608    1.0000 0.06365  0.04329  0.43305  Biso   1.000  H
  H1609    1.0000 0.08377  0.11095  0.41468  Biso   1.000  H
  H1610    1.0000 0.04003  0.12296  0.37968  Biso   1.000  H
  H1611    1.0000 0.06623  0.13129  0.37275  Biso   1.000  H
  H1612    1.0000 0.06241  0.58948  0.83330  Biso   1.000  H
  H1613    1.0000 0.07877  0.60567  0.84955  Biso   1.000  H
  H1614    1.0000 0.00269  0.04987  0.36603  Biso   1.000  H
  H1615    1.0000 0.02104  0.08708  0.32645  Biso   1.000  H
  H1616    1.0000 0.01116  0.09658  0.35093  Biso   1.000  H
  H1617    1.0000 0.19903  0.25037  0.16433  Biso   1.000  H
  H1618    1.0000 0.19301  0.22389  0.15720  Biso   1.000  H
  H1619    1.0000 0.25191  0.17541  0.27262  Biso   1.000  H
  H1620    1.0000 0.56131  0.54271  0.43644  Biso   1.000  H
  H1621    1.0000 0.55852  0.59387  0.41198  Biso   1.000  H
  H1622    1.0000 0.58474  0.60209  0.40563  Biso   1.000  H
  H1623    1.0000 0.54020  0.63353  0.38810  Biso   1.000  H
  H1624    1.0000 0.56297  0.09604  0.82721  Biso   1.000  H
  H1625    1.0000 0.58023  0.11254  0.84256  Biso   1.000  H
  H1626    1.0000 0.51960  0.54286  0.34498  Biso   1.000  H
  H1627    1.0000 0.50924  0.55329  0.36922  Biso   1.000  H
  H1628    1.0000 0.51429  0.58758  0.32345  Biso   1.000  H
  H1629    1.0000 0.62330  0.55068  0.14637  Biso   1.000  H
  H1630    1.0000 0.19902  0.74929  0.66382  Biso   1.000  H
  H1631    1.0000 0.19366  0.72237  0.65791  Biso   1.000  H
  H1632    1.0000 0.25091  0.72231  0.77145  Biso   1.000  H
  H1633    1.0000 0.24141  0.67454  0.76112  Biso   1.000  H
  H1634    1.0000 0.56715  0.04414  0.92754  Biso   1.000  H
  H1635    1.0000 0.55481  0.10815  0.92165  Biso   1.000  H
  H1636    1.0000 0.54102  0.11719  0.87470  Biso   1.000  H
  H1637    1.0000 0.56714  0.12556  0.86852  Biso   1.000  H
  H1638    1.0000 0.56237  0.59067  0.33284  Biso   1.000  H
  H1639    1.0000 0.57903  0.60722  0.34840  Biso   1.000  H
  H1640    1.0000 0.52393  0.05593  0.87324  Biso   1.000  H
  H1641    1.0000 0.50540  0.07868  0.82386  Biso   1.000  H
  H1642    1.0000 0.49445  0.08757  0.84845  Biso   1.000  H
  H1643    1.0000 0.06338  0.72568  0.59792  Biso   1.000  H
  H1644    1.0000 0.99767  0.67752  0.47624  Biso   1.000  H
  H1645    1.0000 0.68580  0.04295  0.31430  Biso   1.000  H
  H1646    1.0000 0.71470  0.01623  0.34475  Biso   1.000  H
  H1647    1.0000 0.69095  0.09886  0.33267  Biso   1.000  H
  H1648    1.0000 0.66495  0.10786  0.34001  Biso   1.000  H
  H1649    1.0000 0.71090  0.12897  0.36705  Biso   1.000  H
  H1650    1.0000 0.67174  0.60098  0.94559  Biso   1.000  H
  H1651    1.0000 0.75117  0.05472  0.41965  Biso   1.000  H
  H1652    1.0000 0.76102  0.06316  0.39422  Biso   1.000  H
  H1653    1.0000 0.70605  0.07222  0.40783  Biso   1.000  H
  H1654    1.0000 0.61537  0.07000  0.59711  Biso   1.000  H
  H1655    1.0000 0.07413  0.22711  0.09808  Biso   1.000  H
  H1656    1.0000 0.01569  0.17487  0.99561  Biso   1.000  H
  H1657    1.0000 0.68535  0.54296  0.81502  Biso   1.000  H
  H1658    1.0000 0.71415  0.51563  0.84502  Biso   1.000  H
  H1659    1.0000 0.69138  0.59829  0.83330  Biso   1.000  H
  H1660    1.0000 0.66529  0.60700  0.84066  Biso   1.000  H
  H1661    1.0000 0.71104  0.62844  0.86781  Biso   1.000  H
  H1662    1.0000 0.67190  0.10145  0.44466  Biso   1.000  H
  H1663    1.0000 0.75077  0.55395  0.92065  Biso   1.000  H
  H1664    1.0000 0.76064  0.56228  0.89522  Biso   1.000  H
  H1665    1.0000 0.70589  0.57226  0.90909  Biso   1.000  H
  H1666    1.0000 0.62410  0.58991  0.10450  Biso   1.000  H
  H1667    1.0000 0.56594  0.72435  0.09739  Biso   1.000  H
  H1668    1.0000 0.49737  0.67798  0.97686  Biso   1.000  H
  H1669    1.0000 0.18420  0.04607  0.81688  Biso   1.000  H
  H1670    1.0000 0.21440  0.01479  0.84106  Biso   1.000  H
  H1671    1.0000 0.19180  0.09324  0.83738  Biso   1.000  H
  H1672    1.0000 0.16558  0.10191  0.84322  Biso   1.000  H
  H1673    1.0000 0.21029  0.13282  0.86124  Biso   1.000  H
  H1674    1.0000 0.18704  0.59779  0.42713  Biso   1.000  H
  H1675    1.0000 0.25062  0.05560  0.92090  Biso   1.000  H
  H1676    1.0000 0.26075  0.06305  0.89529  Biso   1.000  H
  H1677    1.0000 0.20548  0.07210  0.90772  Biso   1.000  H
  H1678    1.0000 0.11670  0.06811  0.09795  Biso   1.000  H
  H1679    1.0000 0.56321  0.22424  0.59664  Biso   1.000  H
  H1680    1.0000 0.51673  0.21797  0.49578  Biso   1.000  H
  H1681    1.0000 0.49612  0.17689  0.47652  Biso   1.000  H
  H1682    1.0000 0.18630  0.54224  0.31537  Biso   1.000  H
  H1683    1.0000 0.21497  0.51577  0.34623  Biso   1.000  H
  H1684    1.0000 0.19165  0.59896  0.33234  Biso   1.000  H
  H1685    1.0000 0.16558  0.60793  0.33950  Biso   1.000  H
  H1686    1.0000 0.21134  0.62941  0.36657  Biso   1.000  H
  H1687    1.0000 0.17828  0.10330  0.93882  Biso   1.000  H
  H1688    1.0000 0.25068  0.55002  0.41783  Biso   1.000  H
  H1689    1.0000 0.25979  0.56025  0.39288  Biso   1.000  H
  H1690    1.0000 0.20820  0.57539  0.41283  Biso   1.000  H
  H1691    1.0000 0.12519  0.59108  0.60487  Biso   1.000  H
  H1692    1.0000 0.25061  0.03055  0.97646  Biso   1.000  H
  H1693    1.0000 0.23916  0.07713  0.98985  Biso   1.000  H
  H1694    1.0000 0.56665  0.70343  0.81647  Biso   1.000  H
  H1695    1.0000 0.53669  0.73449  0.84122  Biso   1.000  H
  H1696    1.0000 0.55833  0.64972  0.83044  Biso   1.000  H
  H1697    1.0000 0.54020  0.62199  0.86762  Biso   1.000  H
  H1698    1.0000 0.56642  0.61405  0.87454  Biso   1.000  H
  H1699    1.0000 0.57687  0.14741  0.44390  Biso   1.000  H
  H1700    1.0000 0.59345  0.13101  0.42759  Biso   1.000  H
  H1701    1.0000 0.50164  0.69749  0.88541  Biso   1.000  H
  H1702    1.0000 0.52503  0.66063  0.92252  Biso   1.000  H
  H1703    1.0000 0.51590  0.65140  0.89771  Biso   1.000  H
  H1704    1.0000 0.62515  0.70005  0.10445  Biso   1.000  H
  H1705    1.0000 0.19567  0.49945  0.58869  Biso   1.000  H
  H1706    1.0000 0.18935  0.52641  0.59359  Biso   1.000  H
  H1707    1.0000 0.25923  0.54299  0.46995  Biso   1.000  H
  H1708    1.0000 0.22887  0.56676  0.50151  Biso   1.000  H
  H1709    1.0000 0.54366  0.22652  0.35464  Biso   1.000  H
  H1710    1.0000 0.55836  0.14969  0.32964  Biso   1.000  H
  H1711    1.0000 0.54062  0.12438  0.36868  Biso   1.000  H
  H1712    1.0000 0.56670  0.11579  0.37506  Biso   1.000  H
  H1713    1.0000 0.57837  0.64866  0.94503  Biso   1.000  H
  H1714    1.0000 0.59449  0.63180  0.92875  Biso   1.000  H
  H1715    1.0000 0.48710  0.18706  0.39407  Biso   1.000  H
  H1716    1.0000 0.54178  0.17766  0.40849  Biso   1.000  H
  H1717    1.0000 0.53232  0.16898  0.38358  Biso   1.000  H
  H1718    1.0000 0.63023  0.18972  0.59735  Biso   1.000  H
  H1719    1.0000 0.75160  0.02992  0.47687  Biso   1.000  H
  H1720    1.0000 0.74004  0.07675  0.48925  Biso   1.000  H
  H1721    1.0000 0.06675  0.70355  0.31707  Biso   1.000  H
  H1722    1.0000 0.03595  0.73476  0.34056  Biso   1.000  H
  H1723    1.0000 0.05844  0.64958  0.33081  Biso   1.000  H
  H1724    1.0000 0.04085  0.62325  0.36922  Biso   1.000  H
  H1725    1.0000 0.06713  0.61522  0.37583  Biso   1.000  H
  H1726    1.0000 0.06334  0.15122  0.92673  Biso   1.000  H
  H1727    1.0000 0.07920  0.13444  0.91050  Biso   1.000  H
  H1728    1.0000 0.00187  0.69867  0.38562  Biso   1.000  H
  H1729    1.0000 0.02383  0.66092  0.42279  Biso   1.000  H
  H1730    1.0000 0.01421  0.65204  0.39802  Biso   1.000  H
  H1731    1.0000 0.12485  0.70050  0.60522  Biso   1.000  H
  H1732    1.0000 0.69115  0.49448  0.09126  Biso   1.000  H
  H1733    1.0000 0.74818  0.52763  0.98143  Biso   1.000  H
  H1734    1.0000 0.74059  0.57621  0.98918  Biso   1.000  H
  H1735    1.0000 0.04335  0.22660  0.85533  Biso   1.000  H
  H1736    1.0000 0.05697  0.15882  0.84142  Biso   1.000  H
  H1737    1.0000 0.08365  0.15120  0.84661  Biso   1.000  H
  H1738    1.0000 0.06795  0.10717  0.86376  Biso   1.000  H
  H1739    1.0000 0.07928  0.64866  0.44507  Biso   1.000  H
  H1740    1.0000 0.09566  0.63204  0.42879  Biso   1.000  H
  H1741    1.0000 0.01937  0.20858  0.90549  Biso   1.000  H
  H1742    1.0000 0.00831  0.19856  0.88133  Biso   1.000  H
  H1743    1.0000 0.01302  0.16391  0.92684  Biso   1.000  H
  H1744    1.0000 0.55260  0.49861  0.16339  Biso   1.000  H
  H1745    1.0000 0.51554  0.57518  0.25488  Biso   1.000  H
  H1746    1.0000 0.21022  0.23215  0.40186  Biso   1.000  H
  H1747    1.0000 0.19262  0.15976  0.40952  Biso   1.000  H
  H1748    1.0000 0.20869  0.11691  0.39001  Biso   1.000  H
  H1749    1.0000 0.18200  0.10947  0.38414  Biso   1.000  H
  H1750    1.0000 0.18286  0.64920  0.81683  Biso   1.000  H
  H1751    1.0000 0.16640  0.63287  0.83301  Biso   1.000  H
  H1752    1.0000 0.23765  0.20576  0.33719  Biso   1.000  H
  H1753    1.0000 0.24748  0.19818  0.36288  Biso   1.000  H
  H1754    1.0000 0.24036  0.15024  0.35123  Biso   1.000  H
  H1755    1.0000 0.11571  0.17754  0.15311  Biso   1.000  H
  H1756    1.0000 0.54811  0.00124  0.66605  Biso   1.000  H
  H1757    1.0000 0.51583  0.07419  0.75593  Biso   1.000  H
  H1758    1.0000 0.20706  0.72674  0.89564  Biso   1.000  H
  H1759    1.0000 0.16565  0.64005  0.91415  Biso   1.000  H
  H1760    1.0000 0.20928  0.62573  0.87991  Biso   1.000  H
  H1761    1.0000 0.18298  0.61746  0.87330  Biso   1.000  H
  H1762    1.0000 0.18676  0.15459  0.32586  Biso   1.000  H
  H1763    1.0000 0.17122  0.13736  0.34208  Biso   1.000  H
  H1764    1.0000 0.24812  0.69909  0.86594  Biso   1.000  H
  H1765    1.0000 0.22977  0.66174  0.82646  Biso   1.000  H
  H1766    1.0000 0.23979  0.65235  0.85094  Biso   1.000  H
  H1767    1.0000 0.12155  0.66338  0.64881  Biso   1.000  H
  H1768    1.0000 0.06944  0.49250  0.65908  Biso   1.000  H
  H1769    1.0000 0.00879  0.57778  0.76169  Biso   1.000  H
  H1770    1.0000 0.70732  0.22714  0.89580  Biso   1.000  H
  H1771    1.0000 0.69126  0.14853  0.92053  Biso   1.000  H
  H1772    1.0000 0.70884  0.12551  0.88003  Biso   1.000  H
  H1773    1.0000 0.68281  0.11713  0.87333  Biso   1.000  H
  H1774    1.0000 0.68737  0.65606  0.32564  Biso   1.000  H
  H1775    1.0000 0.67199  0.63881  0.34203  Biso   1.000  H
  H1776    1.0000 0.73649  0.20698  0.83948  Biso   1.000  H
  H1777    1.0000 0.74630  0.19852  0.86494  Biso   1.000  H
  H1778    1.0000 0.74125  0.15096  0.85089  Biso   1.000  H
  H1779    1.0000 0.61984  0.17486  0.65180  Biso   1.000  H
  H1780    1.0000 0.04991  0.00023  0.16361  Biso   1.000  H
  H1781    1.0000 0.01588  0.07259  0.25699  Biso   1.000  H
  H1782    1.0000 0.68670  0.70751  0.43354  Biso   1.000  H
  H1783    1.0000 0.69306  0.64991  0.41810  Biso   1.000  H
  H1784    1.0000 0.66672  0.64141  0.41271  Biso   1.000  H
  H1785    1.0000 0.68265  0.61675  0.37252  Biso   1.000  H
  H1786    1.0000 0.67276  0.14849  0.80622  Biso   1.000  H
  H1787    1.0000 0.65623  0.13201  0.82234  Biso   1.000  H
  H1788    1.0000 0.73610  0.70850  0.33915  Biso   1.000  H
  H1789    1.0000 0.72980  0.66077  0.32636  Biso   1.000  H
  H1790    1.0000 0.74045  0.65260  0.35108  Biso   1.000  H
  H1791    1.0000 0.62286  0.66244  0.14769  Biso   1.000  H
  H1792    1.0000 0.92971  0.40991  0.24411  Biso   1.000  H
  H1793    1.0000 0.92450  0.40413  0.27142  Biso   1.000  H
  H1794    1.0000 0.00040  0.51990  0.27969  Biso   1.000  H
  H1795    1.0000 0.29440  0.64528  0.97685  Biso   1.000  H
  H1796    1.0000 0.30754  0.65646  0.91003  Biso   1.000  H
  H1797    1.0000 0.29138  0.64133  0.86543  Biso   1.000  H
  H1798    1.0000 0.31806  0.63521  0.85779  Biso   1.000  H
  H1799    1.0000 0.32074  0.06099  0.39729  Biso   1.000  H
  H1800    1.0000 0.26489  0.59117  0.95740  Biso   1.000  H
  H1801    1.0000 0.25419  0.61579  0.94774  Biso   1.000  H
  H1802    1.0000 0.26930  0.57481  0.91053  Biso   1.000  H
  H1803    1.0000 0.38008  0.40190  0.92505  Biso   1.000  H
  H1804    1.0000 0.94421  0.91268  0.74827  Biso   1.000  H
  H1805    1.0000 0.93826  0.90707  0.77536  Biso   1.000  H
  H1806    1.0000 0.31401  0.18476  0.45722  Biso   1.000  H
  H1807    1.0000 0.28642  0.15258  0.48326  Biso   1.000  H
  H1808    1.0000 0.30828  0.16229  0.40609  Biso   1.000  H
  H1809    1.0000 0.33444  0.15592  0.39785  Biso   1.000  H
  H1810    1.0000 0.28987  0.13822  0.36657  Biso   1.000  H
  H1811    1.0000 0.31342  0.57567  0.90564  Biso   1.000  H
  H1812    1.0000 0.32886  0.59228  0.88868  Biso   1.000  H
  H1813    1.0000 0.26524  0.09158  0.45734  Biso   1.000  H
  H1814    1.0000 0.25488  0.11639  0.44775  Biso   1.000  H
  H1815    1.0000 0.26806  0.07482  0.41048  Biso   1.000  H
  H1816    1.0000 0.37674  0.89826  0.41337  Biso   1.000  H
  H1817    1.0000 0.43743  0.40639  0.77633  Biso   1.000  H
  H1818    1.0000 0.49953  0.51927  0.77883  Biso   1.000  H
  H1819    1.0000 0.79503  0.64475  0.47453  Biso   1.000  H
  H1820    1.0000 0.83390  0.66671  0.38050  Biso   1.000  H
  H1821    1.0000 0.79191  0.62783  0.38424  Biso   1.000  H
  H1822    1.0000 0.81758  0.61988  0.37569  Biso   1.000  H
  H1823    1.0000 0.81964  0.06089  0.89731  Biso   1.000  H
  H1824    1.0000 0.76325  0.58935  0.45631  Biso   1.000  H
  H1825    1.0000 0.77210  0.57796  0.40857  Biso   1.000  H
  H1826    1.0000 0.76204  0.60293  0.40055  Biso   1.000  H
  H1827    1.0000 0.45765  0.93140  0.25634  Biso   1.000  H
  H1828    1.0000 0.45052  0.92608  0.28298  Biso   1.000  H
  H1829    1.0000 0.49992  0.01968  0.27831  Biso   1.000  H
  H1830    1.0000 0.81337  0.18451  0.95749  Biso   1.000  H
  H1831    1.0000 0.78650  0.15175  0.98357  Biso   1.000  H
  H1832    1.0000 0.80788  0.16124  0.90668  Biso   1.000  H
  H1833    1.0000 0.83391  0.15511  0.89785  Biso   1.000  H
  H1834    1.0000 0.78890  0.13809  0.86687  Biso   1.000  H
  H1835    1.0000 0.82925  0.55508  0.39667  Biso   1.000  H
  H1836    1.0000 0.84593  0.57198  0.38099  Biso   1.000  H
  H1837    1.0000 0.76477  0.09099  0.95768  Biso   1.000  H
  H1838    1.0000 0.75419  0.11576  0.94823  Biso   1.000  H
  H1839    1.0000 0.76752  0.07442  0.91075  Biso   1.000  H
  H1840    1.0000 0.87648  0.89834  0.91409  Biso   1.000  H
  H1841    1.0000 0.30330  0.33597  0.74783  Biso   1.000  H
  H1842    1.0000 0.30784  0.34213  0.77512  Biso   1.000  H
  H1843    1.0000 0.24886  0.22682  0.78079  Biso   1.000  H
  H1844    1.0000 0.25970  0.24055  0.82746  Biso   1.000  H
  H1845    1.0000 0.93600  0.06487  0.45805  Biso   1.000  H
  H1846    1.0000 0.96429  0.09687  0.48359  Biso   1.000  H
  H1847    1.0000 0.94078  0.08126  0.40122  Biso   1.000  H
  H1848    1.0000 0.91469  0.08826  0.39225  Biso   1.000  H
  H1849    1.0000 0.96028  0.11562  0.37082  Biso   1.000  H
  H1850    1.0000 0.93288  0.68329  0.89792  Biso   1.000  H
  H1851    1.0000 0.99681  0.13392  0.44782  Biso   1.000  H
  H1852    1.0000 0.97524  0.17150  0.41027  Biso   1.000  H
  H1853    1.0000 0.98552  0.14710  0.40110  Biso   1.000  H
  H1854    1.0000 0.86817  0.34878  0.43343  Biso   1.000  H
  H1855    1.0000 0.30741  0.83773  0.24843  Biso   1.000  H
  H1856    1.0000 0.31365  0.84391  0.27523  Biso   1.000  H
  H1857    1.0000 0.24619  0.72375  0.28564  Biso   1.000  H
  H1858    1.0000 0.26666  0.74843  0.32392  Biso   1.000  H
  H1859    1.0000 0.96276  0.59755  0.98422  Biso   1.000  H
  H1860    1.0000 0.94114  0.58206  0.90140  Biso   1.000  H
  H1861    1.0000 0.91509  0.58853  0.89190  Biso   1.000  H
  H1862    1.0000 0.96051  0.61708  0.87169  Biso   1.000  H
  H1863    1.0000 0.92110  0.19385  0.39800  Biso   1.000  H
  H1864    1.0000 0.90499  0.17704  0.38173  Biso   1.000  H
  H1865    1.0000 0.98434  0.66036  0.95683  Biso   1.000  H
  H1866    1.0000 0.99495  0.63524  0.94848  Biso   1.000  H
  H1867    1.0000 0.99104  0.64954  0.90085  Biso   1.000  H
  H1868    1.0000 0.87613  0.85503  0.95164  Biso   1.000  H
  H1869    1.0000 0.80230  0.33434  0.24882  Biso   1.000  H
  H1870    1.0000 0.80848  0.34028  0.27583  Biso   1.000  H
  H1871    1.0000 0.75043  0.22892  0.27878  Biso   1.000  H
  H1872    1.0000 0.76001  0.24054  0.32630  Biso   1.000  H
  H1873    1.0000 0.43366  0.07090  0.95599  Biso   1.000  H
  H1874    1.0000 0.44316  0.07827  0.89446  Biso   1.000  H
  H1875    1.0000 0.41693  0.08504  0.88559  Biso   1.000  H
  H1876    1.0000 0.46024  0.12164  0.87705  Biso   1.000  H
  H1877    1.0000 0.43276  0.68411  0.39912  Biso   1.000  H
  H1878    1.0000 0.49102  0.13140  0.95100  Biso   1.000  H
  H1879    1.0000 0.47922  0.17191  0.91214  Biso   1.000  H
  H1880    1.0000 0.48985  0.14732  0.90369  Biso   1.000  H
  H1881    1.0000 0.37047  0.34822  0.94283  Biso   1.000  H
  H1882    1.0000 0.80514  0.83545  0.74787  Biso   1.000  H
  H1883    1.0000 0.81013  0.84155  0.77510  Biso   1.000  H
  H1884    1.0000 0.74720  0.72353  0.78384  Biso   1.000  H
  H1885    1.0000 0.76629  0.74719  0.82341  Biso   1.000  H
  H1886    1.0000 0.46325  0.59867  0.48360  Biso   1.000  H
  H1887    1.0000 0.44118  0.58305  0.40061  Biso   1.000  H
  H1888    1.0000 0.41512  0.58959  0.39115  Biso   1.000  H
  H1889    1.0000 0.46042  0.61917  0.37214  Biso   1.000  H
  H1890    1.0000 0.42065  0.19398  0.89886  Biso   1.000  H
  H1891    1.0000 0.40456  0.17720  0.88254  Biso   1.000  H
  H1892    1.0000 0.48454  0.65994  0.45807  Biso   1.000  H
  H1893    1.0000 0.49524  0.63497  0.44931  Biso   1.000  H
  H1894    1.0000 0.49255  0.65055  0.40200  Biso   1.000  H
  H1895    1.0000 0.37549  0.85610  0.45220  Biso   1.000  H
  H1896    1.0000 0.45529  0.83222  0.49818  Biso   1.000  H
  H1897    1.0000 0.44787  0.83819  0.47156  Biso   1.000  H
  H1898    1.0000 0.50018  0.72999  0.47265  Biso   1.000  H
  H1899    1.0000 0.48906  0.73969  0.42506  Biso   1.000  H
  H1900    1.0000 0.81324  0.56471  0.79222  Biso   1.000  H
  H1901    1.0000 0.78551  0.59710  0.76656  Biso   1.000  H
  H1902    1.0000 0.80863  0.58091  0.84979  Biso   1.000  H
  H1903    1.0000 0.83472  0.58816  0.85860  Biso   1.000  H
  H1904    1.0000 0.78906  0.61572  0.87962  Biso   1.000  H
  H1905    1.0000 0.83315  0.16438  0.36782  Biso   1.000  H
  H1906    1.0000 0.76232  0.66053  0.79428  Biso   1.000  H
  H1907    1.0000 0.75188  0.63582  0.80343  Biso   1.000  H
  H1908    1.0000 0.76705  0.64652  0.84966  Biso   1.000  H
  H1909    1.0000 0.87484  0.85677  0.79919  Biso   1.000  H
  H1910    1.0000 0.44310  0.34065  0.97388  Biso   1.000  H
  H1911    1.0000 0.49934  0.22865  0.97096  Biso   1.000  H
  H1912    1.0000 0.78718  0.09827  0.26610  Biso   1.000  H
  H1913    1.0000 0.80841  0.08167  0.34865  Biso   1.000  H
  H1914    1.0000 0.83448  0.08838  0.35791  Biso   1.000  H
  H1915    1.0000 0.78894  0.11589  0.37924  Biso   1.000  H
  H1916    1.0000 0.81368  0.67332  0.84686  Biso   1.000  H
  H1917    1.0000 0.83047  0.65662  0.86247  Biso   1.000  H
  H1918    1.0000 0.76376  0.16141  0.29389  Biso   1.000  H
  H1919    1.0000 0.75388  0.13598  0.30212  Biso   1.000  H
  H1920    1.0000 0.76036  0.14898  0.34985  Biso   1.000  H
  H1921    1.0000 0.88212  0.34814  0.31322  Biso   1.000  H
  H1922    1.0000 0.94399  0.84233  0.97401  Biso   1.000  H
  H1923    1.0000 0.98231  0.74593  0.96766  Biso   1.000  H
  H1924    1.0000 0.00294  0.72635  0.92672  Biso   1.000  H
  H1925    1.0000 0.31637  0.56778  0.29617  Biso   1.000  H
  H1926    1.0000 0.28554  0.59162  0.26525  Biso   1.000  H
  H1927    1.0000 0.30878  0.58281  0.34886  Biso   1.000  H
  H1928    1.0000 0.33488  0.59027  0.35742  Biso   1.000  H
  H1929    1.0000 0.28909  0.61583  0.38057  Biso   1.000  H
  H1930    1.0000 0.33311  0.16430  0.86925  Biso   1.000  H
  H1931    1.0000 0.26209  0.66125  0.29407  Biso   1.000  H
  H1932    1.0000 0.25210  0.63621  0.30284  Biso   1.000  H
  H1933    1.0000 0.26673  0.64673  0.34931  Biso   1.000  H
  H1934    1.0000 0.37552  0.85554  0.29976  Biso   1.000  H
  H1935    1.0000 0.94855  0.33492  0.50084  Biso   1.000  H
  H1936    1.0000 0.94222  0.34122  0.47393  Biso   1.000  H
  H1937    1.0000 0.31406  0.06705  0.79376  Biso   1.000  H
  H1938    1.0000 0.28441  0.09359  0.76383  Biso   1.000  H
  H1939    1.0000 0.30613  0.07579  0.85945  Biso   1.000  H
  H1940    1.0000 0.33256  0.08224  0.86801  Biso   1.000  H
  H1941    1.0000 0.31817  0.12919  0.87607  Biso   1.000  H
  H1942    1.0000 0.31335  0.67418  0.34726  Biso   1.000  H
  H1943    1.0000 0.33021  0.65817  0.36351  Biso   1.000  H
  H1944    1.0000 0.26443  0.16066  0.79486  Biso   1.000  H
  H1945    1.0000 0.25481  0.13508  0.80295  Biso   1.000  H
  H1946    1.0000 0.26030  0.14822  0.85077  Biso   1.000  H
  H1947    1.0000 0.38202  0.34689  0.81889  Biso   1.000  H
  H1948    1.0000 0.79311  0.93033  0.99670  Biso   1.000  H
  H1949    1.0000 0.79816  0.92354  0.96964  Biso   1.000  H
  H1950    1.0000 0.75108  0.01958  0.97238  Biso   1.000  H
  H1951    1.0000 0.46027  0.15140  0.26726  Biso   1.000  H
  H1952    1.0000 0.41560  0.16441  0.35978  Biso   1.000  H
  H1953    1.0000 0.45965  0.13070  0.37408  Biso   1.000  H
  H1954    1.0000 0.43343  0.12392  0.38257  Biso   1.000  H
  H1955    1.0000 0.42856  0.55966  0.85194  Biso   1.000  H
  H1956    1.0000 0.48567  0.09092  0.29211  Biso   1.000  H
  H1957    1.0000 0.49571  0.11599  0.30134  Biso   1.000  H
  H1958    1.0000 0.48301  0.07478  0.33919  Biso   1.000  H
  H1959    1.0000 0.80379  0.41319  0.50226  Biso   1.000  H
  H1960    1.0000 0.80844  0.40704  0.47499  Biso   1.000  H
  H1961    1.0000 0.75020  0.52117  0.47035  Biso   1.000  H
  H1962    1.0000 0.43607  0.68510  0.79452  Biso   1.000  H
  H1963    1.0000 0.46452  0.65733  0.76462  Biso   1.000  H
  H1964    1.0000 0.41666  0.66589  0.86325  Biso   1.000  H
  H1965    1.0000 0.45979  0.62911  0.87159  Biso   1.000  H
  H1966    1.0000 0.43347  0.62192  0.87939  Biso   1.000  H
  H1967    1.0000 0.43022  0.06143  0.35216  Biso   1.000  H
  H1968    1.0000 0.48593  0.58829  0.79285  Biso   1.000  H
  H1969    1.0000 0.47764  0.57680  0.84066  Biso   1.000  H
  H1970    1.0000 0.48742  0.60196  0.84859  Biso   1.000  H
  H1971    1.0000 0.30372  0.91288  0.50223  Biso   1.000  H
  H1972    1.0000 0.30844  0.90724  0.47482  Biso   1.000  H
  H1973    1.0000 0.25137  0.02009  0.47233  Biso   1.000  H
  H1974    1.0000 0.96031  0.15184  0.76781  Biso   1.000  H
  H1975    1.0000 0.91460  0.16414  0.85923  Biso   1.000  H
  H1976    1.0000 0.95839  0.13024  0.87391  Biso   1.000  H
  H1977    1.0000 0.93208  0.12342  0.88193  Biso   1.000  H
  H1978    1.0000 0.92044  0.55450  0.35157  Biso   1.000  H
  H1979    1.0000 0.90411  0.57148  0.36750  Biso   1.000  H
  H1980    1.0000 0.98626  0.09112  0.79236  Biso   1.000  H
  H1981    1.0000 0.99626  0.11601  0.80210  Biso   1.000  H
  H1982    1.0000 0.98180  0.07473  0.83920  Biso   1.000  H
  H1983    1.0000 0.30657  0.40890  0.97455  Biso   1.000  H
  H1984    1.0000 0.26271  0.50841  0.97179  Biso   1.000  H
  H1985    1.0000 0.93684  0.68493  0.29367  Biso   1.000  H
  H1986    1.0000 0.96484  0.65557  0.26488  Biso   1.000  H
  H1987    1.0000 0.91741  0.66671  0.36876  Biso   1.000  H
  H1988    1.0000 0.95935  0.62762  0.36656  Biso   1.000  H
  H1989    1.0000 0.93335  0.61984  0.37432  Biso   1.000  H
  H1990    1.0000 0.92893  0.06132  0.85143  Biso   1.000  H
  H1991    1.0000 0.98728  0.58890  0.29413  Biso   1.000  H
  H1992    1.0000 0.99713  0.61403  0.30330  Biso   1.000  H
  H1993    1.0000 0.97937  0.57492  0.34132  Biso   1.000  H
  H1994    1.0000 0.90654  0.97604  0.80720  Biso   1.000  H
  H1995    1.0000 0.00448  0.92643  0.76590  Biso   1.000  H
  H1996    1.0000 0.16905  0.29860  0.43274  Biso   1.000  H
  H1997    1.0000 0.16915  0.26239  0.46694  Biso   1.000  H
  H1998    1.0000 0.17191  0.35934  0.44726  Biso   1.000  H
  H1999    1.0000 0.12448  0.36867  0.45915  Biso   1.000  H
  H2000    1.0000 0.11950  0.37709  0.43245  Biso   1.000  H
  H2001    1.0000 0.57188  0.84929  0.43754  Biso   1.000  H
  H2002    1.0000 0.09745  0.29439  0.46924  Biso   1.000  H
  H2003    1.0000 0.12150  0.30362  0.48076  Biso   1.000  H
  H2004    1.0000 0.07203  0.32961  0.49363  Biso   1.000  H
  H2005    1.0000 0.90234  0.32614  0.37027  Biso   1.000  H
  H2006    1.0000 0.91502  0.50024  0.30034  Biso   1.000  H
  H2007    1.0000 0.90880  0.47331  0.30690  Biso   1.000  H
  H2008    1.0000 0.03040  0.45537  0.24222  Biso   1.000  H
  H2009    1.0000 0.18951  0.78878  0.93918  Biso   1.000  H
  H2010    1.0000 0.15057  0.76880  0.96306  Biso   1.000  H
  H2011    1.0000 0.17266  0.86152  0.94587  Biso   1.000  H
  H2012    1.0000 0.12426  0.86546  0.95693  Biso   1.000  H
  H2013    1.0000 0.11898  0.87426  0.93036  Biso   1.000  H
  H2014    1.0000 0.58572  0.33322  0.93667  Biso   1.000  H
  H2015    1.0000 0.09806  0.79345  0.96906  Biso   1.000  H
  H2016    1.0000 0.12251  0.80259  0.98004  Biso   1.000  H
  H2017    1.0000 0.07340  0.82830  0.99471  Biso   1.000  H
  H2018    1.0000 0.90343  0.81474  0.86903  Biso   1.000  H
  H2019    1.0000 0.52648  0.96694  0.24655  Biso   1.000  H
  H2020    1.0000 0.50450  0.92586  0.26439  Biso   1.000  H
  H2021    1.0000 0.68312  0.29401  0.93660  Biso   1.000  H
  H2022    1.0000 0.65526  0.26415  0.96501  Biso   1.000  H
  H2023    1.0000 0.67183  0.35566  0.94403  Biso   1.000  H
  H2024    1.0000 0.62696  0.37152  0.95863  Biso   1.000  H
  H2025    1.0000 0.62143  0.38021  0.93213  Biso   1.000  H
  H2026    1.0000 0.07101  0.84870  0.93676  Biso   1.000  H
  H2027    1.0000 0.59542  0.29059  0.97863  Biso   1.000  H
  H2028    1.0000 0.61939  0.30098  0.98982  Biso   1.000  H
  H2029    1.0000 0.57280  0.33430  0.98684  Biso   1.000  H
  H2030    1.0000 0.40065  0.47902  0.82640  Biso   1.000  H
  H2031    1.0000 0.49861  0.43336  0.77192  Biso   1.000  H
  H2032    1.0000 0.68305  0.79409  0.43694  Biso   1.000  H
  H2033    1.0000 0.65622  0.76412  0.46626  Biso   1.000  H
  H2034    1.0000 0.66559  0.86961  0.41718  Biso   1.000  H
  H2035    1.0000 0.62695  0.86737  0.45955  Biso   1.000  H
  H2036    1.0000 0.61925  0.87653  0.43402  Biso   1.000  H
  H2037    1.0000 0.08632  0.33180  0.43616  Biso   1.000  H
  H2038    1.0000 0.59573  0.79141  0.47958  Biso   1.000  H
  H2039    1.0000 0.62001  0.80169  0.49024  Biso   1.000  H
  H2040    1.0000 0.57388  0.83564  0.48705  Biso   1.000  H
  H2041    1.0000 0.40289  0.81426  0.37067  Biso   1.000  H
  H2042    1.0000 0.83722  0.50189  0.44466  Biso   1.000  H
  H2043    1.0000 0.84271  0.47462  0.43951  Biso   1.000  H
  H2044    1.0000 0.74493  0.42633  0.48509  Biso   1.000  H
  H2045    1.0000 0.56420  0.79271  0.81410  Biso   1.000  H
  H2046    1.0000 0.59555  0.76631  0.78586  Biso   1.000  H
  H2047    1.0000 0.58203  0.85283  0.80745  Biso   1.000  H
  H2048    1.0000 0.58853  0.86129  0.83392  Biso   1.000  H
  H2049    1.0000 0.62241  0.87608  0.78998  Biso   1.000  H
  H2050    1.0000 0.17916  0.34924  0.81333  Biso   1.000  H
  H2051    1.0000 0.65498  0.79504  0.77941  Biso   1.000  H
  H2052    1.0000 0.63004  0.80366  0.76954  Biso   1.000  H
  H2053    1.0000 0.65230  0.84203  0.74682  Biso   1.000  H
  H2054    1.0000 0.84229  0.97441  0.94105  Biso   1.000  H
  H2055    1.0000 0.74445  0.92494  0.98579  Biso   1.000  H
  H2056    1.0000 0.56130  0.29015  0.31253  Biso   1.000  H
  H2057    1.0000 0.59969  0.27011  0.28784  Biso   1.000  H
  H2058    1.0000 0.58115  0.35776  0.30747  Biso   1.000  H
  H2059    1.0000 0.58835  0.36666  0.33354  Biso   1.000  H
  H2060    1.0000 0.62579  0.37146  0.29031  Biso   1.000  H
  H2061    1.0000 0.17940  0.84995  0.31380  Biso   1.000  H
  H2062    1.0000 0.65289  0.29557  0.28214  Biso   1.000  H
  H2063    1.0000 0.62821  0.30395  0.27111  Biso   1.000  H
  H2064    1.0000 0.67690  0.32952  0.25469  Biso   1.000  H
  H2065    1.0000 0.84811  0.31010  0.37975  Biso   1.000  H
  H2066    1.0000 0.33496  0.50131  0.95016  Biso   1.000  H
  H2067    1.0000 0.34104  0.47402  0.94525  Biso   1.000  H
  H2068    1.0000 0.22031  0.45677  0.00919  Biso   1.000  H
  H2069    1.0000 0.25191  0.43186  0.97981  Biso   1.000  H
  H2070    1.0000 0.06390  0.79361  0.31415  Biso   1.000  H
  H2071    1.0000 0.09454  0.76653  0.28576  Biso   1.000  H
  H2072    1.0000 0.08250  0.85286  0.30687  Biso   1.000  H
  H2073    1.0000 0.08869  0.86189  0.33324  Biso   1.000  H
  H2074    1.0000 0.12300  0.87579  0.28933  Biso   1.000  H
  H2075    1.0000 0.67361  0.34678  0.31400  Biso   1.000  H
  H2076    1.0000 0.65807  0.36270  0.33168  Biso   1.000  H
  H2077    1.0000 0.15442  0.79486  0.28052  Biso   1.000  H
  H2078    1.0000 0.12948  0.80295  0.27000  Biso   1.000  H
  H2079    1.0000 0.15215  0.83932  0.24451  Biso   1.000  H
  H2080    1.0000 0.34392  0.97543  0.43758  Biso   1.000  H
  H2081    1.0000 0.22027  0.95827  0.50963  Biso   1.000  H
  H2082    1.0000 0.25107  0.93222  0.48041  Biso   1.000  H
  H2083    1.0000 0.06011  0.29028  0.81168  Biso   1.000  H
  H2084    1.0000 0.09818  0.26969  0.78693  Biso   1.000  H
  H2085    1.0000 0.07785  0.36292  0.80446  Biso   1.000  H
  H2086    1.0000 0.12645  0.36528  0.79378  Biso   1.000  H
  H2087    1.0000 0.13173  0.37438  0.82024  Biso   1.000  H
  H2088    1.0000 0.67937  0.84887  0.81395  Biso   1.000  H
  H2089    1.0000 0.15278  0.29298  0.77989  Biso   1.000  H
  H2090    1.0000 0.12783  0.30168  0.76977  Biso   1.000  H
  H2091    1.0000 0.15077  0.33835  0.74502  Biso   1.000  H
  H2092    1.0000 0.34621  0.32491  0.88505  Biso   1.000  H
  H2093    1.0000 0.33337  0.75310  0.29748  Biso   1.000  H
  H2094    1.0000 0.33917  0.77971  0.30499  Biso   1.000  H
  H2095    1.0000 0.22691  0.78292  0.24685  Biso   1.000  H
  H2096    1.0000 0.24511  0.82575  0.26468  Biso   1.000  H
  H2097    1.0000 0.06753  0.45459  0.93560  Biso   1.000  H
  H2098    1.0000 0.09288  0.48498  0.96573  Biso   1.000  H
  H2099    1.0000 0.08820  0.40651  0.94242  Biso   1.000  H
  H2100    1.0000 0.09447  0.39855  0.91607  Biso   1.000  H
  H2101    1.0000 0.11186  0.36652  0.96026  Biso   1.000  H
  H2102    1.0000 0.68466  0.89778  0.93329  Biso   1.000  H
  H2103    1.0000 0.66893  0.88117  0.91640  Biso   1.000  H
  H2104    1.0000 0.17119  0.41267  0.97046  Biso   1.000  H
  H2105    1.0000 0.14655  0.40281  0.97976  Biso   1.000  H
  H2106    1.0000 0.34755  0.42799  0.87213  Biso   1.000  H
  H2107    1.0000 0.33830  0.24810  0.80860  Biso   1.000  H
  H2108    1.0000 0.34372  0.27526  0.81419  Biso   1.000  H
  H2109    1.0000 0.22590  0.28060  0.74819  Biso   1.000  H
  H2110    1.0000 0.24451  0.32382  0.76442  Biso   1.000  H
  H2111    1.0000 0.05868  0.96465  0.44377  Biso   1.000  H
  H2112    1.0000 0.10504  0.97640  0.45753  Biso   1.000  H
  H2113    1.0000 0.08350  0.90146  0.44034  Biso   1.000  H
  H2114    1.0000 0.09073  0.89247  0.41423  Biso   1.000  H
  H2115    1.0000 0.11578  0.86912  0.46025  Biso   1.000  H
  H2116    1.0000 0.67213  0.40407  0.43921  Biso   1.000  H
  H2117    1.0000 0.65681  0.38742  0.42192  Biso   1.000  H
  H2118    1.0000 0.13689  0.94563  0.50403  Biso   1.000  H
  H2119    1.0000 0.17046  0.91370  0.47016  Biso   1.000  H
  H2120    1.0000 0.14590  0.90333  0.47909  Biso   1.000  H
  H2121    1.0000 0.83314  0.75286  0.79658  Biso   1.000  H
  H2122    1.0000 0.83900  0.77954  0.80384  Biso   1.000  H
  H2123    1.0000 0.72216  0.79314  0.74046  Biso   1.000  H
  H2124    1.0000 0.75295  0.81460  0.77321  Biso   1.000  H
  H2125    1.0000 0.56376  0.45703  0.43789  Biso   1.000  H
  H2126    1.0000 0.58336  0.40234  0.44081  Biso   1.000  H
  H2127    1.0000 0.59038  0.39311  0.41473  Biso   1.000  H
  H2128    1.0000 0.61569  0.37007  0.46075  Biso   1.000  H
  H2129    1.0000 0.18423  0.89846  0.43306  Biso   1.000  H
  H2130    1.0000 0.16853  0.88201  0.41597  Biso   1.000  H
  H2131    1.0000 0.65726  0.45970  0.48429  Biso   1.000  H
  H2132    1.0000 0.67442  0.41290  0.48308  Biso   1.000  H
  H2133    1.0000 0.64950  0.40354  0.49249  Biso   1.000  H
  H2134    1.0000 0.85004  0.41343  0.37060  Biso   1.000  H
  H2135    1.0000 0.83592  0.24928  0.30146  Biso   1.000  H
  H2136    1.0000 0.84180  0.27647  0.30722  Biso   1.000  H
  H2137    1.0000 0.72661  0.28204  0.24846  Biso   1.000  H
  H2138    1.0000 0.74490  0.32565  0.26402  Biso   1.000  H
  H2139    1.0000 0.55858  0.96478  0.94423  Biso   1.000  H
  H2140    1.0000 0.60590  0.97501  0.95583  Biso   1.000  H
  H2141    1.0000 0.58407  0.90036  0.94071  Biso   1.000  H
  H2142    1.0000 0.59142  0.89122  0.91472  Biso   1.000  H
  H2143    1.0000 0.61652  0.86843  0.96102  Biso   1.000  H
  H2144    1.0000 0.16826  0.41086  0.93741  Biso   1.000  H
  H2145    1.0000 0.15188  0.39420  0.92163  Biso   1.000  H
  H2146    1.0000 0.67068  0.91285  0.97008  Biso   1.000  H
  H2147    1.0000 0.64638  0.90218  0.97947  Biso   1.000  H
  H2148    1.0000 0.84782  0.93608  0.86863  Biso   1.000  H
  H2149    1.0000 0.40840  0.24339  0.92918  Biso   1.000  H
  H2150    1.0000 0.50119  0.31786  0.97995  Biso   1.000  H
  H2151    1.0000 0.68326  0.95611  0.31382  Biso   1.000  H
  H2152    1.0000 0.66558  0.88051  0.33462  Biso   1.000  H
  H2153    1.0000 0.62713  0.88243  0.29206  Biso   1.000  H
  H2154    1.0000 0.61902  0.87452  0.31793  Biso   1.000  H
  H2155    1.0000 0.07268  0.40067  0.31501  Biso   1.000  H
  H2156    1.0000 0.08916  0.38482  0.33137  Biso   1.000  H
  H2157    1.0000 0.61362  0.94543  0.24759  Biso   1.000  H
  H2158    1.0000 0.57936  0.91232  0.27959  Biso   1.000  H
  H2159    1.0000 0.60382  0.90208  0.27024  Biso   1.000  H
  H2160    1.0000 0.40078  0.92899  0.38334  Biso   1.000  H
  H2161    1.0000 0.40883  0.74499  0.43069  Biso   1.000  H
  H2162    1.0000 0.51858  0.77919  0.49634  Biso   1.000  H
  H2163    1.0000 0.68213  0.45560  0.81391  Biso   1.000  H
  H2164    1.0000 0.66377  0.39059  0.83504  Biso   1.000  H
  H2165    1.0000 0.63118  0.37438  0.79080  Biso   1.000  H
  H2166    1.0000 0.62427  0.36624  0.81707  Biso   1.000  H
  H2167    1.0000 0.07215  0.90125  0.81399  Biso   1.000  H
  H2168    1.0000 0.08867  0.88531  0.83028  Biso   1.000  H
  H2169    1.0000 0.58976  0.45664  0.76306  Biso   1.000  H
  H2170    1.0000 0.61448  0.44771  0.75224  Biso   1.000  H
  H2171    1.0000 0.60261  0.40083  0.76416  Biso   1.000  H
  H2172    1.0000 0.40325  0.43789  0.88155  Biso   1.000  H
  H2173    1.0000 0.90825  0.24370  0.42838  Biso   1.000  H
  H2174    1.0000 0.00161  0.31818  0.48019  Biso   1.000  H
  H2175    1.0000 0.17127  0.98538  0.78433  Biso   1.000  H
  H2176    1.0000 0.17225  0.88833  0.80413  Biso   1.000  H
  H2177    1.0000 0.12405  0.88251  0.79309  Biso   1.000  H
  H2178    1.0000 0.11887  0.87486  0.81997  Biso   1.000  H
  H2179    1.0000 0.57192  0.39988  0.81421  Biso   1.000  H
  H2180    1.0000 0.58835  0.38414  0.83070  Biso   1.000  H
  H2181    1.0000 0.09183  0.95832  0.76782  Biso   1.000  H
  H2182    1.0000 0.11662  0.94973  0.75740  Biso   1.000  H
  H2183    1.0000 0.10230  0.90227  0.76249  Biso   1.000  H
  H2184    1.0000 0.90268  0.93057  0.88431  Biso   1.000  H
  H2185    1.0000 0.90872  0.74525  0.92872  Biso   1.000  H
  H2186    1.0000 0.18286  0.45586  0.31416  Biso   1.000  H
  H2187    1.0000 0.16419  0.39034  0.33613  Biso   1.000  H
  H2188    1.0000 0.13127  0.37397  0.29217  Biso   1.000  H
  H2189    1.0000 0.12469  0.36577  0.31849  Biso   1.000  H
  H2190    1.0000 0.57498  0.90219  0.31398  Biso   1.000  H
  H2191    1.0000 0.59105  0.88646  0.33132  Biso   1.000  H
  H2192    1.0000 0.08882  0.45577  0.26246  Biso   1.000  H
  H2193    1.0000 0.11357  0.44683  0.25189  Biso   1.000  H
  H2194    1.0000 0.10248  0.40028  0.26569  Biso   1.000  H
  H2195    1.0000 0.89339  0.45082  0.37377  Biso   1.000  H
  H2196    1.0000 0.49976  0.44479  0.83811  Biso   1.000  H
  H2197    1.0000 0.47272  0.43899  0.84359  Biso   1.000  H
  H2198    1.0000 0.47298  0.49709  0.73496  Biso   1.000  H
  H2199    1.0000 0.42325  0.49398  0.73422  Biso   1.000  H
  H2200    1.0000 0.79348  0.81658  0.57087  Biso   1.000  H
  H2201    1.0000 0.85795  0.80551  0.57915  Biso   1.000  H
  H2202    1.0000 0.86862  0.79163  0.62573  Biso   1.000  H
  H2203    1.0000 0.87697  0.81785  0.63170  Biso   1.000  H
  H2204    1.0000 0.34773  0.81163  0.17280  Biso   1.000  H
  H2205    1.0000 0.36357  0.82903  0.15678  Biso   1.000  H
  H2206    1.0000 0.79209  0.77097  0.65760  Biso   1.000  H
  H2207    1.0000 0.79998  0.76133  0.63197  Biso   1.000  H
  H2208    1.0000 0.84544  0.75140  0.65011  Biso   1.000  H
  H2209    1.0000 0.81675  0.88113  0.84828  Biso   1.000  H
  H2210    1.0000 0.49374  0.95680  0.31201  Biso   1.000  H
  H2211    1.0000 0.46641  0.00294  0.22686  Biso   1.000  H
  H2212    1.0000 0.77549  0.29534  0.10498  Biso   1.000  H
  H2213    1.0000 0.85084  0.30851  0.08027  Biso   1.000  H
  H2214    1.0000 0.87455  0.29074  0.12027  Biso   1.000  H
  H2215    1.0000 0.88270  0.31689  0.12715  Biso   1.000  H
  H2216    1.0000 0.36628  0.33240  0.66581  Biso   1.000  H
  H2217    1.0000 0.80106  0.25135  0.13418  Biso   1.000  H
  H2218    1.0000 0.83896  0.26972  0.17313  Biso   1.000  H
  H2219    1.0000 0.84799  0.26026  0.14826  Biso   1.000  H
  H2220    1.0000 0.81383  0.38086  0.34755  Biso   1.000  H
  H2221    1.0000 0.99785  0.45404  0.33424  Biso   1.000  H
  H2222    1.0000 0.97318  0.49775  0.23498  Biso   1.000  H
  H2223    1.0000 0.92351  0.49364  0.23497  Biso   1.000  H
  H2224    1.0000 0.29377  0.81425  0.06717  Biso   1.000  H
  H2225    1.0000 0.35154  0.80797  0.08133  Biso   1.000  H
  H2226    1.0000 0.37618  0.79003  0.12068  Biso   1.000  H
  H2227    1.0000 0.38506  0.81609  0.12707  Biso   1.000  H
  H2228    1.0000 0.85165  0.81621  0.68137  Biso   1.000  H
  H2229    1.0000 0.86771  0.83356  0.66559  Biso   1.000  H
  H2230    1.0000 0.29135  0.77181  0.15419  Biso   1.000  H
  H2231    1.0000 0.30143  0.76103  0.12988  Biso   1.000  H
  H2232    1.0000 0.33463  0.76121  0.17669  Biso   1.000  H
  H2233    1.0000 0.31654  0.88136  0.34877  Biso   1.000  H
  H2234    1.0000 0.99364  0.95792  0.81394  Biso   1.000  H
  H2235    1.0000 0.96968  0.00080  0.73095  Biso   1.000  H
  H2236    1.0000 0.29203  0.31468  0.56765  Biso   1.000  H
  H2237    1.0000 0.34997  0.30871  0.58066  Biso   1.000  H
  H2238    1.0000 0.37526  0.29067  0.61954  Biso   1.000  H
  H2239    1.0000 0.38331  0.31684  0.62652  Biso   1.000  H
  H2240    1.0000 0.84918  0.31549  0.17956  Biso   1.000  H
  H2241    1.0000 0.86556  0.33274  0.16406  Biso   1.000  H
  H2242    1.0000 0.29262  0.26164  0.66075  Biso   1.000  H
  H2243    1.0000 0.30100  0.25257  0.63502  Biso   1.000  H
  H2244    1.0000 0.34858  0.25846  0.64862  Biso   1.000  H
  H2245    1.0000 0.33537  0.37993  0.85126  Biso   1.000  H
  H2246    1.0000 0.97477  0.81198  0.90586  Biso   1.000  H
  H2247    1.0000 0.92744  0.76777  0.00375  Biso   1.000  H
  H2248    1.0000 0.29875  0.43114  0.17057  Biso   1.000  H
  H2249    1.0000 0.26257  0.46533  0.17127  Biso   1.000  H
  H2250    1.0000 0.36505  0.41629  0.16440  Biso   1.000  H
  H2251    1.0000 0.36899  0.45903  0.12634  Biso   1.000  H
  H2252    1.0000 0.37729  0.43311  0.11914  Biso   1.000  H
  H2253    1.0000 0.85216  0.42359  0.55387  Biso   1.000  H
  H2254    1.0000 0.29927  0.49390  0.11697  Biso   1.000  H
  H2255    1.0000 0.33840  0.48018  0.07733  Biso   1.000  H
  H2256    1.0000 0.34676  0.48950  0.10246  Biso   1.000  H
  H2257    1.0000 0.99844  0.29780  0.41596  Biso   1.000  H
  H2258    1.0000 0.92817  0.26733  0.50467  Biso   1.000  H
  H2259    1.0000 0.26860  0.95919  0.65149  Biso   1.000  H
  H2260    1.0000 0.34264  0.94326  0.66119  Biso   1.000  H
  H2261    1.0000 0.38380  0.95989  0.63875  Biso   1.000  H
  H2262    1.0000 0.39092  0.93319  0.63199  Biso   1.000  H
  H2263    1.0000 0.85074  0.93200  0.06566  Biso   1.000  H
  H2264    1.0000 0.86764  0.91590  0.08179  Biso   1.000  H
  H2265    1.0000 0.30286  0.99932  0.61512  Biso   1.000  H
  H2266    1.0000 0.33998  0.97752  0.57731  Biso   1.000  H
  H2267    1.0000 0.34920  0.98647  0.60223  Biso   1.000  H
  H2268    1.0000 0.47557  0.81605  0.40429  Biso   1.000  H
  H2269    1.0000 0.43423  0.77251  0.49889  Biso   1.000  H
  H2270    1.0000 0.79838  0.43107  0.66780  Biso   1.000  H
  H2271    1.0000 0.76236  0.46532  0.67069  Biso   1.000  H
  H2272    1.0000 0.86441  0.41669  0.66292  Biso   1.000  H
  H2273    1.0000 0.86880  0.45939  0.62484  Biso   1.000  H
  H2274    1.0000 0.87683  0.43334  0.61765  Biso   1.000  H
  H2275    1.0000 0.35146  0.42288  0.05500  Biso   1.000  H
  H2276    1.0000 0.79942  0.49468  0.61616  Biso   1.000  H
  H2277    1.0000 0.83885  0.48130  0.57670  Biso   1.000  H
  H2278    1.0000 0.84701  0.49078  0.60184  Biso   1.000  H
  H2279    1.0000 0.82092  0.36643  0.40261  Biso   1.000  H
  H2280    1.0000 0.49879  0.29733  0.91560  Biso   1.000  H
  H2281    1.0000 0.42800  0.26759  0.00477  Biso   1.000  H
  H2282    1.0000 0.79474  0.93611  0.18371  Biso   1.000  H
  H2283    1.0000 0.76419  0.96533  0.15744  Biso   1.000  H
  H2284    1.0000 0.85071  0.94200  0.17066  Biso   1.000  H
  H2285    1.0000 0.87594  0.95975  0.13157  Biso   1.000  H
  H2286    1.0000 0.88387  0.93357  0.12471  Biso   1.000  H
  H2287    1.0000 0.36555  0.92009  0.58819  Biso   1.000  H
  H2288    1.0000 0.82773  0.95899  0.08853  Biso   1.000  H
  H2289    1.0000 0.83614  0.96823  0.11354  Biso   1.000  H
  H2290    1.0000 0.24696  0.94698  0.41018  Biso   1.000  H
  H2291    1.0000 0.32781  0.99306  0.51379  Biso   1.000  H
  H2292    1.0000 0.98381  0.28587  0.65738  Biso   1.000  H
  H2293    1.0000 0.88998  0.30526  0.67061  Biso   1.000  H
  H2294    1.0000 0.88125  0.29138  0.62363  Biso   1.000  H
  H2295    1.0000 0.87334  0.31757  0.61726  Biso   1.000  H
  H2296    1.0000 0.39994  0.31734  0.06554  Biso   1.000  H
  H2297    1.0000 0.95009  0.25545  0.61686  Biso   1.000  H
  H2298    1.0000 0.91197  0.26930  0.57634  Biso   1.000  H
  H2299    1.0000 0.90298  0.25946  0.60111  Biso   1.000  H
  H2300    1.0000 0.93879  0.38161  0.40275  Biso   1.000  H
  H2301    1.0000 0.25264  0.45444  0.91796  Biso   1.000  H
  H2302    1.0000 0.27812  0.49825  0.01586  Biso   1.000  H
  H2303    1.0000 0.32751  0.49188  0.01366  Biso   1.000  H
  H2304    1.0000 0.98529  0.78496  0.15645  Biso   1.000  H
  H2305    1.0000 0.89158  0.80429  0.17109  Biso   1.000  H
  H2306    1.0000 0.88313  0.79139  0.12377  Biso   1.000  H
  H2307    1.0000 0.87536  0.81776  0.11787  Biso   1.000  H
  H2308    1.0000 0.41145  0.81279  0.58365  Biso   1.000  H
  H2309    1.0000 0.39461  0.82926  0.59915  Biso   1.000  H
  H2310    1.0000 0.95068  0.75465  0.11548  Biso   1.000  H
  H2311    1.0000 0.91176  0.77058  0.07650  Biso   1.000  H
  H2312    1.0000 0.90326  0.76033  0.10128  Biso   1.000  H
  H2313    1.0000 0.93633  0.88334  0.90217  Biso   1.000  H
  H2314    1.0000 0.74761  0.94703  0.91036  Biso   1.000  H
  H2315    1.0000 0.82819  0.99198  0.01311  Biso   1.000  H
  H2316    1.0000 0.48462  0.28515  0.15784  Biso   1.000  H
  H2317    1.0000 0.39082  0.30468  0.17130  Biso   1.000  H
  H2318    1.0000 0.38191  0.29123  0.12422  Biso   1.000  H
  H2319    1.0000 0.37409  0.31750  0.11809  Biso   1.000  H
  H2320    1.0000 0.89987  0.31717  0.56496  Biso   1.000  H
  H2321    1.0000 0.45043  0.25503  0.11680  Biso   1.000  H
  H2322    1.0000 0.41202  0.26969  0.07683  Biso   1.000  H
  H2323    1.0000 0.40320  0.25966  0.10159  Biso   1.000  H
  H2324    1.0000 0.44013  0.38095  0.90227  Biso   1.000  H
  H2325    1.0000 0.74683  0.44694  0.41088  Biso   1.000  H
  H2326    1.0000 0.77803  0.49771  0.51380  Biso   1.000  H
  H2327    1.0000 0.82769  0.49352  0.51316  Biso   1.000  H
  H2328    1.0000 0.48148  0.79024  0.65217  Biso   1.000  H
  H2329    1.0000 0.39727  0.80707  0.67046  Biso   1.000  H
  H2330    1.0000 0.37432  0.79112  0.62926  Biso   1.000  H
  H2331    1.0000 0.36643  0.81772  0.62331  Biso   1.000  H
  H2332    1.0000 0.89894  0.82587  0.05807  Biso   1.000  H
  H2333    1.0000 0.88323  0.84296  0.07424  Biso   1.000  H
  H2334    1.0000 0.44746  0.74736  0.61355  Biso   1.000  H
  H2335    1.0000 0.41367  0.77735  0.57816  Biso   1.000  H
  H2336    1.0000 0.40340  0.76800  0.60255  Biso   1.000  H
  H2337    1.0000 0.45013  0.87786  0.39775  Biso   1.000  H
  H2338    1.0000 0.75035  0.29978  0.33538  Biso   1.000  H
  H2339    1.0000 0.78270  0.24537  0.22759  Biso   1.000  H
  H2340    1.0000 0.45574  0.93621  0.06530  Biso   1.000  H
  H2341    1.0000 0.48492  0.96383  0.09464  Biso   1.000  H
  H2342    1.0000 0.39586  0.94277  0.08127  Biso   1.000  H
  H2343    1.0000 0.38767  0.91633  0.08802  Biso   1.000  H
  H2344    1.0000 0.37372  0.96015  0.12234  Biso   1.000  H
  H2345    1.0000 0.89941  0.93315  0.68415  Biso   1.000  H
  H2346    1.0000 0.45817  0.98502  0.15860  Biso   1.000  H
  H2347    1.0000 0.44821  0.99424  0.13393  Biso   1.000  H
  H2348    1.0000 0.41174  0.97653  0.17446  Biso   1.000  H
  H2349    1.0000 0.41408  0.87377  0.35336  Biso   1.000  H
  H2350    1.0000 0.75131  0.79710  0.83450  Biso   1.000  H
  H2351    1.0000 0.77922  0.75007  0.73054  Biso   1.000  H
  H2352    1.0000 0.45704  0.43645  0.56469  Biso   1.000  H
  H2353    1.0000 0.48334  0.46311  0.59743  Biso   1.000  H
  H2354    1.0000 0.38418  0.41638  0.58770  Biso   1.000  H
  H2355    1.0000 0.37969  0.45984  0.62487  Biso   1.000  H
  H2356    1.0000 0.37072  0.43413  0.63225  Biso   1.000  H
  H2357    1.0000 0.89932  0.43333  0.18471  Biso   1.000  H
  H2358    1.0000 0.45029  0.49090  0.63210  Biso   1.000  H
  H2359    1.0000 0.41228  0.48173  0.67407  Biso   1.000  H
  H2360    1.0000 0.40349  0.49182  0.64936  Biso   1.000  H
  H2361    1.0000 0.42376  0.37012  0.84833  Biso   1.000  H
  H2362    1.0000 0.24618  0.30370  0.84041  Biso   1.000  H
  H2363    1.0000 0.27786  0.25118  0.73614  Biso   1.000  H
  H2364    1.0000 0.32748  0.25583  0.73664  Biso   1.000  H
  H2365    1.0000 0.95551  0.93621  0.56562  Biso   1.000  H
  H2366    1.0000 0.98551  0.96484  0.59312  Biso   1.000  H
  H2367    1.0000 0.89535  0.94323  0.58014  Biso   1.000  H
  H2368    1.0000 0.88667  0.91685  0.58674  Biso   1.000  H
  H2369    1.0000 0.87553  0.96037  0.62247  Biso   1.000  H
  H2370    1.0000 0.40126  0.93525  0.17990  Biso   1.000  H
  H2371    1.0000 0.92911  0.95706  0.65775  Biso   1.000  H
  H2372    1.0000 0.92937  0.86908  0.84705  Biso   1.000  H
  H2373    1.0000 0.25069  0.79887  0.33533  Biso   1.000  H
  H2374    1.0000 0.32660  0.75681  0.23724  Biso   1.000  H
  H2375    1.0000 0.95908  0.43752  0.06448  Biso   1.000  H
  H2376    1.0000 0.98431  0.46320  0.09883  Biso   1.000  H
  H2377    1.0000 0.89245  0.44449  0.07877  Biso   1.000  H
  H2378    1.0000 0.88305  0.45870  0.12552  Biso   1.000  H
  H2379    1.0000 0.87415  0.43280  0.13174  Biso   1.000  H
  H2380    1.0000 0.39823  0.43271  0.68552  Biso   1.000  H
  H2381    1.0000 0.95129  0.49104  0.13189  Biso   1.000  H
  H2382    1.0000 0.91368  0.48373  0.17457  Biso   1.000  H
  H2383    1.0000 0.90482  0.49381  0.14987  Biso   1.000  H
  H2384    1.0000 0.92520  0.37019  0.34817  Biso   1.000  H
  H2385    1.0000 0.34626  0.29060  0.77534  Biso   1.000  H
  H2386    1.0000 0.33910  0.29816  0.79296  Biso   1.000  H
  H2387    1.0000 0.22862  0.23910  0.76657  Biso   1.000  H
  H2388    1.0000 0.21414  0.24946  0.77666  Biso   1.000  H
  H2389    1.0000 0.04507  0.94391  0.45625  Biso   1.000  H
  H2390    1.0000 0.05066  0.93817  0.47514  Biso   1.000  H
  H2391    1.0000 0.07969  0.90419  0.38339  Biso   1.000  H
  H2392    1.0000 0.07256  0.91629  0.39831  Biso   1.000  H
  H2393    1.0000 0.67866  0.94909  0.91000  Biso   1.000  H
  H2394    1.0000 0.67131  0.94462  0.89140  Biso   1.000  H
  H2395    1.0000 0.16865  0.98273  0.46946  Biso   1.000  H
  H2396    1.0000 0.15004  0.99078  0.47142  Biso   1.000  H
  H2397    1.0000 0.35215  0.86620  0.46342  Biso   1.000  H
  H2398    1.0000 0.34691  0.88576  0.46003  Biso   1.000  H
  H2399    1.0000 0.33393  0.78807  0.23963  Biso   1.000  H
  H2400    1.0000 0.34399  0.78553  0.25723  Biso   1.000  H
  H2401    1.0000 0.22307  0.73283  0.27355  Biso   1.000  H
  H2402    1.0000 0.21250  0.74874  0.28091  Biso   1.000  H
  H2403    1.0000 0.06044  0.42947  0.94319  Biso   1.000  H
  H2404    1.0000 0.06751  0.42065  0.96015  Biso   1.000  H
  H2405    1.0000 0.06770  0.43462  0.89644  Biso   1.000  H
  H2406    1.0000 0.07381  0.45218  0.90517  Biso   1.000  H
  H2407    1.0000 0.68315  0.42072  0.37377  Biso   1.000  H
  H2408    1.0000 0.67260  0.40341  0.37027  Biso   1.000  H
  H2409    1.0000 0.16859  0.47985  0.97015  Biso   1.000  H
  H2410    1.0000 0.14836  0.48143  0.97234  Biso   1.000  H
  H2411    1.0000 0.34395  0.35425  0.94850  Biso   1.000  H
  H2412    1.0000 0.33695  0.37357  0.94765  Biso   1.000  H
  H2413    1.0000 0.85687  0.29858  0.26909  Biso   1.000  H
  H2414    1.0000 0.85692  0.31242  0.28428  Biso   1.000  H
  H2415    1.0000 0.73085  0.24209  0.26448  Biso   1.000  H
  H2416    1.0000 0.71592  0.25173  0.27464  Biso   1.000  H
  H2417    1.0000 0.54480  0.94467  0.95757  Biso   1.000  H
  H2418    1.0000 0.55113  0.93879  0.97618  Biso   1.000  H
  H2419    1.0000 0.58003  0.90274  0.88403  Biso   1.000  H
  H2420    1.0000 0.57270  0.91497  0.89873  Biso   1.000  H
  H2421    1.0000 0.17761  0.95013  0.41092  Biso   1.000  H
  H2422    1.0000 0.16988  0.94605  0.39238  Biso   1.000  H
  H2423    1.0000 0.66826  0.98199  0.96845  Biso   1.000  H
  H2424    1.0000 0.65026  0.99133  0.97024  Biso   1.000  H
  H2425    1.0000 0.85287  0.86445  0.96343  Biso   1.000  H
  H2426    1.0000 0.84632  0.88355  0.95993  Biso   1.000  H
  H2427    1.0000 0.85298  0.79297  0.75332  Biso   1.000  H
  H2428    1.0000 0.84683  0.79980  0.73489  Biso   1.000  H
  H2429    1.0000 0.72448  0.73299  0.77120  Biso   1.000  H
  H2430    1.0000 0.71372  0.74880  0.77846  Biso   1.000  H
  H2431    1.0000 0.57192  0.43322  0.40510  Biso   1.000  H
  H2432    1.0000 0.57837  0.45193  0.41052  Biso   1.000  H
  H2433    1.0000 0.20888  0.42653  0.90091  Biso   1.000  H
  H2434    1.0000 0.19957  0.42388  0.88282  Biso   1.000  H
  H2435    1.0000 0.66883  0.48362  0.46946  Biso   1.000  H
  H2436    1.0000 0.64885  0.48675  0.47215  Biso   1.000  H
  H2437    1.0000 0.39010  0.92250  0.26130  Biso   1.000  H
  H2438    1.0000 0.39512  0.91434  0.27945  Biso   1.000  H
  H2439    1.0000 0.64760  0.27170  0.99050  Biso   1.000  H
  H2440    1.0000 0.67474  0.33446  0.90016  Biso   1.000  H
  H2441    1.0000 0.66536  0.34820  0.88843  Biso   1.000  H
  H2442    1.0000 0.57527  0.26603  0.89392  Biso   1.000  H
  H2443    1.0000 0.56060  0.26695  0.90831  Biso   1.000  H
  H2444    1.0000 0.64933  0.77172  0.49198  Biso   1.000  H
  H2445    1.0000 0.65941  0.78709  0.50114  Biso   1.000  H
  H2446    1.0000 0.65362  0.83410  0.41808  Biso   1.000  H
  H2447    1.0000 0.63979  0.84541  0.40793  Biso   1.000  H
  H2448    1.0000 0.57492  0.76588  0.39538  Biso   1.000  H
  H2449    1.0000 0.56034  0.76733  0.40984  Biso   1.000  H
  H2450    1.0000 0.89977  0.95852  0.77243  Biso   1.000  H
  H2451    1.0000 0.90506  0.95081  0.79060  Biso   1.000  H
  H2452    1.0000 0.16887  0.26857  0.49409  Biso   1.000  H
  H2453    1.0000 0.17548  0.28696  0.50032  Biso   1.000  H
  H2454    1.0000 0.18060  0.33036  0.38702  Biso   1.000  H
  H2455    1.0000 0.16716  0.34572  0.38694  Biso   1.000  H
  H2456    1.0000 0.07602  0.26294  0.39465  Biso   1.000  H
  H2457    1.0000 0.06153  0.26632  0.40885  Biso   1.000  H
  H2458    1.0000 0.93492  0.46669  0.28190  Biso   1.000  H
  H2459    1.0000 0.93584  0.45308  0.29725  Biso   1.000  H
  H2460    1.0000 0.19750  0.81889  0.96782  Biso   1.000  H
  H2461    1.0000 0.20200  0.81155  0.94912  Biso   1.000  H
  H2462    1.0000 0.17328  0.83525  0.90240  Biso   1.000  H
  H2463    1.0000 0.16485  0.84857  0.88948  Biso   1.000  H
  H2464    1.0000 0.07492  0.76437  0.89487  Biso   1.000  H
  H2465    1.0000 0.06018  0.76586  0.90917  Biso   1.000  H
  H2466    1.0000 0.89472  0.81651  0.96471  Biso   1.000  H
  H2467    1.0000 0.89372  0.80279  0.98001  Biso   1.000  H
  H2468    1.0000 0.18613  0.43317  0.36182  Biso   1.000  H
  H2469    1.0000 0.18312  0.45339  0.35991  Biso   1.000  H
  H2470    1.0000 0.59287  0.41572  0.87784  Biso   1.000  H
  H2471    1.0000 0.57624  0.42760  0.87647  Biso   1.000  H
  H2472    1.0000 0.10028  0.48956  0.28108  Biso   1.000  H
  H2473    1.0000 0.08172  0.48136  0.28303  Biso   1.000  H
  H2474    1.0000 0.89394  0.31317  0.46527  Biso   1.000  H
  H2475    1.0000 0.89414  0.29907  0.48021  Biso   1.000  H
  H2476    1.0000 0.16775  0.90500  0.86691  Biso   1.000  H
  H2477    1.0000 0.18070  0.92076  0.86778  Biso   1.000  H
  H2478    1.0000 0.58052  0.90782  0.38241  Biso   1.000  H
  H2479    1.0000 0.57107  0.92556  0.37812  Biso   1.000  H
  H2480    1.0000 0.13239  0.96648  0.82868  Biso   1.000  H
  H2481    1.0000 0.11769  0.95241  0.83178  Biso   1.000  H
  H2482    1.0000 0.39435  0.82117  0.46817  Biso   1.000  H
  H2483    1.0000 0.39153  0.81088  0.48576  Biso   1.000  H
  H2484    1.0000 0.50232  0.75980  0.41115  Biso   1.000  H
  H2485    1.0000 0.51144  0.77478  0.42176  Biso   1.000  H
  H2486    1.0000 0.68536  0.43321  0.86068  Biso   1.000  H
  H2487    1.0000 0.68256  0.45350  0.85928  Biso   1.000  H
  H2488    1.0000 0.09395  0.41614  0.37863  Biso   1.000  H
  H2489    1.0000 0.07738  0.42812  0.37737  Biso   1.000  H
  H2490    1.0000 0.58214  0.51376  0.79743  Biso   1.000  H
  H2491    1.0000 0.56564  0.50204  0.80039  Biso   1.000  H
  H2492    1.0000 0.39465  0.31294  0.96506  Biso   1.000  H
  H2493    1.0000 0.39450  0.29912  0.98026  Biso   1.000  H
  H2494    1.0000 0.61135  0.92436  0.38188  Biso   1.000  H
  H2495    1.0000 0.61257  0.94391  0.38786  Biso   1.000  H
  H2496    1.0000 0.09310  0.91634  0.87784  Biso   1.000  H
  H2497    1.0000 0.07641  0.92813  0.87660  Biso   1.000  H
  H2498    1.0000 0.63176  0.96459  0.33126  Biso   1.000  H
  H2499    1.0000 0.61633  0.95149  0.33491  Biso   1.000  H
  H2500    1.0000 0.84193  0.44994  0.45818  Biso   1.000  H
  H2501    1.0000 0.84973  0.45628  0.47600  Biso   1.000  H
  H2502    1.0000 0.55537  0.82207  0.78546  Biso   1.000  H
  H2503    1.0000 0.55407  0.81695  0.80533  Biso   1.000  H
  H2504    1.0000 0.56937  0.82846  0.86684  Biso   1.000  H
  H2505    1.0000 0.58126  0.84282  0.87532  Biso   1.000  H
  H2506    1.0000 0.65026  0.76338  0.77789  Biso   1.000  H
  H2507    1.0000 0.67019  0.76690  0.78034  Biso   1.000  H
  H2508    1.0000 0.85349  0.91150  0.96970  Biso   1.000  H
  H2509    1.0000 0.85996  0.92024  0.98711  Biso   1.000  H
  H2510    1.0000 0.55331  0.32087  0.28454  Biso   1.000  H
  H2511    1.0000 0.54896  0.31323  0.30315  Biso   1.000  H
  H2512    1.0000 0.57323  0.33419  0.35143  Biso   1.000  H
  H2513    1.0000 0.58058  0.34658  0.36601  Biso   1.000  H
  H2514    1.0000 0.65112  0.25962  0.28000  Biso   1.000  H
  H2515    1.0000 0.67032  0.26602  0.28216  Biso   1.000  H
  H2516    1.0000 0.35688  0.43303  0.96684  Biso   1.000  H
  H2517    1.0000 0.35804  0.44650  0.98233  Biso   1.000  H
  H2518    1.0000 0.05517  0.82284  0.28535  Biso   1.000  H
  H2519    1.0000 0.05400  0.81790  0.30528  Biso   1.000  H
  H2520    1.0000 0.06885  0.82957  0.36584  Biso   1.000  H
  H2521    1.0000 0.08072  0.84398  0.37426  Biso   1.000  H
  H2522    1.0000 0.15085  0.76295  0.27856  Biso   1.000  H
  H2523    1.0000 0.17067  0.76667  0.28139  Biso   1.000  H
  H2524    1.0000 0.34064  0.95114  0.45844  Biso   1.000  H
  H2525    1.0000 0.34837  0.95758  0.47628  Biso   1.000  H
  H2526    1.0000 0.05236  0.32093  0.78354  Biso   1.000  H
  H2527    1.0000 0.04799  0.31345  0.80220  Biso   1.000  H
  H2528    1.0000 0.07657  0.33612  0.84740  Biso   1.000  H
  H2529    1.0000 0.08532  0.34948  0.86008  Biso   1.000  H
  H2530    1.0000 0.68058  0.32490  0.37843  Biso   1.000  H
  H2531    1.0000 0.67004  0.34201  0.38274  Biso   1.000  H
  H2532    1.0000 0.18889  0.26627  0.84040  Biso   1.000  H
  H2533    1.0000 0.17422  0.26472  0.85476  Biso   1.000  H
  H2534    1.0000 0.36715  0.13175  0.95912  Biso   1.000  H
  H2535    1.0000 0.38144  0.12465  0.97187  Biso   1.000  H
  H2536    1.0000 0.39519  0.17064  0.97143  Biso   1.000  H
  H2537    1.0000 0.40593  0.18704  0.97728  Biso   1.000  H
  H2538    1.0000 0.34636  0.61422  0.42368  Biso   1.000  H
  H2539    1.0000 0.34727  0.62075  0.44313  Biso   1.000  H
  H2540    1.0000 0.90651  0.15350  0.44586  Biso   1.000  H
  H2541    1.0000 0.92275  0.16587  0.44732  Biso   1.000  H
  H2542    1.0000 0.39404  0.67048  0.47054  Biso   1.000  H
  H2543    1.0000 0.40820  0.68387  0.46467  Biso   1.000  H
  H2544    1.0000 0.33481  0.22567  0.76532  Biso   1.000  H
  H2545    1.0000 0.34291  0.24103  0.75435  Biso   1.000  H
  H2546    1.0000 0.95803  0.06534  0.42267  Biso   1.000  H
  H2547    1.0000 0.94445  0.05468  0.43370  Biso   1.000  H
  H2548    1.0000 0.84623  0.11546  0.42447  Biso   1.000  H
  H2549    1.0000 0.84819  0.12279  0.44353  Biso   1.000  H
  H2550    1.0000 0.89541  0.17200  0.47181  Biso   1.000  H
  H2551    1.0000 0.90650  0.18799  0.47814  Biso   1.000  H
  H2552    1.0000 0.84618  0.61503  0.92373  Biso   1.000  H
  H2553    1.0000 0.84730  0.62188  0.94305  Biso   1.000  H
  H2554    1.0000 0.40795  0.15228  0.94608  Biso   1.000  H
  H2555    1.0000 0.42365  0.16532  0.94765  Biso   1.000  H
  H2556    1.0000 0.89369  0.67061  0.97029  Biso   1.000  H
  H2557    1.0000 0.90812  0.68268  0.96243  Biso   1.000  H
  H2558    1.0000 0.34303  0.50716  0.99646  Biso   1.000  H
  H2559    1.0000 0.33533  0.52385  0.98730  Biso   1.000  H
  H2560    1.0000 0.94576  0.69352  0.31830  Biso   1.000  H
  H2561    1.0000 0.95897  0.68162  0.32838  Biso   1.000  H
  H2562    1.0000 0.91077  0.67257  0.29716  Biso   1.000  H
  H2563    1.0000 0.90665  0.67864  0.31631  Biso   1.000  H
  H2564    1.0000 0.90796  0.60476  0.23209  Biso   1.000  H
  H2565    1.0000 0.90365  0.58572  0.23838  Biso   1.000  H
  H2566    1.0000 0.94275  0.40841  0.39679  Biso   1.000  H
  H2567    1.0000 0.94228  0.41543  0.37755  Biso   1.000  H
  H2568    1.0000 0.34316  0.00851  0.49655  Biso   1.000  H
  H2569    1.0000 0.33504  0.02446  0.48646  Biso   1.000  H
  H2570    1.0000 0.90518  0.17666  0.79913  Biso   1.000  H
  H2571    1.0000 0.89654  0.18290  0.81669  Biso   1.000  H
  H2572    1.0000 0.90545  0.10644  0.73271  Biso   1.000  H
  H2573    1.0000 0.90109  0.08753  0.73931  Biso   1.000  H
  H2574    1.0000 0.93750  0.91010  0.89605  Biso   1.000  H
  H2575    1.0000 0.93116  0.91724  0.87804  Biso   1.000  H
  H2576    1.0000 0.84299  0.50901  0.49592  Biso   1.000  H
  H2577    1.0000 0.83478  0.52476  0.48562  Biso   1.000  H
  H2578    1.0000 0.44519  0.69354  0.81912  Biso   1.000  H
  H2579    1.0000 0.45905  0.68202  0.82871  Biso   1.000  H
  H2580    1.0000 0.40520  0.67673  0.79882  Biso   1.000  H
  H2581    1.0000 0.39707  0.68280  0.81669  Biso   1.000  H
  H2582    1.0000 0.45901  0.62419  0.78081  Biso   1.000  H
  H2583    1.0000 0.44301  0.63585  0.77554  Biso   1.000  H
  H2584    1.0000 0.44488  0.40757  0.89614  Biso   1.000  H
  H2585    1.0000 0.44385  0.41465  0.87692  Biso   1.000  H
  H2586    1.0000 0.84339  0.00744  0.99573  Biso   1.000  H
  H2587    1.0000 0.83531  0.02376  0.98621  Biso   1.000  H
  H2588    1.0000 0.40543  0.17631  0.29887  Biso   1.000  H
  H2589    1.0000 0.39710  0.18276  0.31650  Biso   1.000  H
  H2590    1.0000 0.90142  0.60949  0.31578  Biso   1.000  H
  H2591    1.0000 0.89793  0.61689  0.33463  Biso   1.000  H
  H2592    1.0000 0.40438  0.10516  0.23374  Biso   1.000  H
  H2593    1.0000 0.40007  0.08643  0.24086  Biso   1.000  H
  H2594    1.0000 0.46036  0.90174  0.38827  Biso   1.000  H
  H2595    1.0000 0.45770  0.90730  0.36876  Biso   1.000  H
  H2596    1.0000 0.90597  0.00987  0.75489  Biso   1.000  H
  H2597    1.0000 0.91484  0.02628  0.76302  Biso   1.000  H
  H2598    1.0000 0.29164  0.18370  0.42201  Biso   1.000  H
  H2599    1.0000 0.30530  0.19448  0.43280  Biso   1.000  H
  H2600    1.0000 0.39530  0.11686  0.44437  Biso   1.000  H
  H2601    1.0000 0.39852  0.12187  0.42468  Biso   1.000  H
  H2602    1.0000 0.84982  0.60881  0.43349  Biso   1.000  H
  H2603    1.0000 0.85341  0.61658  0.41483  Biso   1.000  H
  H2604    1.0000 0.35848  0.08784  0.49644  Biso   1.000  H
  H2605    1.0000 0.35588  0.10655  0.50440  Biso   1.000  H
  H2606    1.0000 0.90799  0.50917  0.25193  Biso   1.000  H
  H2607    1.0000 0.91604  0.52510  0.26210  Biso   1.000  H
  H2608    1.0000 0.36089  0.68590  0.93278  Biso   1.000  H
  H2609    1.0000 0.35975  0.68319  0.95311  Biso   1.000  H
  H2610    1.0000 0.36029  0.58897  0.99334  Biso   1.000  H
  H2611    1.0000 0.79091  0.18321  0.92248  Biso   1.000  H
  H2612    1.0000 0.80414  0.19445  0.93334  Biso   1.000  H
  H2613    1.0000 0.89446  0.11623  0.94308  Biso   1.000  H
  H2614    1.0000 0.89768  0.12146  0.92344  Biso   1.000  H
  H2615    1.0000 0.35173  0.55005  0.93806  Biso   1.000  H
  H2616    1.0000 0.36896  0.56046  0.93393  Biso   1.000  H
  H2617    1.0000 0.85788  0.08739  0.99752  Biso   1.000  H
  H2618    1.0000 0.49271  0.40517  0.78780  Biso   1.000  H
  H2619    1.0000 0.51106  0.41301  0.79182  Biso   1.000  H
  H2620    1.0000 0.40776  0.51018  0.75059  Biso   1.000  H
  H2621    1.0000 0.41599  0.52593  0.76088  Biso   1.000  H
  H2622    1.0000 0.84423  0.68039  0.43104  Biso   1.000  H
  H2623    1.0000 0.84953  0.68190  0.45076  Biso   1.000  H
  H2624    1.0000 0.78501  0.61724  0.49229  Biso   1.000  H
  H2625    1.0000 0.79934  0.63031  0.49874  Biso   1.000  H
  H2626    1.0000 0.81049  0.40740  0.35404  Biso   1.000  H
  H2627    1.0000 0.81744  0.41465  0.37177  Biso   1.000  H
  H2628    1.0000 0.80470  0.55487  0.81667  Biso   1.000  H
  H2629    1.0000 0.79117  0.56568  0.82760  Biso   1.000  H
  H2630    1.0000 0.90359  0.61398  0.82618  Biso   1.000  H
  H2631    1.0000 0.90242  0.62087  0.80686  Biso   1.000  H
  H2632    1.0000 0.85628  0.67378  0.76938  Biso   1.000  H
  H2633    1.0000 0.84201  0.68857  0.76990  Biso   1.000  H
  H2634    1.0000 0.90372  0.11474  0.32654  Biso   1.000  H
  H2635    1.0000 0.90267  0.12161  0.30722  Biso   1.000  H
  H2636    1.0000 0.38198  0.67042  0.34512  Biso   1.000  H
  H2637    1.0000 0.37842  0.68018  0.32734  Biso   1.000  H
  H2638    1.0000 0.78544  0.17343  0.25771  Biso   1.000  H
  H2639    1.0000 0.78347  0.15515  0.24868  Biso   1.000  H
  H2640    1.0000 0.30879  0.56059  0.32135  Biso   1.000  H
  H2641    1.0000 0.29128  0.56674  0.32981  Biso   1.000  H
  H2642    1.0000 0.38091  0.64046  0.32831  Biso   1.000  H
  H2643    1.0000 0.38196  0.64289  0.30811  Biso   1.000  H
  H2644    1.0000 0.35188  0.67720  0.25907  Biso   1.000  H
  H2645    1.0000 0.33727  0.69064  0.26441  Biso   1.000  H
  H2646    1.0000 0.25866  0.10028  0.77159  Biso   1.000  H
  H2647    1.0000 0.24982  0.09047  0.78735  Biso   1.000  H
  H2648    1.0000 0.40340  0.11686  0.82598  Biso   1.000  H
  H2649    1.0000 0.40158  0.12390  0.80679  Biso   1.000  H
  H2650    1.0000 0.88223  0.66785  0.84328  Biso   1.000  H
  H2651    1.0000 0.87857  0.67875  0.82622  Biso   1.000  H
  H2652    1.0000 0.28505  0.17443  0.75882  Biso   1.000  H
  H2653    1.0000 0.28222  0.15581  0.75074  Biso   1.000  H
  H2654    1.0000 0.30826  0.76638  0.35976  Biso   1.000  H
  H2655    1.0000 0.31856  0.78394  0.35746  Biso   1.000  H
  H2656    1.0000 0.27872  0.82803  0.23970  Biso   1.000  H
  H2657    1.0000 0.26684  0.83792  0.25310  Biso   1.000  H
  H2658    1.0000 0.97529  0.48705  0.10841  Biso   1.000  H
  H2659    1.0000 0.95767  0.49550  0.10262  Biso   1.000  H
  H2660    1.0000 0.93190  0.42014  0.08722  Biso   1.000  H
  H2661    1.0000 0.95154  0.42030  0.09311  Biso   1.000  H
  H2662    1.0000 0.99648  0.46354  0.17580  Biso   1.000  H
  H2663    1.0000 0.29060  0.27329  0.85049  Biso   1.000  H
  H2664    1.0000 0.30035  0.29095  0.84803  Biso   1.000  H
  H2665    1.0000 0.23702  0.26745  0.72667  Biso   1.000  H
  H2666    1.0000 0.25630  0.27113  0.72117  Biso   1.000  H
  H2667    1.0000 0.97770  0.99031  0.60074  Biso   1.000  H
  H2668    1.0000 0.95779  0.99491  0.60153  Biso   1.000  H
  H2669    1.0000 0.93354  0.90523  0.57097  Biso   1.000  H
  H2670    1.0000 0.95261  0.90971  0.57705  Biso   1.000  H
  H2671    1.0000 0.98972  0.97265  0.65013  Biso   1.000  H
  H2672    1.0000 0.98899  0.96966  0.67040  Biso   1.000  H
  H2673    1.0000 0.80954  0.76625  0.85942  Biso   1.000  H
  H2674    1.0000 0.81979  0.78381  0.85681  Biso   1.000  H
  H2675    1.0000 0.78782  0.80929  0.75108  Biso   1.000  H
  H2676    1.0000 0.77940  0.81966  0.76666  Biso   1.000  H
  H2677    1.0000 0.47475  0.48735  0.60641  Biso   1.000  H
  H2678    1.0000 0.45614  0.49464  0.60248  Biso   1.000  H
  H2679    1.0000 0.43127  0.42072  0.58909  Biso   1.000  H
  H2680    1.0000 0.45109  0.42033  0.59429  Biso   1.000  H
  H2681    1.0000 0.47490  0.39476  0.67236  Biso   1.000  H
  H2682    1.0000 0.46414  0.40918  0.68203  Biso   1.000  H
  H2683    1.0000 0.80191  0.26974  0.35719  Biso   1.000  H
  H2684    1.0000 0.81561  0.28497  0.35660  Biso   1.000  H
  H2685    1.0000 0.73797  0.26861  0.22715  Biso   1.000  H
  H2686    1.0000 0.75754  0.27198  0.22246  Biso   1.000  H
  H2687    1.0000 0.47645  0.98860  0.10379  Biso   1.000  H
  H2688    1.0000 0.45645  0.99304  0.10414  Biso   1.000  H
  H2689    1.0000 0.43393  0.90494  0.07064  Biso   1.000  H
  H2690    1.0000 0.45317  0.90919  0.07629  Biso   1.000  H
  H2691    1.0000 0.48479  0.97172  0.14858  Biso   1.000  H
  H2692    1.0000 0.48230  0.96934  0.16874  Biso   1.000  H
  H2693    1.0000 0.31872  0.90192  0.60966  Biso   1.000  H
  H2694    1.0000 0.33750  0.89781  0.61682  Biso   1.000  H
  H2695    1.0000 0.25536  0.97242  0.59805  Biso   1.000  H
  H2696    1.0000 0.25875  0.96832  0.57822  Biso   1.000  H
  H2697    1.0000 0.26877  0.49245  0.17117  Biso   1.000  H
  H2698    1.0000 0.28736  0.49869  0.17716  Biso   1.000  H
  H2699    1.0000 0.30798  0.37017  0.10638  Biso   1.000  H
  H2700    1.0000 0.32757  0.36609  0.11019  Biso   1.000  H
  H2701    1.0000 0.28048  0.45858  0.12465  Biso   1.000  H
  H2702    1.0000 0.27500  0.44272  0.13639  Biso   1.000  H
  H2703    1.0000 0.39869  0.44128  0.90874  Biso   1.000  H
  H2704    1.0000 0.37961  0.44308  0.91614  Biso   1.000  H
  H2705    1.0000 0.77163  0.99108  0.15039  Biso   1.000  H
  H2706    1.0000 0.80680  0.86013  0.11260  Biso   1.000  H
  H2707    1.0000 0.82686  0.86418  0.11196  Biso   1.000  H
  H2708    1.0000 0.74871  0.96866  0.09579  Biso   1.000  H
  H2709    1.0000 0.75754  0.96671  0.07738  Biso   1.000  H
  H2710    1.0000 0.89592  0.92743  0.91056  Biso   1.000  H
  H2711    1.0000 0.87673  0.92844  0.91734  Biso   1.000  H
  H2712    1.0000 0.76865  0.49242  0.67110  Biso   1.000  H
  H2713    1.0000 0.78741  0.49841  0.67680  Biso   1.000  H
  H2714    1.0000 0.80752  0.37098  0.60445  Biso   1.000  H
  H2715    1.0000 0.82706  0.36671  0.60839  Biso   1.000  H
  H2716    1.0000 0.80435  0.89946  0.06071  Biso   1.000  H
  H2717    1.0000 0.80530  0.88838  0.07796  Biso   1.000  H
  H2718    1.0000 0.78029  0.45882  0.62391  Biso   1.000  H
  H2719    1.0000 0.77477  0.44283  0.63544  Biso   1.000  H
  H2720    1.0000 0.88281  0.46215  0.39685  Biso   1.000  H
  H2721    1.0000 0.86280  0.45972  0.40080  Biso   1.000  H
  H2722    1.0000 0.80123  0.95914  0.90428  Biso   1.000  H
  H2723    1.0000 0.79143  0.97676  0.90166  Biso   1.000  H
  H2724    1.0000 0.44274  0.40189  0.12675  Biso   1.000  H
  H2725    1.0000 0.42364  0.40346  0.13406  Biso   1.000  H
  H2726    1.0000 0.41472  0.87732  0.56157  Biso   1.000  H
  H2727    1.0000 0.39674  0.87884  0.57132  Biso   1.000  H
  H2728    1.0000 0.50619  0.35384  0.10656  Biso   1.000  H
  H2729    1.0000 0.49935  0.35639  0.08740  Biso   1.000  H
  H2730    1.0000 0.80034  0.45923  0.40412  Biso   1.000  H
  H2731    1.0000 0.79228  0.47729  0.39955  Biso   1.000  H
  H2732    1.0000 0.44353  0.88739  0.61023  Biso   1.000  H
  H2733    1.0000 0.42577  0.89513  0.61703  Biso   1.000  H
  H2734    1.0000 0.49006  0.83440  0.56041  Biso   1.000  H
  H2735    1.0000 0.49614  0.84897  0.57364  Biso   1.000  H
  H2736    1.0000 0.30078  0.95983  0.40333  Biso   1.000  H
  H2737    1.0000 0.28978  0.97691  0.40282  Biso   1.000  H
  H2738    1.0000 0.24307  0.95645  0.54457  Biso   1.000  H
  H2739    1.0000 0.22812  0.96652  0.53488  Biso   1.000  H
  H2740    1.0000 0.94176  0.40278  0.62758  Biso   1.000  H
  H2741    1.0000 0.92245  0.40397  0.63440  Biso   1.000  H
  H2742    1.0000 0.93784  0.85648  0.10469  Biso   1.000  H
  H2743    1.0000 0.92425  0.87160  0.10357  Biso   1.000  H
  H2744    1.0000 0.99705  0.35744  0.58720  Biso   1.000  H
  H2745    1.0000 0.85362  0.30500  0.40644  Biso   1.000  H
  H2746    1.0000 0.87284  0.30536  0.41369  Biso   1.000  H
  H2747    1.0000 0.29743  0.49752  0.89809  Biso   1.000  H
  H2748    1.0000 0.30309  0.51570  0.90581  Biso   1.000  H
  H2749    1.0000 0.24268  0.45445  0.04443  Biso   1.000  H
  H2750    1.0000 0.22756  0.46434  0.03480  Biso   1.000  H
  H2751    1.0000 0.94346  0.89863  0.12159  Biso   1.000  H
  H2752    1.0000 0.92532  0.90248  0.13030  Biso   1.000  H
  H2753    1.0000 0.81743  0.82875  0.59152  Biso   1.000  H
  H2754    1.0000 0.79778  0.82949  0.59747  Biso   1.000  H
  H2755    1.0000 0.81854  0.37584  0.17076  Biso   1.000  H
  H2756    1.0000 0.83786  0.38179  0.16694  Biso   1.000  H
  H2757    1.0000 0.74542  0.85561  0.64548  Biso   1.000  H
  H2758    1.0000 0.75353  0.85791  0.66418  Biso   1.000  H
  H2759    1.0000 0.50143  0.97189  0.21285  Biso   1.000  H
  H2760    1.0000 0.51658  0.97980  0.22412  Biso   1.000  H
  H2761    1.0000 0.82567  0.38411  0.13879  Biso   1.000  H
  H2762    1.0000 0.80622  0.39029  0.13715  Biso   1.000  H
  H2763    1.0000 0.81795  0.87405  0.66780  Biso   1.000  H
  H2764    1.0000 0.83694  0.88106  0.66433  Biso   1.000  H
  H2765    1.0000 0.75080  0.29758  0.11927  Biso   1.000  H
  H2766    1.0000 0.75860  0.28326  0.13166  Biso   1.000  H
  H2767    1.0000 0.93331  0.46620  0.35740  Biso   1.000  H
  H2768    1.0000 0.94641  0.48195  0.35835  Biso   1.000  H
  H2769    1.0000 0.00804  0.45191  0.20710  Biso   1.000  H
  H2770    1.0000 0.02347  0.46190  0.21614  Biso   1.000  H
  H2771    1.0000 0.33385  0.86102  0.06864  Biso   1.000  H
  H2772    1.0000 0.34662  0.87288  0.07945  Biso   1.000  H
  H2773    1.0000 0.25383  0.86136  0.14329  Biso   1.000  H
  H2774    1.0000 0.26782  0.86368  0.15809  Biso   1.000  H
  H2775    1.0000 0.94689  0.96193  0.84544  Biso   1.000  H
  H2776    1.0000 0.95213  0.98033  0.85242  Biso   1.000  H
  H2777    1.0000 0.33089  0.36217  0.56991  Biso   1.000  H
  H2778    1.0000 0.34350  0.37445  0.58044  Biso   1.000  H
  H2779    1.0000 0.32856  0.87662  0.18176  Biso   1.000  H
  H2780    1.0000 0.34549  0.88049  0.17076  Biso   1.000  H
  H2781    1.0000 0.24414  0.35361  0.64584  Biso   1.000  H
  H2782    1.0000 0.25085  0.35513  0.66516  Biso   1.000  H
  H2783    1.0000 0.01709  0.48194  0.66529  Biso   1.000  H
  H2784    1.0000 0.01285  0.50154  0.66093  Biso   1.000  H
  H2785    1.0000 0.68249  0.31409  0.10927  Biso   1.000  H
  H2786    1.0000 0.70280  0.31667  0.10803  Biso   1.000  H
  H2787    1.0000 0.67398  0.93031  0.62695  Biso   1.000  H
  H2788    1.0000 0.65645  0.92035  0.63093  Biso   1.000  H
  H2789    1.0000 0.75040  0.39283  0.10804  Biso   1.000  H
  H2790    1.0000 0.74260  0.41167  0.10993  Biso   1.000  H
  H2791    1.0000 0.63602  0.59688  0.04029  Biso   1.000  H
  H2792    1.0000 0.61630  0.60167  0.03722  Biso   1.000  H
  H2793    1.0000 0.71348  0.84322  0.50102  Biso   1.000  H
  H2794    1.0000 0.72804  0.85384  0.51085  Biso   1.000  H
  H2795    1.0000 0.68158  0.83792  0.58066  Biso   1.000  H
  H2796    1.0000 0.70115  0.84408  0.58055  Biso   1.000  H
  H2797    1.0000 0.75285  0.89426  0.60803  Biso   1.000  H
  H2798    1.0000 0.74171  0.91121  0.61104  Biso   1.000  H
  H2799    1.0000 0.63310  0.09626  0.54019  Biso   1.000  H
  H2800    1.0000 0.61320  0.10075  0.53794  Biso   1.000  H
  H2801    1.0000 0.51332  0.47660  0.16491  Biso   1.000  H
  H2802    1.0000 0.50400  0.49320  0.15721  Biso   1.000  H
  H2803    1.0000 0.18146  0.34076  0.57987  Biso   1.000  H
  H2804    1.0000 0.20124  0.34622  0.58070  Biso   1.000  H
  H2805    1.0000 0.25038  0.39376  0.60987  Biso   1.000  H
  H2806    1.0000 0.23805  0.40979  0.61321  Biso   1.000  H
  H2807    1.0000 0.13480  0.59955  0.53972  Biso   1.000  H
  H2808    1.0000 0.11514  0.60452  0.53661  Biso   1.000  H
  H2809    1.0000 0.50002  0.96424  0.67268  Biso   1.000  H
  H2810    1.0000 0.49012  0.97850  0.66176  Biso   1.000  H
  H2811    1.0000 0.20638  0.85374  0.00668  Biso   1.000  H
  H2812    1.0000 0.22639  0.85404  0.01078  Biso   1.000  H
  H2813    1.0000 0.18301  0.83886  0.07976  Biso   1.000  H
  H2814    1.0000 0.20264  0.84476  0.07960  Biso   1.000  H
  H2815    1.0000 0.17179  0.43180  0.62887  Biso   1.000  H
  H2816    1.0000 0.15466  0.42105  0.63258  Biso   1.000  H
  H2817    1.0000 0.25764  0.89518  0.10204  Biso   1.000  H
  H2818    1.0000 0.25120  0.91451  0.10411  Biso   1.000  H
  H2819    1.0000 0.13510  0.09645  0.04062  Biso   1.000  H
  H2820    1.0000 0.11542  0.10116  0.03720  Biso   1.000  H
  H2821    1.0000 0.75224  0.78805  0.21985  Biso   1.000  H
  H2822    1.0000 0.76759  0.77725  0.22798  Biso   1.000  H
  H2823    1.0000 0.09480  0.92003  0.62299  Biso   1.000  H
  H2824    1.0000 0.08052  0.93159  0.61392  Biso   1.000  H
  H2825    1.0000 0.75109  0.28819  0.71947  Biso   1.000  H
  H2826    1.0000 0.76584  0.27705  0.72825  Biso   1.000  H
  H2827    1.0000 0.07846  0.43285  0.04247  Biso   1.000  H
  H2828    1.0000 0.06776  0.44333  0.05645  Biso   1.000  H
  H2829    1.0000 0.05698  0.37497  0.15237  Biso   1.000  H
  H2830    1.0000 0.07604  0.38232  0.15427  Biso   1.000  H
  H2831    1.0000 0.07453  0.82044  0.62772  Biso   1.000  H
  H2832    1.0000 0.09199  0.83056  0.63159  Biso   1.000  H
  H2833    1.0000 0.00245  0.33655  0.10778  Biso   1.000  H
  H2834    1.0000 0.25144  0.78818  0.71816  Biso   1.000  H
  H2835    1.0000 0.26678  0.77735  0.72627  Biso   1.000  H
  H2836    1.0000 0.59623  0.91760  0.11899  Biso   1.000  H
  H2837    1.0000 0.58047  0.93052  0.11914  Biso   1.000  H
  H2838    1.0000 0.48962  0.87270  0.05049  Biso   1.000  H
  H2839    1.0000 0.49384  0.85777  0.03701  Biso   1.000  H
  H2840    1.0000 0.25128  0.28755  0.22148  Biso   1.000  H
  H2841    1.0000 0.26616  0.27627  0.22982  Biso   1.000  H
  H2842    1.0000 0.57654  0.43282  0.54191  Biso   1.000  H
  H2843    1.0000 0.56523  0.44427  0.55458  Biso   1.000  H
  H2844    1.0000 0.55619  0.37526  0.65165  Biso   1.000  H
  H2845    1.0000 0.57533  0.38241  0.65342  Biso   1.000  H
  H2846    1.0000 0.49656  0.35557  0.60708  Biso   1.000  H
  H2847    1.0000 0.50786  0.33875  0.61021  Biso   1.000  H
  H2848    1.0000 0.48413  0.27605  0.51848  Biso   1.000  H
  H2849    1.0000 0.49843  0.28785  0.52722  Biso   1.000  H
  H2850    1.0000 0.19251  0.35707  0.11814  Biso   1.000  H
  H2851    1.0000 0.17233  0.35887  0.12034  Biso   1.000  H
  H2852    1.0000 0.23827  0.32333  0.14691  Biso   1.000  H
  H2853    1.0000 0.23415  0.30955  0.16160  Biso   1.000  H
  H2854    1.0000 0.48312  0.77819  0.02456  Biso   1.000  H
  H2855    1.0000 0.49815  0.78910  0.03320  Biso   1.000  H
  H2856    1.0000 0.18269  0.94674  0.69568  Biso   1.000  H
  H2857    1.0000 0.17763  0.94500  0.71555  Biso   1.000  H
  H2858    1.0000 0.19267  0.85776  0.61672  Biso   1.000  H
  H2859    1.0000 0.17247  0.85930  0.61950  Biso   1.000  H
  H2860    1.0000 0.15627  0.32847  0.11909  Biso   1.000  H
  H2861    1.0000 0.17407  0.31902  0.12318  Biso   1.000  H
  H2862    1.0000 0.21819  0.85189  0.64276  Biso   1.000  H
  H2863    1.0000 0.23541  0.86271  0.64136  Biso   1.000  H
  H2864    1.0000 0.69173  0.35837  0.61574  Biso   1.000  H
  H2865    1.0000 0.67169  0.35962  0.61927  Biso   1.000  H
  H2866    1.0000 0.64725  0.82166  0.12011  Biso   1.000  H
  H2867    1.0000 0.66423  0.81034  0.12196  Biso   1.000  H
  H2868    1.0000 0.73727  0.32361  0.64499  Biso   1.000  H
  H2869    1.0000 0.73348  0.30968  0.65963  Biso   1.000  H
  H2870    1.0000 0.98275  0.77725  0.52104  Biso   1.000  H
  H2871    1.0000 0.99712  0.78875  0.53004  Biso   1.000  H
  H2872    1.0000 0.69571  0.95461  0.20881  Biso   1.000  H
  H2873    1.0000 0.68972  0.94806  0.22732  Biso   1.000  H
  H2874    1.0000 0.65187  0.91551  0.13909  Biso   1.000  H
  H2875    1.0000 0.66620  0.92811  0.14619  Biso   1.000  H
  H2876    1.0000 0.65605  0.32923  0.61795  Biso   1.000  H
  H2877    1.0000 0.67382  0.31972  0.62199  Biso   1.000  H
  H2878    1.0000 0.74876  0.86249  0.21374  Biso   1.000  H
  H2879    1.0000 0.75035  0.87790  0.20033  Biso   1.000  H
  H2880    1.0000 0.21422  0.00060  0.05932  Biso   1.000  H
  H2881    1.0000 0.22334  0.01516  0.07051  Biso   1.000  H
  H2882    1.0000 0.57651  0.89095  0.62010  Biso   1.000  H
  H2883    1.0000 0.55636  0.89229  0.61716  Biso   1.000  H
  H2884    1.0000 0.53171  0.89685  0.64449  Biso   1.000  H
  H2885    1.0000 0.51384  0.88722  0.64259  Biso   1.000  H
  H2886    1.0000 0.20706  0.58542  0.48844  Biso   1.000  H
  H2887    1.0000 0.20434  0.59966  0.50284  Biso   1.000  H
  H2888    1.0000 0.22466  0.48870  0.58025  Biso   1.000  H
  H2889    1.0000 0.23933  0.49875  0.59050  Biso   1.000  H
  H2890    1.0000 0.52565  0.35983  0.23728  Biso   1.000  H
  H2891    1.0000 0.54425  0.35551  0.24452  Biso   1.000  H
  H2892    1.0000 0.56590  0.31391  0.13943  Biso   1.000  H
  H2893    1.0000 0.54566  0.31711  0.14064  Biso   1.000  H
  H2894    1.0000 0.59377  0.92189  0.61797  Biso   1.000  H
  H2895    1.0000 0.57637  0.93208  0.62197  Biso   1.000  H
  H2896    1.0000 0.50513  0.41234  0.14088  Biso   1.000  H
  H2897    1.0000 0.49711  0.39365  0.14337  Biso   1.000  H
  H2898    1.0000 0.72383  0.98847  0.57818  Biso   1.000  H
  H2899    1.0000 0.02654  0.85869  0.23660  Biso   1.000  H
  H2900    1.0000 0.04480  0.85377  0.24426  Biso   1.000  H
  H2901    1.0000 0.07709  0.88881  0.11771  Biso   1.000  H
  H2902    1.0000 0.05762  0.88759  0.11147  Biso   1.000  H
  H2903    1.0000 0.01083  0.90969  0.13788  Biso   1.000  H
  H2904    1.0000 0.73711  0.47503  0.08486  Biso   1.000  H
  H2905    1.0000 0.74803  0.49037  0.09307  Biso   1.000  H
  H2906    1.0000 0.02523  0.35951  0.73742  Biso   1.000  H
  H2907    1.0000 0.04430  0.35592  0.74375  Biso   1.000  H
  H2908    1.0000 0.07552  0.38882  0.61681  Biso   1.000  H
  H2909    1.0000 0.05584  0.38764  0.61127  Biso   1.000  H
  H2910    1.0000 0.09464  0.92009  0.11739  Biso   1.000  H
  H2911    1.0000 0.07730  0.93047  0.12109  Biso   1.000  H
  H2912    1.0000 0.00311  0.41348  0.64199  Biso   1.000  H
  H2913    1.0000 0.12675  0.58347  0.69235  Biso   1.000  H
  H2914    1.0000 0.14602  0.58857  0.68732  Biso   1.000  H
  H2915    1.0000 0.85810  0.73722  0.52607  Biso   1.000  H
  H2916    1.0000 0.85113  0.74641  0.54287  Biso   1.000  H
  H2917    1.0000 0.85613  0.61124  0.52734  Biso   1.000  H
  H2918    1.0000 0.86966  0.60314  0.54033  Biso   1.000  H
  H2919    1.0000 0.87089  0.70039  0.50150  Biso   1.000  H
  H2920    1.0000 0.88621  0.71401  0.50222  Biso   1.000  H
  H2921    1.0000 0.80119  0.22695  0.05882  Biso   1.000  H
  H2922    1.0000 0.79533  0.20801  0.05356  Biso   1.000  H
  H2923    1.0000 0.87783  0.13143  0.02840  Biso   1.000  H
  H2924    1.0000 0.88488  0.11688  0.04092  Biso   1.000  H
  H2925    1.0000 0.91251  0.14087  0.00471  Biso   1.000  H
  H2926    1.0000 0.35420  0.74104  0.02204  Biso   1.000  H
  H2927    1.0000 0.34368  0.75072  0.03680  Biso   1.000  H
  H2928    1.0000 0.37803  0.63126  0.02885  Biso   1.000  H
  H2929    1.0000 0.38412  0.61608  0.04113  Biso   1.000  H
  H2930    1.0000 0.37206  0.70151  0.00177  Biso   1.000  H
  H2931    1.0000 0.38706  0.71536  0.00386  Biso   1.000  H
  H2932    1.0000 0.29987  0.22562  0.56050  Biso   1.000  H
  H2933    1.0000 0.29506  0.20623  0.55584  Biso   1.000  H
  H2934    1.0000 0.32378  0.14842  0.58489  Biso   1.000  H
  H2935    1.0000 0.33300  0.13603  0.59823  Biso   1.000  H
  H2936    1.0000 0.42445  0.14388  0.51877  Biso   1.000  H
  H2937    1.0000 0.43937  0.15799  0.51963  Biso   1.000  H
  H2938    1.0000 0.15414  0.53942  0.55093  Biso   1.000  H
  H2939    1.0000 0.14869  0.52093  0.54402  Biso   1.000  H
  H2940    1.0000 0.28497  0.53609  0.47746  Biso   1.000  H
  H2941    1.0000 0.29411  0.54619  0.49275  Biso   1.000  H
  H2942    1.0000 0.44844  0.19667  0.18344  Biso   1.000  H
  H2943    1.0000 0.44655  0.21657  0.17865  Biso   1.000  H
  H2944    1.0000 0.41648  0.13321  0.15398  Biso   1.000  H
  H2945    1.0000 0.42947  0.13427  0.16967  Biso   1.000  H
  H2946    1.0000 0.33495  0.19214  0.19849  Biso   1.000  H
  H2947    1.0000 0.35521  0.18915  0.19702  Biso   1.000  H
  H2948    1.0000 0.27144  0.01693  0.98849  Biso   1.000  H
  H2949    1.0000 0.28590  0.02743  0.99848  Biso   1.000  H
  H2950    1.0000 0.41749  0.63192  0.65468  Biso   1.000  H
  H2951    1.0000 0.43057  0.63031  0.67026  Biso   1.000  H
  H2952    1.0000 0.33251  0.71911  0.72895  Biso   1.000  H
  H2953    1.0000 0.35272  0.72113  0.73079  Biso   1.000  H
  H2954    1.0000 0.14873  0.71077  0.61481  Biso   1.000  H
  H2955    1.0000 0.15424  0.70773  0.63431  Biso   1.000  H
  H2956    1.0000 0.94855  0.19795  0.68363  Biso   1.000  H
  H2957    1.0000 0.94626  0.21777  0.67865  Biso   1.000  H
  H2958    1.0000 0.91723  0.13359  0.65381  Biso   1.000  H
  H2959    1.0000 0.93017  0.13527  0.66948  Biso   1.000  H
  H2960    1.0000 0.83500  0.19291  0.69863  Biso   1.000  H
  H2961    1.0000 0.85525  0.19000  0.69705  Biso   1.000  H
  H2962    1.0000 0.65696  0.19415  0.60296  Biso   1.000  H
  H2963    1.0000 0.66419  0.19384  0.62213  Biso   1.000  H
  H2964    1.0000 0.77195  0.01636  0.48970  Biso   1.000  H
  H2965    1.0000 0.78631  0.02700  0.49967  Biso   1.000  H
  H2966    1.0000 0.94877  0.69568  0.18215  Biso   1.000  H
  H2967    1.0000 0.94710  0.71563  0.17747  Biso   1.000  H
  H2968    1.0000 0.91639  0.63346  0.15312  Biso   1.000  H
  H2969    1.0000 0.92978  0.63485  0.16844  Biso   1.000  H
  H2970    1.0000 0.83137  0.71840  0.23304  Biso   1.000  H
  H2971    1.0000 0.85143  0.72093  0.23549  Biso   1.000  H
  H2972    1.0000 0.64848  0.71119  0.11442  Biso   1.000  H
  H2973    1.0000 0.65398  0.70805  0.13391  Biso   1.000  H
  H2974    1.0000 0.65533  0.24321  0.71150  Biso   1.000  H
  H2975    1.0000 0.66434  0.26124  0.70864  Biso   1.000  H
  H2976    1.0000 0.86790  0.64688  0.05565  Biso   1.000  H
  H2977    1.0000 0.87213  0.64884  0.07569  Biso   1.000  H
  H2978    1.0000 0.34602  0.12587  0.08157  Biso   1.000  H
  H2979    1.0000 0.32947  0.12548  0.06948  Biso   1.000  H
  H2980    1.0000 0.82474  0.53570  0.00478  Biso   1.000  H
  H2981    1.0000 0.65160  0.74538  0.20512  Biso   1.000  H
  H2982    1.0000 0.66549  0.76022  0.20734  Biso   1.000  H
  H2983    1.0000 0.78518  0.72615  0.24879  Biso   1.000  H
  H2984    1.0000 0.77009  0.73666  0.25778  Biso   1.000  H
  H2985    1.0000 0.86798  0.14613  0.55571  Biso   1.000  H
  H2986    1.0000 0.87305  0.14893  0.57547  Biso   1.000  H
  H2987    1.0000 0.34970  0.62532  0.58210  Biso   1.000  H
  H2988    1.0000 0.33941  0.62094  0.56504  Biso   1.000  H
  H2989    1.0000 0.88085  0.08175  0.53586  Biso   1.000  H
  H2990    1.0000 0.86510  0.08521  0.54863  Biso   1.000  H
  H2991    1.0000 0.15114  0.24478  0.20696  Biso   1.000  H
  H2992    1.0000 0.16490  0.25975  0.20912  Biso   1.000  H
  H2993    1.0000 0.36886  0.64686  0.55628  Biso   1.000  H
  H2994    1.0000 0.37396  0.64949  0.57604  Biso   1.000  H
  H2995    1.0000 0.84610  0.12610  0.58193  Biso   1.000  H
  H2996    1.0000 0.82944  0.12582  0.56999  Biso   1.000  H
  H2997    1.0000 0.38227  0.54963  0.50644  Biso   1.000  H
  H2998    1.0000 0.36888  0.53488  0.51121  Biso   1.000  H
  H2999    1.0000 0.15134  0.74436  0.70681  Biso   1.000  H
  H3000    1.0000 0.16448  0.75996  0.70812  Biso   1.000  H
  H3001    1.0000 0.28569  0.72571  0.74858  Biso   1.000  H
  H3002    1.0000 0.27091  0.73606  0.75826  Biso   1.000  H
  H3003    1.0000 0.36827  0.14558  0.05556  Biso   1.000  H
  H3004    1.0000 0.37320  0.14854  0.07532  Biso   1.000  H
  H3005    1.0000 0.38137  0.07971  0.03595  Biso   1.000  H
  H3006    1.0000 0.36562  0.08261  0.04885  Biso   1.000  H
  H3007    1.0000 0.34856  0.00897  0.72955  Biso   1.000  H
  H3008    1.0000 0.40539  0.03300  0.75161  Biso   1.000  H
  H3009    1.0000 0.42421  0.03577  0.74400  Biso   1.000  H
  H3010    1.0000 0.50656  0.22954  0.51896  Biso   1.000  H
  H3011    1.0000 0.49481  0.21816  0.53141  Biso   1.000  H
  H3012    1.0000 0.32434  0.50103  0.21343  Biso   1.000  H
  H3013    1.0000 0.33176  0.50755  0.23140  Biso   1.000  H
  H3014    1.0000 0.38918  0.63423  0.17201  Biso   1.000  H
  H3015    1.0000 0.39271  0.63139  0.19189  Biso   1.000  H
  H3016    1.0000 0.91281  0.13127  0.16438  Biso   1.000  H
  H3017    1.0000 0.91579  0.12387  0.18330  Biso   1.000  H
  H3018    1.0000 0.38750  0.60708  0.23368  Biso   1.000  H
  H3019    1.0000 0.40779  0.60931  0.23385  Biso   1.000  H
  H3020    1.0000 0.60175  0.60262  0.11527  Biso   1.000  H
  H3021    1.0000 0.59764  0.59974  0.13522  Biso   1.000  H
  H3022    1.0000 0.87389  0.15241  0.19311  Biso   1.000  H
  H3023    1.0000 0.86710  0.15393  0.17380  Biso   1.000  H
  H3024    1.0000 0.88175  0.03539  0.23842  Biso   1.000  H
  H3025    1.0000 0.86854  0.05000  0.24403  Biso   1.000  H
  H3026    1.0000 0.85025  0.50379  0.70688  Biso   1.000  H
  H3027    1.0000 0.85534  0.51184  0.72489  Biso   1.000  H
  H3028    1.0000 0.88910  0.63225  0.67352  Biso   1.000  H
  H3029    1.0000 0.88855  0.63710  0.69343  Biso   1.000  H
  H3030    1.0000 0.86825  0.57924  0.71514  Biso   1.000  H
  H3031    1.0000 0.88361  0.58215  0.70177  Biso   1.000  H
  H3032    1.0000 0.10320  0.60348  0.61684  Biso   1.000  H
  H3033    1.0000 0.09897  0.59896  0.63647  Biso   1.000  H
  H3034    1.0000 0.50282  0.54548  0.14748  Biso   1.000  H
  H3035    1.0000 0.48439  0.55128  0.15448  Biso   1.000  H
  H3036    1.0000 0.13034  0.18693  0.43487  Biso   1.000  H
  H3037    1.0000 0.12787  0.20678  0.43047  Biso   1.000  H
  H3038    1.0000 0.65611  0.19609  0.84607  Biso   1.000  H
  H3039    1.0000 0.67327  0.19742  0.83495  Biso   1.000  H
  H3040    1.0000 0.15577  0.26243  0.33677  Biso   1.000  H
  H3041    1.0000 0.15988  0.26786  0.35615  Biso   1.000  H
  H3042    1.0000 0.51997  0.05100  0.64363  Biso   1.000  H
  H3043    1.0000 0.53507  0.06487  0.64390  Biso   1.000  H
  H3044    1.0000 0.13967  0.68366  0.93644  Biso   1.000  H
  H3045    1.0000 0.14105  0.70391  0.93345  Biso   1.000  H
  H3046    1.0000 0.64895  0.68880  0.30063  Biso   1.000  H
  H3047    1.0000 0.63176  0.68451  0.31104  Biso   1.000  H
  H3048    1.0000 0.14104  0.74430  0.83821  Biso   1.000  H
  H3049    1.0000 0.14332  0.75225  0.85698  Biso   1.000  H
  H3050    1.0000 0.01575  0.55337  0.64149  Biso   1.000  H
  H3051    1.0000 0.03358  0.56322  0.64355  Biso   1.000  H
  H3052    1.0000 0.65570  0.18134  0.92974  Biso   1.000  H
  H3053    1.0000 0.65037  0.20102  0.93137  Biso   1.000  H
  H3054    1.0000 0.14878  0.18843  0.30164  Biso   1.000  H
  H3055    1.0000 0.13145  0.18387  0.31171  Biso   1.000  H
  H3056    1.0000 0.64194  0.24393  0.83782  Biso   1.000  H
  H3057    1.0000 0.64449  0.25256  0.85623  Biso   1.000  H
  H3058    1.0000 0.02052  0.05041  0.14312  Biso   1.000  H
  H3059    1.0000 0.03559  0.06432  0.14323  Biso   1.000  H
  H3060    1.0000 0.63929  0.68385  0.43628  Biso   1.000  H
  H3061    1.0000 0.64064  0.70412  0.43327  Biso   1.000  H
  H3062    1.0000 0.12800  0.68428  0.83690  Biso   1.000  H
  H3063    1.0000 0.12278  0.66701  0.84648  Biso   1.000  H
  H3064    1.0000 0.64173  0.74652  0.33830  Biso   1.000  H
  H3065    1.0000 0.64396  0.75379  0.35733  Biso   1.000  H
  H3066    1.0000 0.08062  0.22641  0.98613  Biso   1.000  H
  H3067    1.0000 0.09049  0.24080  0.99690  Biso   1.000  H
  H3068    1.0000 0.69367  0.56783  0.80615  Biso   1.000  H
  H3069    1.0000 0.70844  0.57793  0.81610  Biso   1.000  H
  H3070    1.0000 0.64755  0.58303  0.82192  Biso   1.000  H
  H3071    1.0000 0.63298  0.59537  0.82930  Biso   1.000  H
  H3072    1.0000 0.71552  0.50644  0.92357  Biso   1.000  H
  H3073    1.0000 0.71826  0.49907  0.90464  Biso   1.000  H
  H3074    1.0000 0.03334  0.68544  0.60659  Biso   1.000  H
  H3075    1.0000 0.01554  0.69533  0.60875  Biso   1.000  H
  H3076    1.0000 0.69401  0.06772  0.30502  Biso   1.000  H
  H3077    1.0000 0.70813  0.07823  0.31549  Biso   1.000  H
  H3078    1.0000 0.64862  0.08397  0.32138  Biso   1.000  H
  H3079    1.0000 0.63385  0.09619  0.32860  Biso   1.000  H
  H3080    1.0000 0.71534  0.00655  0.42340  Biso   1.000  H
  H3081    1.0000 0.48819  0.21017  0.58491  Biso   1.000  H
  H3082    1.0000 0.50603  0.21273  0.59445  Biso   1.000  H
  H3083    1.0000 0.19445  0.56703  0.30612  Biso   1.000  H
  H3084    1.0000 0.20885  0.57751  0.31624  Biso   1.000  H
  H3085    1.0000 0.14881  0.58316  0.32203  Biso   1.000  H
  H3086    1.0000 0.13404  0.59542  0.32915  Biso   1.000  H
  H3087    1.0000 0.21857  0.51459  0.42065  Biso   1.000  H
  H3088    1.0000 0.22087  0.50854  0.40132  Biso   1.000  H
  H3089    1.0000 0.48858  0.70756  0.08647  Biso   1.000  H
  H3090    1.0000 0.50641  0.70973  0.09611  Biso   1.000  H
  H3091    1.0000 0.19210  0.07106  0.80975  Biso   1.000  H
  H3092    1.0000 0.20955  0.07939  0.81610  Biso   1.000  H
  H3093    1.0000 0.14075  0.08223  0.81823  Biso   1.000  H
  H3094    1.0000 0.13480  0.09726  0.83062  Biso   1.000  H
  H3095    1.0000 0.14212  0.01785  0.88612  Biso   1.000  H
  H3096    1.0000 0.13964  0.01852  0.90639  Biso   1.000  H
  H3097    1.0000 0.71076  0.05159  0.59585  Biso   1.000  H
  H3098    1.0000 0.72955  0.04622  0.60176  Biso   1.000  H
  H3099    1.0000 0.04153  0.67001  0.31628  Biso   1.000  H
  H3100    1.0000 0.05921  0.67825  0.31037  Biso   1.000  H
  H3101    1.0000 0.12598  0.65592  0.32923  Biso   1.000  H
  H3102    1.0000 0.11693  0.67008  0.31746  Biso   1.000  H
  H3103    1.0000 0.59008  0.69413  0.90118  Biso   1.000  H
  H3104    1.0000 0.57396  0.69559  0.91379  Biso   1.000  H
  H3105    1.0000 0.02955  0.74494  0.40266  Biso   1.000  H
  H3106    1.0000 0.03386  0.74210  0.42255  Biso   1.000  H
  H3107    1.0000 0.70887  0.54863  0.09643  Biso   1.000  H
  H3108    1.0000 0.72463  0.53593  0.09426  Biso   1.000  H
  H3109    1.0000 0.10854  0.20494  0.81634  Biso   1.000  H
  H3110    1.0000 0.11044  0.18478  0.81302  Biso   1.000  H
  H3111    1.0000 0.58988  0.19419  0.40184  Biso   1.000  H
  H3112    1.0000 0.57359  0.19550  0.41424  Biso   1.000  H
  H3113    1.0000 0.11114  0.23940  0.90884  Biso   1.000  H
  H3114    1.0000 0.10784  0.25153  0.89263  Biso   1.000  H
  H3115    1.0000 0.05555  0.10233  0.09326  Biso   1.000  H
  H3116    1.0000 0.05453  0.12156  0.08608  Biso   1.000  H
  H3117    1.0000 0.21176  0.05197  0.09631  Biso   1.000  H
  H3118    1.0000 0.23058  0.04583  0.10119  Biso   1.000  H
  H3119    1.0000 0.54133  0.67004  0.81596  Biso   1.000  H
  H3120    1.0000 0.55867  0.67842  0.80929  Biso   1.000  H
  H3121    1.0000 0.62686  0.65513  0.82971  Biso   1.000  H
  H3122    1.0000 0.61795  0.66920  0.81773  Biso   1.000  H
  H3123    1.0000 0.09054  0.69439  0.40141  Biso   1.000  H
  H3124    1.0000 0.07444  0.69567  0.41408  Biso   1.000  H
  H3125    1.0000 0.52955  0.74390  0.90154  Biso   1.000  H
  H3126    1.0000 0.53355  0.74159  0.92157  Biso   1.000  H
  H3127    1.0000 0.55832  0.60218  0.09282  Biso   1.000  H
  H3128    1.0000 0.55710  0.62131  0.08544  Biso   1.000  H
  H3129    1.0000 0.60260  0.20241  0.31748  Biso   1.000  H
  H3130    1.0000 0.59746  0.18260  0.31791  Biso   1.000  H
  H3131    1.0000 0.11459  0.18980  0.92902  Biso   1.000  H
  H3132    1.0000 0.09574  0.19735  0.93210  Biso   1.000  H
  H3133    1.0000 0.60980  0.24185  0.41182  Biso   1.000  H
  H3134    1.0000 0.60728  0.25138  0.39384  Biso   1.000  H
  H3135    1.0000 0.55423  0.10405  0.59469  Biso   1.000  H
  H3136    1.0000 0.55361  0.12339  0.58775  Biso   1.000  H
  H3137    1.0000 0.23102  0.69844  0.64638  Biso   1.000  H
  H3138    1.0000 0.21203  0.69429  0.65255  Biso   1.000  H
  H3139    1.0000 0.65067  0.05661  0.87522  Biso   1.000  H
  H3140    1.0000 0.65255  0.07566  0.88263  Biso   1.000  H
  H3141    1.0000 0.12013  0.06364  0.34051  Biso   1.000  H
  H3142    1.0000 0.12433  0.08072  0.35085  Biso   1.000  H
  H3143    1.0000 0.61085  0.00730  0.83968  Biso   1.000  H
  H3144    1.0000 0.23045  0.20349  0.14728  Biso   1.000  H
  H3145    1.0000 0.21177  0.19659  0.15164  Biso   1.000  H
  H3146    1.0000 0.61595  0.59674  0.41705  Biso   1.000  H
  H3147    1.0000 0.61261  0.58130  0.42990  Biso   1.000  H
  H3148    1.0000 0.12672  0.58846  0.81040  Biso   1.000  H
  H3149    1.0000 0.12806  0.60584  0.82123  Biso   1.000  H
  H3150    1.0000 0.53081  0.51736  0.33126  Biso   1.000  H
  H3151    1.0000 0.52831  0.51385  0.35121  Biso   1.000  H
  H3152    1.0000 0.73159  0.70046  0.14663  Biso   1.000  H
  H3153    1.0000 0.71266  0.69497  0.15183  Biso   1.000  H
  H3154    1.0000 0.14737  0.05607  0.37041  Biso   1.000  H
  H3155    1.0000 0.14990  0.07587  0.37540  Biso   1.000  H
  H3156    1.0000 0.62786  0.07604  0.81991  Biso   1.000  H
  H3157    1.0000 0.63175  0.09344  0.83017  Biso   1.000  H
  H3158    1.0000 0.10905  0.00401  0.33781  Biso   1.000  H
  H3159    1.0000 0.73454  0.19663  0.64135  Biso   1.000  H
  H3160    1.0000 0.71653  0.18710  0.64338  Biso   1.000  H
  H3161    1.0000 0.11360  0.59769  0.91594  Biso   1.000  H
  H3162    1.0000 0.10045  0.58437  0.92388  Biso   1.000  H
  H3163    1.0000 0.14157  0.55673  0.86351  Biso   1.000  H
  H3164    1.0000 0.14693  0.57540  0.87020  Biso   1.000  H
  H3165    1.0000 0.62709  0.58533  0.31183  Biso   1.000  H
  H3166    1.0000 0.62894  0.60341  0.32132  Biso   1.000  H
  H3167    1.0000 0.03189  0.51750  0.83135  Biso   1.000  H
  H3168    1.0000 0.02917  0.51466  0.85137  Biso   1.000  H
  H3169    1.0000 0.65597  0.71252  0.24368  Biso   1.000  H
  H3170    1.0000 0.66393  0.70906  0.26213  Biso   1.000  H
  H3171    1.0000 0.93847  0.07215  0.55938  Biso   1.000  H
  H3172    1.0000 0.93338  0.08019  0.54137  Biso   1.000  H
  H3173    1.0000 0.93187  0.07983  0.61767  Biso   1.000  H
  H3174    1.0000 0.91992  0.09421  0.62605  Biso   1.000  H
  H3175    1.0000 0.85723  0.02601  0.53047  Biso   1.000  H
  H3176    1.0000 0.84206  0.03864  0.53553  Biso   1.000  H
  H3177    1.0000 0.64332  0.17680  0.75382  Biso   1.000  H
  H3178    1.0000 0.65617  0.17590  0.76980  Biso   1.000  H
  H3179    1.0000 0.93966  0.57185  0.05865  Biso   1.000  H
  H3180    1.0000 0.93270  0.58038  0.04147  Biso   1.000  H
  H3181    1.0000 0.93127  0.57995  0.11779  Biso   1.000  H
  H3182    1.0000 0.91905  0.59414  0.12611  Biso   1.000  H
  H3183    1.0000 0.85255  0.51760  0.02882  Biso   1.000  H
  H3184    1.0000 0.83234  0.51901  0.03113  Biso   1.000  H
  H3185    1.0000 0.14351  0.68112  0.71720  Biso   1.000  H
  H3186    1.0000 0.14091  0.69167  0.73467  Biso   1.000  H
  H3187    1.0000 0.43911  0.07132  0.05993  Biso   1.000  H
  H3188    1.0000 0.43361  0.07948  0.04208  Biso   1.000  H
  H3189    1.0000 0.43090  0.07884  0.11833  Biso   1.000  H
  H3190    1.0000 0.41902  0.09340  0.12650  Biso   1.000  H
  H3191    1.0000 0.35678  0.02342  0.02869  Biso   1.000  H
  H3192    1.0000 0.34164  0.03632  0.03303  Biso   1.000  H
  H3193    1.0000 0.15620  0.21290  0.24402  Biso   1.000  H
  H3194    1.0000 0.16319  0.20846  0.26268  Biso   1.000  H
  H3195    1.0000 0.43917  0.57132  0.55903  Biso   1.000  H
  H3196    1.0000 0.43330  0.57978  0.54145  Biso   1.000  H
  H3197    1.0000 0.43130  0.57903  0.61784  Biso   1.000  H
  H3198    1.0000 0.41940  0.59336  0.62636  Biso   1.000  H
  H3199    1.0000 0.81977  0.57507  0.12769  Biso   1.000  H
  H3200    1.0000 0.82957  0.59270  0.13162  Biso   1.000  H
  H3201    1.0000 0.34937  0.51263  0.52909  Biso   1.000  H
  H3202    1.0000 0.32953  0.51615  0.53196  Biso   1.000  H
  H3203    1.0000 0.59981  0.04408  0.72794  Biso   1.000  H
  H3204    1.0000 0.59216  0.05019  0.70996  Biso   1.000  H
  H3205    1.0000 0.31749  0.70394  0.10845  Biso   1.000  H
  H3206    1.0000 0.31429  0.68376  0.11041  Biso   1.000  H
  H3207    1.0000 0.95003  0.68746  0.59999  Biso   1.000  H
  H3208    1.0000 0.93980  0.68331  0.61735  Biso   1.000  H
  H3209    1.0000 0.39335  0.75336  0.10602  Biso   1.000  H
  H3210    1.0000 0.41217  0.74563  0.10849  Biso   1.000  H
  H3211    1.0000 0.60561  0.55389  0.24937  Biso   1.000  H
  H3212    1.0000 0.59514  0.55581  0.26697  Biso   1.000  H
  H3213    1.0000 0.32121  0.18144  0.59157  Biso   1.000  H
  H3214    1.0000 0.31872  0.20098  0.59705  Biso   1.000  H
  H3215    1.0000 0.95916  0.17484  0.09812  Biso   1.000  H
  H3216    1.0000 0.95002  0.17252  0.11636  Biso   1.000  H
  H3217    1.0000 0.39260  0.25474  0.60398  Biso   1.000  H
  H3218    1.0000 0.41157  0.24736  0.60628  Biso   1.000  H
  H3219    1.0000 0.11018  0.07803  0.23872  Biso   1.000  H
  H3220    1.0000 0.10446  0.08700  0.22113  Biso   1.000  H
  H3221    1.0000 0.82396  0.70101  0.59469  Biso   1.000  H
  H3222    1.0000 0.81771  0.68354  0.60355  Biso   1.000  H
  H3223    1.0000 0.45089  0.68635  0.10103  Biso   1.000  H
  H3224    1.0000 0.44049  0.68214  0.11825  Biso   1.000  H
  H3225    1.0000 0.89472  0.76784  0.59227  Biso   1.000  H
  H3226    1.0000 0.91363  0.76127  0.59671  Biso   1.000  H
  H3227    1.0000 0.09765  0.54180  0.72647  Biso   1.000  H
  H3228    1.0000 0.09392  0.55093  0.70863  Biso   1.000  H
  H3229    1.0000 0.81435  0.18436  0.11047  Biso   1.000  H
  H3230    1.0000 0.81758  0.20452  0.10848  Biso   1.000  H
  H3231    1.0000 0.44228  0.19501  0.60106  Biso   1.000  H
  H3232    1.0000 0.42601  0.19441  0.61357  Biso   1.000  H
  H3233    1.0000 0.89333  0.25227  0.10694  Biso   1.000  H
  H3234    1.0000 0.90963  0.24031  0.11032  Biso   1.000  H
  H3235    1.0000 0.09509  0.19756  0.04029  Biso   1.000  H
  H3236    1.0000 0.09914  0.20666  0.02249  Biso   1.000  H
  H3237    1.0000 0.97269  0.26640  0.02058  Biso   1.000  H
  H3238    1.0000 0.96144  0.25145  0.02896  Biso   1.000  H
  H3239    1.0000 0.83181  0.59075  0.61398  Biso   1.000  H
  H3240    1.0000 0.81903  0.57610  0.62009  Biso   1.000  H
  H3241    1.0000 0.42262  0.57108  0.12385  Biso   1.000  H
  H3242    1.0000 0.40628  0.58327  0.12209  Biso   1.000  H
  H3243    1.0000 0.90839  0.53685  0.71682  Biso   1.000  H
  H3244    1.0000 0.89135  0.52636  0.72027  Biso   1.000  H
  H3245    1.0000 0.10595  0.66541  0.53104  Biso   1.000  H
  H3246    1.0000 0.11180  0.67310  0.51293  Biso   1.000  H
  H3247    1.0000 0.80754  0.06884  0.19310  Biso   1.000  H
  H3248    1.0000 0.81699  0.07883  0.20825  Biso   1.000  H
  H3249    1.0000 0.83347  0.09806  0.13675  Biso   1.000  H
  H3250    1.0000 0.82401  0.08450  0.14866  Biso   1.000  H
  H3251    1.0000 0.41975  0.09424  0.61857  Biso   1.000  H
  H3252    1.0000 0.42919  0.07642  0.62268  Biso   1.000  H
  H3253    1.0000 0.92113  0.01505  0.21751  Biso   1.000  H
  H3254    1.0000 0.90196  0.00863  0.21992  Biso   1.000  H
  H3255    1.0000 0.60488  0.16414  0.52958  Biso   1.000  H
  H3256    1.0000 0.61016  0.17327  0.51196  Biso   1.000  H
  H3257    1.0000 0.33096  0.59083  0.11655  Biso   1.000  H
  H3258    1.0000 0.31852  0.57682  0.12450  Biso   1.000  H
  H3259    1.0000 0.91374  0.56592  0.62786  Biso   1.000  H
  H3260    1.0000 0.90419  0.58313  0.62247  Biso   1.000  H
  H3261    1.0000 0.41968  0.51652  0.21933  Biso   1.000  H
  H3262    1.0000 0.39964  0.51385  0.22213  Biso   1.000  H
  H3263    1.0000 0.60695  0.66409  0.02932  Biso   1.000  H
  H3264    1.0000 0.61238  0.67167  0.01103  Biso   1.000  H
  H3265    1.0000 0.38822  0.05741  0.61386  Biso   1.000  H
  H3266    1.0000 0.38881  0.07713  0.61933  Biso   1.000  H
  H3267    1.0000 0.38337  0.04910  0.66775  Biso   1.000  H
  H3268    1.0000 0.36817  0.03555  0.67065  Biso   1.000  H
  H3269    1.0000 0.42796  0.18272  0.15705  Biso   1.000  H
  H3270    1.0000 0.42222  0.20203  0.16062  Biso   1.000  H
  H3271    1.0000 0.84537  0.19663  0.65380  Biso   1.000  H
  H3272    1.0000 0.83478  0.19881  0.67114  Biso   1.000  H
  H3273    1.0000 0.33618  0.25902  0.15115  Biso   1.000  H
  H3274    1.0000 0.35473  0.26634  0.15590  Biso   1.000  H
  H3275    1.0000 0.16097  0.10196  0.18518  Biso   1.000  H
  H3276    1.0000 0.16685  0.12067  0.19134  Biso   1.000  H
  H3277    1.0000 0.14046  0.05636  0.01666  Biso   1.000  H
  H3278    1.0000 0.14351  0.06557  0.03478  Biso   1.000  H
  H3279    1.0000 0.45151  0.68887  0.69876  Biso   1.000  H
  H3280    1.0000 0.44665  0.68121  0.71723  Biso   1.000  H
  H3281    1.0000 0.39355  0.65470  0.65745  Biso   1.000  H
  H3282    1.0000 0.40809  0.66610  0.66639  Biso   1.000  H
  H3283    1.0000 0.83470  0.66297  0.11873  Biso   1.000  H
  H3284    1.0000 0.83129  0.68197  0.12574  Biso   1.000  H
  H3285    1.0000 0.32428  0.74523  0.71282  Biso   1.000  H
  H3286    1.0000 0.34305  0.75293  0.71585  Biso   1.000  H
  H3287    1.0000 0.64025  0.55640  0.01683  Biso   1.000  H
  H3288    1.0000 0.64351  0.56550  0.03498  Biso   1.000  H
  H3289    1.0000 0.92775  0.18335  0.65725  Biso   1.000  H
  H3290    1.0000 0.92178  0.20260  0.66081  Biso   1.000  H
  H3291    1.0000 0.34521  0.19635  0.15376  Biso   1.000  H
  H3292    1.0000 0.33454  0.19849  0.17105  Biso   1.000  H
  H3293    1.0000 0.83555  0.25905  0.65077  Biso   1.000  H
  H3294    1.0000 0.85409  0.26650  0.65535  Biso   1.000  H
  H3295    1.0000 0.65988  0.10277  0.67622  Biso   1.000  H
  H3296    1.0000 0.66691  0.12191  0.67700  Biso   1.000  H
  H3297    1.0000 0.64046  0.05674  0.51515  Biso   1.000  H
  H3298    1.0000 0.64321  0.06606  0.53327  Biso   1.000  H
  H3299    1.0000 0.92891  0.68250  0.15488  Biso   1.000  H
  H3300    1.0000 0.92313  0.70168  0.15909  Biso   1.000  H
  H3301    1.0000 0.34893  0.69395  0.66208  Biso   1.000  H
  H3302    1.0000 0.33575  0.69495  0.67781  Biso   1.000  H
  H3303    1.0000 0.83679  0.76186  0.15305  Biso   1.000  H
  H3304    1.0000 0.85598  0.76761  0.15743  Biso   1.000  H
  H3305    1.0000 0.65949  0.60166  0.18554  Biso   1.000  H
  H3306    1.0000 0.66577  0.62021  0.19177  Biso   1.000  H
  H3307    1.0000 0.21785  0.78368  0.77129  Biso   1.000  H
  H3308    1.0000 0.20800  0.79356  0.75635  Biso   1.000  H
  H3309    1.0000 0.55207  0.95146  0.06108  Biso   1.000  H
  H3310    1.0000 0.53361  0.94687  0.06890  Biso   1.000  H
  H3311    1.0000 0.60050  0.92693  0.08425  Biso   1.000  H
  H3312    1.0000 0.61612  0.92068  0.09604  Biso   1.000  H
  H3313    1.0000 0.12477  0.32764  0.07171  Biso   1.000  H
  H3314    1.0000 0.12515  0.34467  0.08310  Biso   1.000  H
  H3315    1.0000 0.53489  0.86687  0.00905  Biso   1.000  H
  H3316    1.0000 0.54930  0.87970  0.00219  Biso   1.000  H
  H3317    1.0000 0.21876  0.28279  0.27240  Biso   1.000  H
  H3318    1.0000 0.20817  0.29303  0.25821  Biso   1.000  H
  H3319    1.0000 0.64446  0.36679  0.55552  Biso   1.000  H
  H3320    1.0000 0.64763  0.37172  0.57525  Biso   1.000  H
  H3321    1.0000 0.59019  0.31692  0.53544  Biso   1.000  H
  H3322    1.0000 0.60480  0.32870  0.52746  Biso   1.000  H
  H3323    1.0000 0.71561  0.78520  0.27213  Biso   1.000  H
  H3324    1.0000 0.70596  0.79438  0.25660  Biso   1.000  H
  H3325    1.0000 0.05179  0.95129  0.56152  Biso   1.000  H
  H3326    1.0000 0.03334  0.94673  0.56934  Biso   1.000  H
  H3327    1.0000 0.14553  0.86628  0.55478  Biso   1.000  H
  H3328    1.0000 0.14833  0.87080  0.57465  Biso   1.000  H
  H3329    1.0000 0.62184  0.33467  0.56692  Biso   1.000  H
  H3330    1.0000 0.62354  0.34849  0.58186  Biso   1.000  H
  H3331    1.0000 0.10714  0.83648  0.50360  Biso   1.000  H
  H3332    1.0000 0.10493  0.85536  0.49596  Biso   1.000  H
  H3333    1.0000 0.71861  0.28296  0.77102  Biso   1.000  H
  H3334    1.0000 0.70794  0.29316  0.75687  Biso   1.000  H
  H3335    1.0000 0.14438  0.36505  0.05615  Biso   1.000  H
  H3336    1.0000 0.14783  0.37003  0.07582  Biso   1.000  H
  H3337    1.0000 0.60106  0.85777  0.06496  Biso   1.000  H
  H3338    1.0000 0.60430  0.86562  0.08366  Biso   1.000  H
  H3339    1.0000 0.09156  0.31011  0.01977  Biso   1.000  H
  H3340    1.0000 0.10599  0.32476  0.01944  Biso   1.000  H
  H3341    1.0000 0.66187  0.50118  0.01527  Biso   1.000  H
  H3342    1.0000 0.66969  0.48522  0.02529  Biso   1.000  H
  H3343    1.0000 0.14358  0.38444  0.67659  Biso   1.000  H
  H3344    1.0000 0.13600  0.39106  0.69451  Biso   1.000  H
  H3345    1.0000 0.10725  0.38627  0.73431  Biso   1.000  H
  H3346    1.0000 0.10991  0.40598  0.73028  Biso   1.000  H
  H3347    1.0000 0.07119  0.58408  0.62175  Biso   1.000  H
  H3348    1.0000 0.06616  0.59061  0.60317  Biso   1.000  H
  H3349    1.0000 0.68103  0.01585  0.52802  Biso   1.000  H
  H3350    1.0000 0.69150  0.00025  0.53628  Biso   1.000  H
  H3351    1.0000 0.14396  0.88511  0.17604  Biso   1.000  H
  H3352    1.0000 0.13561  0.89170  0.19361  Biso   1.000  H
  H3353    1.0000 0.61093  0.42382  0.19481  Biso   1.000  H
  H3354    1.0000 0.59292  0.43237  0.19929  Biso   1.000  H
  H3355    1.0000 0.10787  0.88754  0.23424  Biso   1.000  H
  H3356    1.0000 0.11006  0.90783  0.23462  Biso   1.000  H
  H3357    1.0000 0.26242  0.58647  0.54193  Biso   1.000  H
  H3358    1.0000 0.24403  0.59422  0.53797  Biso   1.000  H
  H3359    1.0000 0.15723  0.49049  0.50256  Biso   1.000  H
  H3360    1.0000 0.16531  0.47443  0.51250  Biso   1.000  H
  H3361    1.0000 0.59296  0.32248  0.18396  Biso   1.000  H
  H3362    1.0000 0.58894  0.32864  0.20310  Biso   1.000  H
  H3363    1.0000 0.60723  0.38644  0.23375  Biso   1.000  H
  H3364    1.0000 0.61053  0.40653  0.23330  Biso   1.000  H
  H3365    1.0000 0.16852  0.98592  0.02403  Biso   1.000  H
  H3366    1.0000 0.50653  0.85293  0.70831  Biso   1.000  H
  H3367    1.0000 0.51124  0.85201  0.72825  Biso   1.000  H
  H3368    1.0000 0.64198  0.88666  0.67619  Biso   1.000  H
  H3369    1.0000 0.63327  0.89320  0.69359  Biso   1.000  H
  H3370    1.0000 0.11401  0.43138  0.69081  Biso   1.000  H
  H3371    1.0000 0.09523  0.43507  0.69818  Biso   1.000  H
  H3372    1.0000 0.59397  0.89560  0.76776  Biso   1.000  H
  H3373    1.0000 0.59847  0.91443  0.76101  Biso   1.000  H
  H3374    1.0000 0.08595  0.98204  0.23055  Biso   1.000  H
  H3375    1.0000 0.64123  0.81530  0.56753  Biso   1.000  H
  H3376    1.0000 0.64231  0.81793  0.54719  Biso   1.000  H
  H3377    1.0000 0.64522  0.89355  0.49626  Biso   1.000  H
  H3378    1.0000 0.64305  0.91266  0.50331  Biso   1.000  H
  H3379    1.0000 0.68945  0.08302  0.62902  Biso   1.000  H
  H3380    1.0000 0.68340  0.08933  0.64756  Biso   1.000  H
  H3381    1.0000 0.07438  0.46212  0.75187  Biso   1.000  H
  H3382    1.0000 0.08564  0.47535  0.76278  Biso   1.000  H
  H3383    1.0000 0.74914  0.34468  0.03743  Biso   1.000  H
  H3384    1.0000 0.73910  0.35506  0.02285  Biso   1.000  H
  H3385    1.0000 0.66998  0.33705  0.06860  Biso   1.000  H
  H3386    1.0000 0.67018  0.34305  0.04899  Biso   1.000  H
  H3387    1.0000 0.12451  0.94054  0.08805  Biso   1.000  H
  H3388    1.0000 0.12316  0.92967  0.10540  Biso   1.000  H
  H3389    1.0000 0.63859  0.40943  0.01046  Biso   1.000  H
  H3390    1.0000 0.69316  0.58383  0.12905  Biso   1.000  H
  H3391    1.0000 0.69253  0.59113  0.14818  Biso   1.000  H
  H3392    1.0000 0.58378  0.97396  0.73861  Biso   1.000  H
  H3393    1.0000 0.59211  0.98999  0.74841  Biso   1.000  H
  H3394    1.0000 0.14892  0.81789  0.06678  Biso   1.000  H
  H3395    1.0000 0.15656  0.82417  0.04875  Biso   1.000  H
  H3396    1.0000 0.62228  0.42989  0.07676  Biso   1.000  H
  H3397    1.0000 0.61836  0.41941  0.09403  Biso   1.000  H
  H3398    1.0000 0.19424  0.08523  0.12820  Biso   1.000  H
  H3399    1.0000 0.19357  0.09241  0.14740  Biso   1.000  H
  H3400    1.0000 0.57559  0.46319  0.25067  Biso   1.000  H
  H3401    1.0000 0.58660  0.47711  0.26095  Biso   1.000  H
  H3402    1.0000 0.24880  0.34065  0.53851  Biso   1.000  H
  H3403    1.0000 0.23992  0.34746  0.52127  Biso   1.000  H
  H3404    1.0000 0.14628  0.31765  0.56832  Biso   1.000  H
  H3405    1.0000 0.15368  0.32332  0.55001  Biso   1.000  H
  H3406    1.0000 0.15630  0.39418  0.48402  Biso   1.000  H
  H3407    1.0000 0.15198  0.41327  0.49009  Biso   1.000  H
  H3408    1.0000 0.19348  0.58427  0.62721  Biso   1.000  H
  H3409    1.0000 0.19321  0.59104  0.64656  Biso   1.000  H
  H3410    1.0000 0.51998  0.27308  0.48734  Biso   1.000  H
  H3411    1.0000 0.52334  0.27811  0.50684  Biso   1.000  H
  H3412    1.0000 0.21821  0.44575  0.18169  Biso   1.000  H
  H3413    1.0000 0.19958  0.45062  0.18891  Biso   1.000  H
  H3414    1.0000 0.10244  0.36975  0.17572  Biso   1.000  H
  H3415    1.0000 0.10516  0.36522  0.19560  Biso   1.000  H
  H3416    1.0000 0.14282  0.33664  0.24879  Biso   1.000  H
  H3417    1.0000 0.14525  0.35558  0.25625  Biso   1.000  H
  H3418    1.0000 0.51800  0.77094  0.99058  Biso   1.000  H
  H3419    1.0000 0.13511  0.91640  0.65315  Biso   1.000  H
  H3420    1.0000 0.13747  0.92953  0.66858  Biso   1.000  H
  H3421    1.0000 0.15204  0.83507  0.76082  Biso   1.000  H
  H3422    1.0000 0.15649  0.85404  0.76721  Biso   1.000  H
  H3423    1.0000 0.71800  0.44603  0.68042  Biso   1.000  H
  H3424    1.0000 0.69946  0.45098  0.68780  Biso   1.000  H
  H3425    1.0000 0.60243  0.36941  0.67541  Biso   1.000  H
  H3426    1.0000 0.60561  0.36497  0.69524  Biso   1.000  H
  H3427    1.0000 0.12219  0.84507  0.66616  Biso   1.000  H
  H3428    1.0000 0.12745  0.83564  0.68350  Biso   1.000  H
  H3429    1.0000 0.64297  0.33702  0.74770  Biso   1.000  H
  H3430    1.0000 0.64540  0.35602  0.75499  Biso   1.000  H
  H3431    1.0000 0.01777  0.77117  0.48921  Biso   1.000  H
  H3432    1.0000 0.02201  0.77710  0.50828  Biso   1.000  H
  H3433    1.0000 0.65599  0.88447  0.15621  Biso   1.000  H
  H3434    1.0000 0.66818  0.89612  0.16799  Biso   1.000  H
  H3435    1.0000 0.64330  0.83613  0.24692  Biso   1.000  H
  H3436    1.0000 0.64567  0.85482  0.25497  Biso   1.000  H
  H3437    1.0000 0.71646  0.21323  0.75430  Biso   1.000  H
  H3438    1.0000 0.72724  0.22378  0.74032  Biso   1.000  H
  H3439    1.0000 0.06937  0.53313  0.94811  Biso   1.000  H
  H3440    1.0000 0.06192  0.55174  0.95268  Biso   1.000  H
  H3441    1.0000 0.08277  0.60930  0.93180  Biso   1.000  H
  H3442    1.0000 0.09547  0.62166  0.92148  Biso   1.000  H
  H3443    1.0000 0.00781  0.53529  0.86791  Biso   1.000  H
  H3444    1.0000 0.00226  0.54967  0.88140  Biso   1.000  H
  H3445    1.0000 0.02194  0.00810  0.39920  Biso   1.000  H
  H3446    1.0000 0.04712  0.10272  0.43238  Biso   1.000  H
  H3447    1.0000 0.06705  0.09798  0.43237  Biso   1.000  H
  H3448    1.0000 0.00960  0.02835  0.35018  Biso   1.000  H
  H3449    1.0000 0.01619  0.03031  0.33096  Biso   1.000  H
  H3450    1.0000 0.14678  0.06477  0.15923  Biso   1.000  H
  H3451    1.0000 0.12863  0.07167  0.16571  Biso   1.000  H
  H3452    1.0000 0.21701  0.21563  0.25392  Biso   1.000  H
  H3453    1.0000 0.22909  0.22676  0.24155  Biso   1.000  H
  H3454    1.0000 0.54309  0.50501  0.39768  Biso   1.000  H
  H3455    1.0000 0.52564  0.51361  0.39154  Biso   1.000  H
  H3456    1.0000 0.55706  0.65151  0.37541  Biso   1.000  H
  H3457    1.0000 0.57615  0.65348  0.38260  Biso   1.000  H
  H3458    1.0000 0.50376  0.60894  0.33759  Biso   1.000  H
  H3459    1.0000 0.49639  0.60678  0.35660  Biso   1.000  H
  H3460    1.0000 0.51912  0.00735  0.90616  Biso   1.000  H
  H3461    1.0000 0.58057  0.11266  0.93013  Biso   1.000  H
  H3462    1.0000 0.59597  0.11519  0.91706  Biso   1.000  H
  H3463    1.0000 0.54270  0.04054  0.85968  Biso   1.000  H
  H3464    1.0000 0.54805  0.04584  0.84056  Biso   1.000  H
  H3465    1.0000 0.64612  0.06443  0.65790  Biso   1.000  H
  H3466    1.0000 0.62831  0.07186  0.66477  Biso   1.000  H
  H3467    1.0000 0.05138  0.74933  0.60625  Biso   1.000  H
  H3468    1.0000 0.05409  0.76685  0.59583  Biso   1.000  H
  H3469    1.0000 0.03297  0.71684  0.49601  Biso   1.000  H
  H3470    1.0000 0.02081  0.72830  0.50801  Biso   1.000  H
  H3471    1.0000 0.67502  0.14782  0.37857  Biso   1.000  H
  H3472    1.0000 0.69490  0.14502  0.38293  Biso   1.000  H
  H3473    1.0000 0.66142  0.62613  0.94002  Biso   1.000  H
  H3474    1.0000 0.64404  0.62765  0.92922  Biso   1.000  H
  H3475    1.0000 0.70107  0.08304  0.38266  Biso   1.000  H
  H3476    1.0000 0.71460  0.08038  0.36739  Biso   1.000  H
  H3477    1.0000 0.06932  0.25285  0.10742  Biso   1.000  H
  H3478    1.0000 0.07160  0.26887  0.09479  Biso   1.000  H
  H3479    1.0000 0.67497  0.64694  0.87935  Biso   1.000  H
  H3480    1.0000 0.69487  0.64429  0.88374  Biso   1.000  H
  H3481    1.0000 0.66146  0.12657  0.43923  Biso   1.000  H
  H3482    1.0000 0.64405  0.12800  0.42847  Biso   1.000  H
  H3483    1.0000 0.70099  0.58324  0.88397  Biso   1.000  H
  H3484    1.0000 0.71437  0.58029  0.86863  Biso   1.000  H
  H3485    1.0000 0.55483  0.74801  0.10669  Biso   1.000  H
  H3486    1.0000 0.55722  0.76567  0.09641  Biso   1.000  H
  H3487    1.0000 0.17442  0.15329  0.86607  Biso   1.000  H
  H3488    1.0000 0.19346  0.15124  0.87342  Biso   1.000  H
  H3489    1.0000 0.18471  0.62052  0.41212  Biso   1.000  H
  H3490    1.0000 0.16824  0.62456  0.40081  Biso   1.000  H
  H3491    1.0000 0.20076  0.08164  0.88194  Biso   1.000  H
  H3492    1.0000 0.21468  0.07875  0.86706  Biso   1.000  H
  H3493    1.0000 0.55125  0.24768  0.60545  Biso   1.000  H
  H3494    1.0000 0.55340  0.26531  0.59508  Biso   1.000  H
  H3495    1.0000 0.17547  0.64855  0.37736  Biso   1.000  H
  H3496    1.0000 0.19521  0.64554  0.38224  Biso   1.000  H
  H3497    1.0000 0.17235  0.12875  0.92947  Biso   1.000  H
  H3498    1.0000 0.15545  0.13236  0.91834  Biso   1.000  H
  H3499    1.0000 0.20303  0.59030  0.38989  Biso   1.000  H
  H3500    1.0000 0.21368  0.58627  0.37280  Biso   1.000  H
  H3501    1.0000 0.19697  0.01578  0.10781  Biso   1.000  H
  H3502    1.0000 0.18600  0.03306  0.10654  Biso   1.000  H
  H3503    1.0000 0.58555  0.65221  0.82658  Biso   1.000  H
  H3504    1.0000 0.59886  0.63911  0.83478  Biso   1.000  H
  H3505    1.0000 0.51598  0.71712  0.91994  Biso   1.000  H
  H3506    1.0000 0.50514  0.71860  0.90276  Biso   1.000  H
  H3507    1.0000 0.55605  0.20794  0.29438  Biso   1.000  H
  H3508    1.0000 0.56116  0.22685  0.30045  Biso   1.000  H
  H3509    1.0000 0.59847  0.13731  0.33272  Biso   1.000  H
  H3510    1.0000 0.58533  0.15044  0.32427  Biso   1.000  H
  H3511    1.0000 0.48201  0.19923  0.41850  Biso   1.000  H
  H3512    1.0000 0.49596  0.20039  0.43341  Biso   1.000  H
  H3513    1.0000 0.70057  0.01937  0.60568  Biso   1.000  H
  H3514    1.0000 0.68615  0.03394  0.60637  Biso   1.000  H
  H3515    1.0000 0.08557  0.65179  0.32640  Biso   1.000  H
  H3516    1.0000 0.09890  0.63870  0.33450  Biso   1.000  H
  H3517    1.0000 0.01651  0.71764  0.42045  Biso   1.000  H
  H3518    1.0000 0.00640  0.71964  0.40289  Biso   1.000  H
  H3519    1.0000 0.69271  0.51474  0.11020  Biso   1.000  H
  H3520    1.0000 0.68191  0.53207  0.10830  Biso   1.000  H
  H3521    1.0000 0.05350  0.20875  0.79442  Biso   1.000  H
  H3522    1.0000 0.05869  0.22763  0.80055  Biso   1.000  H
  H3523    1.0000 0.02835  0.11093  0.85111  Biso   1.000  H
  H3524    1.0000 0.04080  0.10096  0.86401  Biso   1.000  H
  H3525    1.0000 0.12767  0.17740  0.08529  Biso   1.000  H
  H3526    1.0000 0.14517  0.18560  0.09198  Biso   1.000  H
  H3527    1.0000 0.54736  0.52036  0.14729  Biso   1.000  H
  H3528    1.0000 0.55289  0.53924  0.15265  Biso   1.000  H
  H3529    1.0000 0.48758  0.52065  0.27425  Biso   1.000  H
  H3530    1.0000 0.50701  0.52408  0.27930  Biso   1.000  H
  H3531    1.0000 0.18839  0.19824  0.45181  Biso   1.000  H
  H3532    1.0000 0.18072  0.21679  0.44739  Biso   1.000  H
  H3533    1.0000 0.15389  0.15747  0.39547  Biso   1.000  H
  H3534    1.0000 0.16549  0.16575  0.41020  Biso   1.000  H
  H3535    1.0000 0.23025  0.15647  0.31085  Biso   1.000  H
  H3536    1.0000 0.23114  0.14279  0.32621  Biso   1.000  H
  H3537    1.0000 0.55242  0.04118  0.65407  Biso   1.000  H
  H3538    1.0000 0.54101  0.02440  0.65371  Biso   1.000  H
  H3539    1.0000 0.48597  0.02071  0.77543  Biso   1.000  H
  H3540    1.0000 0.50549  0.02352  0.78058  Biso   1.000  H
  H3541    1.0000 0.19464  0.70652  0.95536  Biso   1.000  H
  H3542    1.0000 0.18938  0.72554  0.94976  Biso   1.000  H
  H3543    1.0000 0.20217  0.64824  0.93181  Biso   1.000  H
  H3544    1.0000 0.18256  0.65411  0.93094  Biso   1.000  H
  H3545    1.0000 0.23437  0.71858  0.83092  Biso   1.000  H
  H3546    1.0000 0.24113  0.72055  0.85007  Biso   1.000  H
  H3547    1.0000 0.08391  0.52904  0.64378  Biso   1.000  H
  H3548    1.0000 0.07623  0.51064  0.63923  Biso   1.000  H
  H3549    1.0000 0.69413  0.20705  0.95541  Biso   1.000  H
  H3550    1.0000 0.68910  0.22609  0.94971  Biso   1.000  H
  H3551    1.0000 0.65111  0.13616  0.91691  Biso   1.000  H
  H3552    1.0000 0.66437  0.14849  0.92632  Biso   1.000  H
  H3553    1.0000 0.73175  0.15888  0.81060  Biso   1.000  H
  H3554    1.0000 0.73286  0.14446  0.82524  Biso   1.000  H
  H3555    1.0000 0.05243  0.04106  0.15451  Biso   1.000  H
  H3556    1.0000 0.04399  0.02313  0.15006  Biso   1.000  H
  H3557    1.0000 0.98428  0.01972  0.27524  Biso   1.000  H
  H3558    1.0000 0.99906  0.02761  0.28701  Biso   1.000  H
  H3559    1.0000 0.72777  0.74147  0.39771  Biso   1.000  H
  H3560    1.0000 0.71275  0.75086  0.40810  Biso   1.000  H
  H3561    1.0000 0.70946  0.61640  0.36576  Biso   1.000  H
  H3562    1.0000 0.72208  0.63086  0.37274  Biso   1.000  H
  H3563    1.0000 0.74765  0.70142  0.37914  Biso   1.000  H
  H3564    1.0000 0.74639  0.71530  0.36407  Biso   1.000  H
  H3565    1.0000 0.97537  0.51094  0.32984  Biso   1.000  H
  H3566    1.0000 0.99010  0.50127  0.34037  Biso   1.000  H
  H3567    1.0000 0.30498  0.70559  0.95748  Biso   1.000  H
  H3568    1.0000 0.31079  0.69968  0.97626  Biso   1.000  H
  H3569    1.0000 0.34574  0.64086  0.90666  Biso   1.000  H
  H3570    1.0000 0.33456  0.65492  0.91661  Biso   1.000  H
  H3571    1.0000 0.34437  0.08025  0.36800  Biso   1.000  H
  H3572    1.0000 0.32707  0.06978  0.37170  Biso   1.000  H
  H3573    1.0000 0.26051  0.59013  0.88913  Biso   1.000  H
  H3574    1.0000 0.24855  0.60647  0.89233  Biso   1.000  H
  H3575    1.0000 0.97528  0.01320  0.82890  Biso   1.000  H
  H3576    1.0000 0.98981  0.00320  0.83937  Biso   1.000  H
  H3577    1.0000 0.30673  0.12549  0.34856  Biso   1.000  H
  H3578    1.0000 0.32590  0.13254  0.34663  Biso   1.000  H
  H3579    1.0000 0.25918  0.09028  0.38918  Biso   1.000  H
  H3580    1.0000 0.24759  0.10683  0.39262  Biso   1.000  H
  H3581    1.0000 0.45148  0.39970  0.75347  Biso   1.000  H
  H3582    1.0000 0.45603  0.41454  0.74012  Biso   1.000  H
  H3583    1.0000 0.47492  0.51166  0.82958  Biso   1.000  H
  H3584    1.0000 0.48908  0.50075  0.83956  Biso   1.000  H
  H3585    1.0000 0.80159  0.70718  0.46096  Biso   1.000  H
  H3586    1.0000 0.80839  0.69975  0.47886  Biso   1.000  H
  H3587    1.0000 0.79658  0.68370  0.39108  Biso   1.000  H
  H3588    1.0000 0.81676  0.68680  0.38911  Biso   1.000  H
  H3589    1.0000 0.84256  0.08025  0.86754  Biso   1.000  H
  H3590    1.0000 0.82539  0.06969  0.87160  Biso   1.000  H
  H3591    1.0000 0.75043  0.62916  0.44964  Biso   1.000  H
  H3592    1.0000 0.75282  0.61406  0.46329  Biso   1.000  H
  H3593    1.0000 0.89636  0.41103  0.43506  Biso   1.000  H
  H3594    1.0000 0.87737  0.41647  0.44071  Biso   1.000  H
  H3595    1.0000 0.47706  0.01372  0.33005  Biso   1.000  H
  H3596    1.0000 0.49165  0.00331  0.33999  Biso   1.000  H
  H3597    1.0000 0.80547  0.12591  0.84823  Biso   1.000  H
  H3598    1.0000 0.82463  0.13296  0.84623  Biso   1.000  H
  H3599    1.0000 0.75840  0.08987  0.88954  Biso   1.000  H
  H3600    1.0000 0.74676  0.10638  0.89306  Biso   1.000  H
  H3601    1.0000 0.92414  0.12687  0.35227  Biso   1.000  H
  H3602    1.0000 0.94408  0.13119  0.35468  Biso   1.000  H
  H3603    1.0000 0.91745  0.65287  0.87402  Biso   1.000  H
  H3604    1.0000 0.92921  0.66965  0.87394  Biso   1.000  H
  H3605    1.0000 0.98151  0.16841  0.46707  Biso   1.000  H
  H3606    1.0000 0.99087  0.15042  0.46910  Biso   1.000  H
  H3607    1.0000 0.93278  0.55590  0.94549  Biso   1.000  H
  H3608    1.0000 0.92206  0.56624  0.95954  Biso   1.000  H
  H3609    1.0000 0.92472  0.62716  0.85199  Biso   1.000  H
  H3610    1.0000 0.94427  0.63251  0.85541  Biso   1.000  H
  H3611    1.0000 0.98219  0.67495  0.89426  Biso   1.000  H
  H3612    1.0000 0.98079  0.68953  0.90872  Biso   1.000  H
  H3613    1.0000 0.48151  0.09284  0.99271  Biso   1.000  H
  H3614    1.0000 0.42567  0.13254  0.85622  Biso   1.000  H
  H3615    1.0000 0.44353  0.13927  0.86382  Biso   1.000  H
  H3616    1.0000 0.41718  0.65434  0.37472  Biso   1.000  H
  H3617    1.0000 0.42843  0.67149  0.37471  Biso   1.000  H
  H3618    1.0000 0.47868  0.16738  0.96901  Biso   1.000  H
  H3619    1.0000 0.48121  0.14725  0.97147  Biso   1.000  H
  H3620    1.0000 0.43383  0.55567  0.44596  Biso   1.000  H
  H3621    1.0000 0.42287  0.56657  0.45940  Biso   1.000  H
  H3622    1.0000 0.42474  0.62929  0.35234  Biso   1.000  H
  H3623    1.0000 0.44412  0.63494  0.35622  Biso   1.000  H
  H3624    1.0000 0.48401  0.67621  0.39588  Biso   1.000  H
  H3625    1.0000 0.48227  0.69039  0.41070  Biso   1.000  H
  H3626    1.0000 0.82514  0.62744  0.89794  Biso   1.000  H
  H3627    1.0000 0.80519  0.63166  0.89541  Biso   1.000  H
  H3628    1.0000 0.80256  0.18259  0.34605  Biso   1.000  H
  H3629    1.0000 0.80960  0.17892  0.36498  Biso   1.000  H
  H3630    1.0000 0.77922  0.67002  0.85574  Biso   1.000  H
  H3631    1.0000 0.78639  0.68259  0.84140  Biso   1.000  H
  H3632    1.0000 0.49122  0.24477  0.90919  Biso   1.000  H
  H3633    1.0000 0.47675  0.23407  0.91894  Biso   1.000  H
  H3634    1.0000 0.81651  0.05556  0.30412  Biso   1.000  H
  H3635    1.0000 0.82752  0.06646  0.29073  Biso   1.000  H
  H3636    1.0000 0.82498  0.12652  0.39831  Biso   1.000  H
  H3637    1.0000 0.80512  0.13111  0.39572  Biso   1.000  H
  H3638    1.0000 0.76937  0.17430  0.35665  Biso   1.000  H
  H3639    1.0000 0.76940  0.18932  0.34257  Biso   1.000  H
  H3640    1.0000 0.32530  0.62753  0.39870  Biso   1.000  H
  H3641    1.0000 0.30522  0.63138  0.39678  Biso   1.000  H
  H3642    1.0000 0.30234  0.18261  0.84784  Biso   1.000  H
  H3643    1.0000 0.30957  0.17906  0.86672  Biso   1.000  H
  H3644    1.0000 0.27821  0.67048  0.35575  Biso   1.000  H
  H3645    1.0000 0.28604  0.68280  0.34154  Biso   1.000  H
  H3646    1.0000 0.99067  0.24621  0.40864  Biso   1.000  H
  H3647    1.0000 0.97648  0.23504  0.41827  Biso   1.000  H
  H3648    1.0000 0.27783  0.12519  0.86643  Biso   1.000  H
  H3649    1.0000 0.29339  0.13792  0.86940  Biso   1.000  H
  H3650    1.0000 0.26881  0.17369  0.85768  Biso   1.000  H
  H3651    1.0000 0.26892  0.18868  0.84359  Biso   1.000  H
  H3652    1.0000 0.75773  0.00388  0.91035  Biso   1.000  H
  H3653    1.0000 0.77279  0.01377  0.92012  Biso   1.000  H
  H3654    1.0000 0.43061  0.19685  0.28248  Biso   1.000  H
  H3655    1.0000 0.43761  0.20078  0.30142  Biso   1.000  H
  H3656    1.0000 0.45199  0.18219  0.35105  Biso   1.000  H
  H3657    1.0000 0.43226  0.18126  0.34555  Biso   1.000  H
  H3658    1.0000 0.42221  0.56805  0.87764  Biso   1.000  H
  H3659    1.0000 0.40527  0.57909  0.88138  Biso   1.000  H
  H3660    1.0000 0.49182  0.09061  0.36027  Biso   1.000  H
  H3661    1.0000 0.50322  0.10724  0.35657  Biso   1.000  H
  H3662    1.0000 0.36531  0.89812  0.35234  Biso   1.000  H
  H3663    1.0000 0.38499  0.90267  0.34860  Biso   1.000  H
  H3664    1.0000 0.75792  0.50272  0.40920  Biso   1.000  H
  H3665    1.0000 0.77266  0.51333  0.41871  Biso   1.000  H
  H3666    1.0000 0.45404  0.68348  0.85747  Biso   1.000  H
  H3667    1.0000 0.43411  0.68479  0.85267  Biso   1.000  H
  H3668    1.0000 0.42383  0.06981  0.37787  Biso   1.000  H
  H3669    1.0000 0.40648  0.08017  0.38168  Biso   1.000  H
  H3670    1.0000 0.49588  0.61331  0.78580  Biso   1.000  H
  H3671    1.0000 0.49580  0.62878  0.79931  Biso   1.000  H
  H3672    1.0000 0.35146  0.40790  0.81565  Biso   1.000  H
  H3673    1.0000 0.36938  0.41432  0.82328  Biso   1.000  H
  H3674    1.0000 0.25748  0.00433  0.41024  Biso   1.000  H
  H3675    1.0000 0.27248  0.01455  0.41974  Biso   1.000  H
  H3676    1.0000 0.93089  0.19749  0.78292  Biso   1.000  H
  H3677    1.0000 0.93774  0.20129  0.80195  Biso   1.000  H
  H3678    1.0000 0.95111  0.18203  0.85134  Biso   1.000  H
  H3679    1.0000 0.93152  0.18109  0.84536  Biso   1.000  H
  H3680    1.0000 0.98981  0.09024  0.86065  Biso   1.000  H
  H3681    1.0000 0.86335  0.89847  0.85220  Biso   1.000  H
  H3682    1.0000 0.88294  0.90350  0.84874  Biso   1.000  H
  H3683    1.0000 0.24032  0.52294  0.91331  Biso   1.000  H
  H3684    1.0000 0.25054  0.53700  0.92420  Biso   1.000  H
  H3685    1.0000 0.95525  0.68356  0.36035  Biso   1.000  H
  H3686    1.0000 0.93494  0.68665  0.36040  Biso   1.000  H
  H3687    1.0000 0.92207  0.06927  0.87715  Biso   1.000  H
  H3688    1.0000 0.90467  0.07958  0.88082  Biso   1.000  H
  H3689    1.0000 0.98617  0.59146  0.36250  Biso   1.000  H
  H3690    1.0000 0.99945  0.60675  0.35931  Biso   1.000  H
  H3691    1.0000 0.85373  0.40950  0.32154  Biso   1.000  H
  H3692    1.0000 0.87245  0.41673  0.31829  Biso   1.000  H
  H3693    1.0000 0.02534  0.98008  0.73726  Biso   1.000  H
  H3694    1.0000 0.03066  0.97649  0.75664  Biso   1.000  H
  H3695    1.0000 0.18125  0.36348  0.42147  Biso   1.000  H
  H3696    1.0000 0.17023  0.37377  0.40758  Biso   1.000  H
  H3697    1.0000 0.59590  0.87762  0.41771  Biso   1.000  H
  H3698    1.0000 0.58656  0.87219  0.43504  Biso   1.000  H
  H3699    1.0000 0.10369  0.34272  0.51782  Biso   1.000  H
  H3700    1.0000 0.08500  0.34725  0.51071  Biso   1.000  H
  H3701    1.0000 0.18208  0.86786  0.92056  Biso   1.000  H
  H3702    1.0000 0.17016  0.87673  0.90642  Biso   1.000  H
  H3703    1.0000 0.61665  0.35148  0.91527  Biso   1.000  H
  H3704    1.0000 0.60940  0.34741  0.93406  Biso   1.000  H
  H3705    1.0000 0.39204  0.98436  0.30319  Biso   1.000  H
  H3706    1.0000 0.39383  0.96695  0.31394  Biso   1.000  H
  H3707    1.0000 0.68075  0.36010  0.91812  Biso   1.000  H
  H3708    1.0000 0.67066  0.37277  0.90552  Biso   1.000  H
  H3709    1.0000 0.08719  0.88042  0.91547  Biso   1.000  H
  H3710    1.0000 0.08460  0.87260  0.93430  Biso   1.000  H
  H3711    1.0000 0.40583  0.31134  0.85466  Biso   1.000  H
  H3712    1.0000 0.41383  0.31909  0.87175  Biso   1.000  H
  H3713    1.0000 0.39190  0.50517  0.82285  Biso   1.000  H
  H3714    1.0000 0.40527  0.52073  0.82268  Biso   1.000  H
  H3715    1.0000 0.54385  0.45260  0.74299  Biso   1.000  H
  H3716    1.0000 0.53482  0.46248  0.72749  Biso   1.000  H
  H3717    1.0000 0.68256  0.85854  0.45431  Biso   1.000  H
  H3718    1.0000 0.68533  0.85972  0.43399  Biso   1.000  H
  H3719    1.0000 0.11715  0.35000  0.41430  Biso   1.000  H
  H3720    1.0000 0.11076  0.34457  0.43306  Biso   1.000  H
  H3721    1.0000 0.60689  0.85441  0.50551  Biso   1.000  H
  H3722    1.0000 0.58780  0.85664  0.49844  Biso   1.000  H
  H3723    1.0000 0.72076  0.47749  0.49400  Biso   1.000  H
  H3724    1.0000 0.72583  0.48077  0.51351  Biso   1.000  H
  H3725    1.0000 0.63839  0.89128  0.80683  Biso   1.000  H
  H3726    1.0000 0.63143  0.89672  0.82542  Biso   1.000  H
  H3727    1.0000 0.16572  0.37319  0.81610  Biso   1.000  H
  H3728    1.0000 0.16314  0.38083  0.83499  Biso   1.000  H
  H3729    1.0000 0.69173  0.82961  0.75351  Biso   1.000  H
  H3730    1.0000 0.67977  0.84542  0.74816  Biso   1.000  H
  H3731    1.0000 0.83512  0.82143  0.87802  Biso   1.000  H
  H3732    1.0000 0.84232  0.83056  0.89481  Biso   1.000  H
  H3733    1.0000 0.72591  0.98041  0.01253  Biso   1.000  H
  H3734    1.0000 0.64435  0.38338  0.30691  Biso   1.000  H
  H3735    1.0000 0.63797  0.39238  0.32422  Biso   1.000  H
  H3736    1.0000 0.16531  0.87325  0.31690  Biso   1.000  H
  H3737    1.0000 0.15302  0.87634  0.33288  Biso   1.000  H
  H3738    1.0000 0.64395  0.34052  0.23095  Biso   1.000  H
  H3739    1.0000 0.66305  0.34549  0.23661  Biso   1.000  H
  H3740    1.0000 0.13870  0.89149  0.30601  Biso   1.000  H
  H3741    1.0000 0.13153  0.89731  0.32440  Biso   1.000  H
  H3742    1.0000 0.19149  0.82715  0.25239  Biso   1.000  H
  H3743    1.0000 0.17967  0.84245  0.24547  Biso   1.000  H
  H3744    1.0000 0.33455  0.82169  0.37893  Biso   1.000  H
  H3745    1.0000 0.34166  0.83067  0.39583  Biso   1.000  H
  H3746    1.0000 0.06839  0.36992  0.82954  Biso   1.000  H
  H3747    1.0000 0.08044  0.37856  0.84371  Biso   1.000  H
  H3748    1.0000 0.66536  0.87221  0.81721  Biso   1.000  H
  H3749    1.0000 0.65285  0.87500  0.83307  Biso   1.000  H
  H3750    1.0000 0.18993  0.32547  0.75216  Biso   1.000  H
  H3751    1.0000 0.17828  0.34119  0.74590  Biso   1.000  H
  H3752    1.0000 0.11744  0.34705  0.92398  Biso   1.000  H
  H3753    1.0000 0.12448  0.34871  0.94318  Biso   1.000  H
  H3754    1.0000 0.17633  0.46275  0.99614  Biso   1.000  H
  H3755    1.0000 0.12679  0.85037  0.42411  Biso   1.000  H
  H3756    1.0000 0.13076  0.85228  0.44421  Biso   1.000  H
  H3757    1.0000 0.17416  0.96401  0.49576  Biso   1.000  H
  H3758    1.0000 0.15541  0.96642  0.50373  Biso   1.000  H
  H3759    1.0000 0.34132  0.94060  0.35159  Biso   1.000  H
  H3760    1.0000 0.33405  0.94164  0.37073  Biso   1.000  H
  H3761    1.0000 0.60513  0.48823  0.47596  Biso   1.000  H
  H3762    1.0000 0.60167  0.49512  0.45706  Biso   1.000  H
  H3763    1.0000 0.62600  0.35068  0.42480  Biso   1.000  H
  H3764    1.0000 0.63046  0.35304  0.44476  Biso   1.000  H
  H3765    1.0000 0.61814  0.45056  0.49706  Biso   1.000  H
  H3766    1.0000 0.63146  0.46524  0.49189  Biso   1.000  H
  H3767    1.0000 0.62797  0.84962  0.92498  Biso   1.000  H
  H3768    1.0000 0.63175  0.85164  0.94511  Biso   1.000  H
  H3769    1.0000 0.67384  0.96352  0.99498  Biso   1.000  H
  H3770    1.0000 0.39461  0.28012  0.91444  Biso   1.000  H
  H3771    1.0000 0.38915  0.26277  0.92396  Biso   1.000  H
  H3772    1.0000 0.53273  0.27892  0.02018  Biso   1.000  H
  H3773    1.0000 0.54344  0.28960  0.00644  Biso   1.000  H
  H3774    1.0000 0.64985  0.99023  0.27089  Biso   1.000  H
  H3775    1.0000 0.65980  0.99955  0.28629  Biso   1.000  H
  H3776    1.0000 0.68291  0.88971  0.29713  Biso   1.000  H
  H3777    1.0000 0.68573  0.88889  0.31747  Biso   1.000  H
  H3778    1.0000 0.57667  0.96408  0.25678  Biso   1.000  H
  H3779    1.0000 0.59542  0.96645  0.24885  Biso   1.000  H
  H3780    1.0000 0.39499  0.78203  0.41697  Biso   1.000  H
  H3781    1.0000 0.38962  0.76462  0.42640  Biso   1.000  H
  H3782    1.0000 0.52511  0.83461  0.48774  Biso   1.000  H
  H3783    1.0000 0.50908  0.84270  0.49770  Biso   1.000  H
  H3784    1.0000 0.65030  0.49119  0.77097  Biso   1.000  H
  H3785    1.0000 0.65971  0.49995  0.78701  Biso   1.000  H
  H3786    1.0000 0.68191  0.39902  0.79878  Biso   1.000  H
  H3787    1.0000 0.68044  0.40495  0.81836  Biso   1.000  H
  H3788    1.0000 0.57831  0.39456  0.77517  Biso   1.000  H
  H3789    1.0000 0.56870  0.40877  0.78626  Biso   1.000  H
  H3790    1.0000 0.89462  0.28056  0.41381  Biso   1.000  H
  H3791    1.0000 0.88902  0.26308  0.42301  Biso   1.000  H
  H3792    1.0000 0.03237  0.27786  0.51970  Biso   1.000  H
  H3793    1.0000 0.04329  0.28836  0.50601  Biso   1.000  H
  H3794    1.0000 0.16584  0.93629  0.82544  Biso   1.000  H
  H3795    1.0000 0.15815  0.95454  0.83048  Biso   1.000  H
  H3796    1.0000 0.16994  0.87529  0.84434  Biso   1.000  H
  H3797    1.0000 0.18165  0.88375  0.82980  Biso   1.000  H
  H3798    1.0000 0.07734  0.89586  0.77236  Biso   1.000  H
  H3799    1.0000 0.06820  0.90928  0.78486  Biso   1.000  H
  H3800    1.0000 0.89563  0.78232  0.91429  Biso   1.000  H
  H3801    1.0000 0.88983  0.76503  0.92370  Biso   1.000  H
  H3802    1.0000 0.02071  0.83522  0.98261  Biso   1.000  H
  H3803    1.0000 0.00147  0.84069  0.98717  Biso   1.000  H
  H3804    1.0000 0.14916  0.49054  0.27187  Biso   1.000  H
  H3805    1.0000 0.15899  0.49964  0.28746  Biso   1.000  H
  H3806    1.0000 0.18194  0.39892  0.29970  Biso   1.000  H
  H3807    1.0000 0.18059  0.40486  0.31928  Biso   1.000  H
  H3808    1.0000 0.07845  0.39405  0.27720  Biso   1.000  H
  H3809    1.0000 0.06789  0.40851  0.28701  Biso   1.000  H
  H3810    1.0000 0.74968  0.78731  0.59123  Biso   1.000  H
  H3811    1.0000 0.75855  0.77011  0.59814  Biso   1.000  H
  H3812    1.0000 0.86156  0.83137  0.57068  Biso   1.000  H
  H3813    1.0000 0.86539  0.84671  0.58353  Biso   1.000  H
  H3814    1.0000 0.85159  0.75638  0.67666  Biso   1.000  H
  H3815    1.0000 0.83696  0.76167  0.69014  Biso   1.000  H
  H3816    1.0000 0.45218  0.95144  0.31296  Biso   1.000  H
  H3817    1.0000 0.46733  0.96531  0.31262  Biso   1.000  H
  H3818    1.0000 0.41531  0.97910  0.23531  Biso   1.000  H
  H3819    1.0000 0.41222  0.98328  0.25517  Biso   1.000  H
  H3820    1.0000 0.78997  0.30322  0.04287  Biso   1.000  H
  H3821    1.0000 0.77204  0.31000  0.05021  Biso   1.000  H
  H3822    1.0000 0.85034  0.33538  0.07479  Biso   1.000  H
  H3823    1.0000 0.86262  0.34874  0.08407  Biso   1.000  H
  H3824    1.0000 0.34464  0.30087  0.68251  Biso   1.000  H
  H3825    1.0000 0.36352  0.30828  0.67946  Biso   1.000  H
  H3826    1.0000 0.77987  0.25772  0.15073  Biso   1.000  H
  H3827    1.0000 0.78229  0.26350  0.17017  Biso   1.000  H
  H3828    1.0000 0.95812  0.44942  0.34658  Biso   1.000  H
  H3829    1.0000 0.97348  0.46244  0.34365  Biso   1.000  H
  H3830    1.0000 0.25092  0.78883  0.09402  Biso   1.000  H
  H3831    1.0000 0.26034  0.77340  0.10374  Biso   1.000  H
  H3832    1.0000 0.35074  0.83496  0.07616  Biso   1.000  H
  H3833    1.0000 0.36379  0.84807  0.08466  Biso   1.000  H
  H3834    1.0000 0.35304  0.74276  0.14339  Biso   1.000  H
  H3835    1.0000 0.35516  0.74885  0.16287  Biso   1.000  H
  H3836    1.0000 0.95214  0.95337  0.81353  Biso   1.000  H
  H3837    1.0000 0.96737  0.96699  0.81568  Biso   1.000  H
  H3838    1.0000 0.91352  0.98766  0.72672  Biso   1.000  H
  H3839    1.0000 0.91087  0.98545  0.74712  Biso   1.000  H
  H3840    1.0000 0.24917  0.28767  0.59289  Biso   1.000  H
  H3841    1.0000 0.25875  0.27236  0.60267  Biso   1.000  H
  H3842    1.0000 0.34859  0.33574  0.57588  Biso   1.000  H
  H3843    1.0000 0.36045  0.34927  0.58539  Biso   1.000  H
  H3844    1.0000 0.35520  0.26666  0.67427  Biso   1.000  H
  H3845    1.0000 0.34099  0.26661  0.68916  Biso   1.000  H
  H3846    1.0000 0.97617  0.73261  0.02643  Biso   1.000  H
  H3847    1.0000 0.96857  0.74819  0.03732  Biso   1.000  H
  H3848    1.0000 0.34641  0.45148  0.17796  Biso   1.000  H
  H3849    1.0000 0.35432  0.43337  0.18343  Biso   1.000  H
  H3850    1.0000 0.87853  0.39494  0.56931  Biso   1.000  H
  H3851    1.0000 0.87706  0.41215  0.55825  Biso   1.000  H
  H3852    1.0000 0.28153  0.48439  0.07999  Biso   1.000  H
  H3853    1.0000 0.27862  0.48697  0.10002  Biso   1.000  H
  H3854    1.0000 0.28809  0.36615  0.89871  Biso   1.000  H
  H3855    1.0000 0.29063  0.38606  0.90300  Biso   1.000  H
  H3856    1.0000 0.97474  0.29072  0.40466  Biso   1.000  H
  H3857    1.0000 0.95974  0.30415  0.40213  Biso   1.000  H
  H3858    1.0000 0.97769  0.23254  0.52618  Biso   1.000  H
  H3859    1.0000 0.97018  0.24799  0.53732  Biso   1.000  H
  H3860    1.0000 0.28326  0.92962  0.69722  Biso   1.000  H
  H3861    1.0000 0.30179  0.93724  0.70186  Biso   1.000  H
  H3862    1.0000 0.34375  0.90505  0.64669  Biso   1.000  H
  H3863    1.0000 0.33715  0.91617  0.66255  Biso   1.000  H
  H3864    1.0000 0.28338  0.98538  0.58033  Biso   1.000  H
  H3865    1.0000 0.28167  0.99516  0.59810  Biso   1.000  H
  H3866    1.0000 0.31359  0.85189  0.41044  Biso   1.000  H
  H3867    1.0000 0.30840  0.87085  0.41635  Biso   1.000  H
  H3868    1.0000 0.49893  0.80393  0.39545  Biso   1.000  H
  H3869    1.0000 0.51671  0.80679  0.40539  Biso   1.000  H
  H3870    1.0000 0.46263  0.72749  0.53491  Biso   1.000  H
  H3871    1.0000 0.45273  0.74299  0.54395  Biso   1.000  H
  H3872    1.0000 0.84578  0.45184  0.67627  Biso   1.000  H
  H3873    1.0000 0.85391  0.43390  0.68193  Biso   1.000  H
  H3874    1.0000 0.37826  0.39472  0.07052  Biso   1.000  H
  H3875    1.0000 0.37654  0.41184  0.05934  Biso   1.000  H
  H3876    1.0000 0.78189  0.48492  0.57921  Biso   1.000  H
  H3877    1.0000 0.77893  0.48731  0.59924  Biso   1.000  H
  H3878    1.0000 0.47510  0.29028  0.90417  Biso   1.000  H
  H3879    1.0000 0.46011  0.30373  0.90156  Biso   1.000  H
  H3880    1.0000 0.47705  0.23253  0.02691  Biso   1.000  H
  H3881    1.0000 0.46963  0.24817  0.03784  Biso   1.000  H
  H3882    1.0000 0.86208  0.90157  0.16662  Biso   1.000  H
  H3883    1.0000 0.84973  0.91495  0.17585  Biso   1.000  H
  H3884    1.0000 0.36085  0.94472  0.57707  Biso   1.000  H
  H3885    1.0000 0.34224  0.94956  0.56999  Biso   1.000  H
  H3886    1.0000 0.81441  0.85162  0.90994  Biso   1.000  H
  H3887    1.0000 0.80899  0.87052  0.91582  Biso   1.000  H
  H3888    1.0000 0.28351  0.93597  0.39287  Biso   1.000  H
  H3889    1.0000 0.26855  0.95000  0.39299  Biso   1.000  H
  H3890    1.0000 0.94099  0.32153  0.68956  Biso   1.000  H
  H3891    1.0000 0.95824  0.33019  0.68314  Biso   1.000  H
  H3892    1.0000 0.88607  0.33116  0.67887  Biso   1.000  H
  H3893    1.0000 0.88265  0.34650  0.66590  Biso   1.000  H
  H3894    1.0000 0.37490  0.32228  0.07615  Biso   1.000  H
  H3895    1.0000 0.37343  0.33366  0.09314  Biso   1.000  H
  H3896    1.0000 0.97113  0.26251  0.60058  Biso   1.000  H
  H3897    1.0000 0.96878  0.26635  0.58067  Biso   1.000  H
  H3898    1.0000 0.27733  0.46245  0.90893  Biso   1.000  H
  H3899    1.0000 0.29128  0.44837  0.90413  Biso   1.000  H
  H3900    1.0000 0.94292  0.82036  0.18945  Biso   1.000  H
  H3901    1.0000 0.95980  0.82921  0.18229  Biso   1.000  H
  H3902    1.0000 0.88762  0.83005  0.17985  Biso   1.000  H
  H3903    1.0000 0.88440  0.84564  0.16715  Biso   1.000  H
  H3904    1.0000 0.97141  0.76153  0.09879  Biso   1.000  H
  H3905    1.0000 0.96864  0.76593  0.07908  Biso   1.000  H
  H3906    1.0000 0.78416  0.93593  0.89281  Biso   1.000  H
  H3907    1.0000 0.76916  0.94992  0.89306  Biso   1.000  H
  H3908    1.0000 0.44166  0.32123  0.18933  Biso   1.000  H
  H3909    1.0000 0.45901  0.32975  0.18297  Biso   1.000  H
  H3910    1.0000 0.38698  0.33054  0.17979  Biso   1.000  H
  H3911    1.0000 0.38380  0.34599  0.16692  Biso   1.000  H
  H3912    1.0000 0.87478  0.32220  0.57539  Biso   1.000  H
  H3913    1.0000 0.87322  0.33366  0.59232  Biso   1.000  H
  H3914    1.0000 0.47136  0.26204  0.10037  Biso   1.000  H
  H3915    1.0000 0.46886  0.26618  0.08054  Biso   1.000  H
  H3916    1.0000 0.78301  0.43521  0.39343  Biso   1.000  H
  H3917    1.0000 0.76844  0.44965  0.39361  Biso   1.000  H
  H3918    1.0000 0.44795  0.81213  0.70236  Biso   1.000  H
  H3919    1.0000 0.46669  0.81943  0.69803  Biso   1.000  H
  H3920    1.0000 0.39706  0.83380  0.67747  Biso   1.000  H
  H3921    1.0000 0.38238  0.84600  0.67006  Biso   1.000  H
  H3922    1.0000 0.46871  0.74909  0.59569  Biso   1.000  H
  H3923    1.0000 0.46623  0.75619  0.57662  Biso   1.000  H
  H3924    1.0000 0.77308  0.29364  0.34909  Biso   1.000  H
  H3925    1.0000 0.79117  0.30156  0.34429  Biso   1.000  H
  H3926    1.0000 0.83769  0.26612  0.25363  Biso   1.000  H
  H3927    1.0000 0.83010  0.27532  0.23704  Biso   1.000  H
  H3928    1.0000 0.35359  0.92468  0.13208  Biso   1.000  H
  H3929    1.0000 0.35922  0.94326  0.13888  Biso   1.000  H
  H3930    1.0000 0.87417  0.91741  0.65529  Biso   1.000  H
  H3931    1.0000 0.87460  0.92856  0.67251  Biso   1.000  H
  H3932    1.0000 0.39221  0.98347  0.13840  Biso   1.000  H
  H3933    1.0000 0.38998  0.98269  0.15868  Biso   1.000  H
  H3934    1.0000 0.77460  0.79000  0.84667  Biso   1.000  H
  H3935    1.0000 0.79201  0.80014  0.84428  Biso   1.000  H
  H3936    1.0000 0.84117  0.75724  0.74585  Biso   1.000  H
  H3937    1.0000 0.83078  0.77268  0.73723  Biso   1.000  H
  H3938    1.0000 0.39632  0.43295  0.56894  Biso   1.000  H
  H3939    1.0000 0.40474  0.45073  0.57490  Biso   1.000  H
  H3940    1.0000 0.87272  0.41680  0.15722  Biso   1.000  H
  H3941    1.0000 0.87430  0.42862  0.17388  Biso   1.000  H
  H3942    1.0000 0.46893  0.47983  0.66808  Biso   1.000  H
  H3943    1.0000 0.47082  0.48090  0.64773  Biso   1.000  H
  H3944    1.0000 0.26772  0.30092  0.85768  Biso   1.000  H
  H3945    1.0000 0.28271  0.31492  0.85765  Biso   1.000  H
  H3946    1.0000 0.85434  0.92567  0.63210  Biso   1.000  H
  H3947    1.0000 0.86138  0.94358  0.63936  Biso   1.000  H
  H3948    1.0000 0.37551  0.91671  0.15282  Biso   1.000  H
  H3949    1.0000 0.37755  0.93168  0.16654  Biso   1.000  H
  H3950    1.0000 0.92084  0.96707  0.61750  Biso   1.000  H
  H3951    1.0000 0.91888  0.95266  0.63207  Biso   1.000  H
  H3952    1.0000 0.27350  0.79230  0.34870  Biso   1.000  H
  H3953    1.0000 0.29150  0.80072  0.34451  Biso   1.000  H
  H3954    1.0000 0.27151  0.76020  0.22173  Biso   1.000  H
  H3955    1.0000 0.26275  0.74965  0.23676  Biso   1.000  H
  H3956    1.0000 0.88380  0.40349  0.08341  Biso   1.000  H
  H3957    1.0000 0.88796  0.41866  0.07048  Biso   1.000  H
  H3958    1.0000 0.37157  0.41614  0.65813  Biso   1.000  H
  H3959    1.0000 0.37313  0.42792  0.67483  Biso   1.000  H
  H3960    1.0000 0.97005  0.47951  0.16770  Biso   1.000  H
  H3961    1.0000 0.97165  0.48004  0.14733  Biso   1.000  H
  O3532    1.0000 0.00188  0.90743  0.62300  Biso   1.000  O
  O3533    1.0000 0.15535  0.99947  0.87181  Biso   1.000  O
  O3534    1.0000 0.12781  0.84147  0.00199  Biso   1.000  O
  O3535    1.0000 0.40508  0.00176  0.12358  Biso   1.000  O
  O3536    1.0000 0.90781  0.00106  0.62333  Biso   1.000  O
  C6517    1.0000 0.01334  0.00244  0.78863  Biso   1.000  C
  C6518    1.0000 0.00168  0.01356  0.78862  Biso   1.000  C
  H3962    1.0000 0.01990  0.00050  0.77809  Biso   1.000  H
  C6519    1.0000 0.00349  0.79149  0.01365  Biso   1.000  C
  C6520    1.0000 0.01521  0.79175  0.00252  Biso   1.000  C
  H3963    1.0000 0.00207  0.78127  0.02083  Biso   1.000  H
  H3964    1.0000 0.02248  0.78159  0.00115  Biso   1.000  H
  C6521    1.0000 0.20673  0.99703  0.98336  Biso   1.000  C
  C6522    1.0000 0.20694  0.98539  0.99454  Biso   1.000  C
  H3965    1.0000 0.21622  0.99778  0.97516  Biso   1.000  H
  H3966    1.0000 0.21661  0.97739  0.99476  Biso   1.000  H
  C6523    1.0000 0.98620  0.99772  0.18465  Biso   1.000  C
  C6524    1.0000 0.99691  0.98554  0.18448  Biso   1.000  C
  N803     1.0000 0.99658  0.97513  0.17160  Biso   1.000  N
  H3967    1.0000 0.97845  0.99913  0.17492  Biso   1.000  H
  H3968    1.0000 0.99057  0.97800  0.16152  Biso   1.000  H
  C6525    1.0000 0.99753  0.20808  0.98484  Biso   1.000  C
  C6526    1.0000 0.98625  0.20891  0.99644  Biso   1.000  C
  N804     1.0000 0.97670  0.22244  0.99681  Biso   1.000  N
  H3969    1.0000 0.99819  0.21735  0.97643  Biso   1.000  H
  H3970    1.0000 0.97586  0.22967  0.98717  Biso   1.000  H
  C6527    1.0000 0.78988  0.00058  0.01055  Biso   1.000  C
  C6528    1.0000 0.93454  0.00064  0.64875  Biso   1.000  C
  H3971    1.0000 0.93571  0.01289  0.64635  Biso   1.000  H
  N805     1.0000 0.99986  0.77042  0.96958  Biso   1.000  N
  H3972    1.0000 0.99245  0.76916  0.97905  Biso   1.000  H
  N806     1.0000 0.00136  0.84847  0.09610  Biso   1.000  N
  H3973    1.0000 0.00693  0.85321  0.10571  Biso   1.000  H
  H3974    1.0000 0.00073  0.85549  0.08630  Biso   1.000  H
  N807     1.0000 0.99459  0.86393  0.54792  Biso   1.000  N
  H3975    1.0000 0.98821  0.87369  0.55096  Biso   1.000  H
  H3976    1.0000 0.99269  0.85944  0.53685  Biso   1.000  H
  N808     1.0000 0.76902  0.52310  0.00234  Biso   1.000  N
  H3977    1.0000 0.77871  0.52154  0.00930  Biso   1.000  H
  N809     1.0000 0.99707  0.19906  0.09326  Biso   1.000  N
  H3978    1.0000 0.98507  0.19950  0.09427  Biso   1.000  H
  N810     1.0000 0.20122  0.88707  0.99307  Biso   1.000  N
  H3979    1.0000 0.19794  0.87756  0.98643  Biso   1.000  H
  H3980    1.0000 0.21216  0.89170  0.99091  Biso   1.000  H
  N811     1.0000 0.52233  0.71941  0.00034  Biso   1.000  N
  H3981    1.0000 0.52136  0.72889  0.00777  Biso   1.000  H
  N812     1.0000 0.99986  0.15027  0.90329  Biso   1.000  N
  H3982    1.0000 0.99373  0.14564  0.89398  Biso   1.000  H
  N813     1.0000 0.00269  0.52470  0.76989  Biso   1.000  N
  H3983    1.0000 0.00878  0.52331  0.78019  Biso   1.000  H
  N814     1.0000 0.09697  0.83913  0.01025  Biso   1.000  N
  H3984    1.0000 0.10585  0.84095  0.01822  Biso   1.000  H
  H3985    1.0000 0.08682  0.84542  0.01199  Biso   1.000  H
  N815     1.0000 0.59606  0.34829  0.00008  Biso   1.000  N
  H3986    1.0000 0.60545  0.35324  0.00585  Biso   1.000  H
  N816     1.0000 0.80263  0.00562  0.07786  Biso   1.000  N
  H3987    1.0000 0.80049  0.00384  0.06613  Biso   1.000  H
  H3988    1.0000 0.79856  0.01602  0.08243  Biso   1.000  H
  F272     1.0000 0.12843  0.87041  0.00030  Biso   1.000  F
  H3989    1.0000 0.91043  0.80523  0.00206  Biso   1.000  H
  H3990    1.0000 0.07840  0.00184  0.80529  Biso   1.000  H
  H3991    1.0000 0.10417  0.01195  0.81206  Biso   1.000  H
  H3992    1.0000 0.41090  0.30272  0.00235  Biso   1.000  H
  H3993    1.0000 0.58010  0.00074  0.30418  Biso   1.000  H
  H3994    1.0000 0.60546  0.01071  0.31251  Biso   1.000  H
  H3995    1.0000 0.84177  0.92795  0.00670  Biso   1.000  H
  H3996    1.0000 0.73109  0.99976  0.97313  Biso   1.000  H
  H3997    1.0000 0.34074  0.44435  0.00397  Biso   1.000  H
  H3998    1.0000 0.00461  0.90981  0.82099  Biso   1.000  H
  H3999    1.0000 0.00248  0.41102  0.30945  Biso   1.000  H
  H4000    1.0000 0.00269  0.83503  0.95052  Biso   1.000  H
  H4001    1.0000 0.00247  0.33775  0.44547  Biso   1.000  H
  H4002    1.0000 0.00514  0.44558  0.13833  Biso   1.000  H
  H4003    1.0000 0.48101  0.31840  0.99958  Biso   1.000  H
  H4004    1.0000 0.29751  0.00005  0.41490  Biso   1.000  H
  H4005    1.0000 0.94801  0.00239  0.83660  Biso   1.000  H
  H4006    1.0000 0.05503  0.16151  0.99667  Biso   1.000  H
  H4007    1.0000 0.08681  0.99822  0.19701  Biso   1.000  H
  H4008    1.0000 0.58798  0.99834  0.69579  Biso   1.000  H
  H4009    1.0000 0.66360  0.99819  0.55220  Biso   1.000  H
  H4010    1.0000 0.86232  0.55353  0.99670  Biso   1.000  H
  H4011    1.0000 0.33014  0.05533  0.99705  Biso   1.000  H
  H4012    1.0000 0.35616  0.06312  0.98833  Biso   1.000  H
  H4013    1.0000 0.52712  0.00243  0.76545  Biso   1.000  H
  H4014    1.0000 0.99514  0.55628  0.65990  Biso   1.000  H
  H4015    1.0000 0.99858  0.05362  0.15985  Biso   1.000  H
  H4016    1.0000 0.99509  0.69295  0.59011  Biso   1.000  H
  H4017    1.0000 0.69719  0.99761  0.38613  Biso   1.000  H
  H4018    1.0000 0.08589  0.20047  0.99955  Biso   1.000  H
  H4019    1.0000 0.59307  0.67916  0.99241  Biso   1.000  H
  H4020    1.0000 0.42064  0.99918  0.69602  Biso   1.000  H
  H4021    1.0000 0.39527  0.98918  0.68759  Biso   1.000  H
  H4022    1.0000 0.15879  0.05866  0.99587  Biso   1.000  H
  H4023    1.0000 0.65895  0.55773  0.99628  Biso   1.000  H
  H4024    1.0000 0.99999  0.08564  0.19803  Biso   1.000  H
  H4025    1.0000 0.99849  0.16495  0.05159  Biso   1.000  H
  H4026    1.0000 0.19387  0.99527  0.08931  Biso   1.000  H
  H4027    1.0000 0.69684  0.99730  0.58932  Biso   1.000  H
  H4028    1.0000 0.99964  0.02010  0.77808  Biso   1.000  H
  H4029    1.0000 0.44899  0.33477  0.00099  Biso   1.000  H
  H4030    1.0000 0.94976  0.83579  0.00104  Biso   1.000  H
  H4031    1.0000 0.99982  0.22839  0.46981  Biso   1.000  H
  H4032    1.0000 0.30050  0.41506  0.00164  Biso   1.000  H
  H4033    1.0000 0.91278  0.00302  0.80139  Biso   1.000  H
  H4034    1.0000 0.99757  0.43358  0.27272  Biso   1.000  H
  H4035    1.0000 0.41031  0.00511  0.30619  Biso   1.000  H
  H4036    1.0000 0.83685  0.00171  0.94608  Biso   1.000  H
  H4037    1.0000 0.33824  0.00250  0.44348  Biso   1.000  H
  H4038    1.0000 0.13867  0.44538  0.00463  Biso   1.000  H
  H4039    1.0000 0.63692  0.94477  0.00374  Biso   1.000  H
  H4040    1.0000 0.00156  0.80451  0.91099  Biso   1.000  H
  H4041    1.0000 0.81253  0.01142  0.10595  Biso   1.000  H
  H4042    1.0000 0.27823  0.99802  0.51509  Biso   1.000  H
  H4043    1.0000 0.77871  0.99754  0.01539  Biso   1.000  H
  H4044    1.0000 0.94375  0.00265  0.67176  Biso   1.000  H
  H4045    1.0000 0.65776  0.28674  0.00010  Biso   1.000  H
  H4046    1.0000 0.00452  0.78140  0.96777  Biso   1.000  H
  H4047    1.0000 0.35782  0.60736  0.00206  Biso   1.000  H
  H4048    1.0000 0.85523  0.10625  0.00514  Biso   1.000  H
  H4049    1.0000 0.00480  0.46608  0.15721  Biso   1.000  H
  H4050    1.0000 0.78733  0.00021  0.16000  Biso   1.000  H
  H4051    1.0000 0.00373  0.35529  0.60646  Biso   1.000  H
  H4052    1.0000 0.00032  0.96371  0.17253  Biso   1.000  H
  H4053    1.0000 0.99526  0.35561  0.10557  Biso   1.000  H
  H4054    1.0000 0.73499  0.00303  0.58718  Biso   1.000  H
  H4055    1.0000 0.99893  0.89332  0.14114  Biso   1.000  H
  H4056    1.0000 0.99549  0.39458  0.64413  Biso   1.000  H
  H4057    1.0000 0.89436  0.14358  0.99558  Biso   1.000  H
  H4058    1.0000 0.76539  0.51318  0.99649  Biso   1.000  H
  H4059    1.0000 0.84346  0.53303  0.99681  Biso   1.000  H
  H4060    1.0000 0.33904  0.99991  0.71373  Biso   1.000  H
  H4061    1.0000 0.97154  0.22658  0.00690  Biso   1.000  H
  H4062    1.0000 0.71797  0.99888  0.40458  Biso   1.000  H
  H4063    1.0000 0.60740  0.99580  0.85632  Biso   1.000  H
  H4064    1.0000 0.10688  0.99683  0.35689  Biso   1.000  H
  H4065    1.0000 0.16129  0.00292  0.01528  Biso   1.000  H
  H4066    1.0000 0.08997  0.00172  0.23472  Biso   1.000  H
  H4067    1.0000 0.64186  0.39316  0.99841  Biso   1.000  H
  H4068    1.0000 0.52263  0.77641  0.00970  Biso   1.000  H
  H4069    1.0000 0.03772  0.99921  0.40888  Biso   1.000  H
  H4070    1.0000 0.53707  0.99910  0.91178  Biso   1.000  H
  H4071    1.0000 0.53322  0.71725  0.99566  Biso   1.000  H
  H4072    1.0000 0.00159  0.14295  0.91273  Biso   1.000  H
  H4073    1.0000 0.99757  0.51457  0.76576  Biso   1.000  H
  H4074    1.0000 0.46358  0.08706  0.00094  Biso   1.000  H
  H4075    1.0000 0.00118  0.10698  0.85771  Biso   1.000  H
  H4076    1.0000 0.58629  0.35525  0.99888  Biso   1.000  H
  H4077    1.0000 0.72054  0.97641  0.99325  Biso   1.000  H
  H4078    1.0000 0.15773  0.46567  0.00427  Biso   1.000  H
  H4079    1.0000 0.65505  0.96588  0.00286  Biso   1.000  H
  H4080    1.0000 0.00343  0.20521  0.10148  Biso   1.000  H
