data_image0
_cell_length_a       71.687
_cell_length_b       71.687
_cell_length_c       71.687
_cell_angle_alpha    90
_cell_angle_beta     90
_cell_angle_gamma    90

_symmetry_space_group_name_H-M    "P 1"
_symmetry_int_tables_number       1

loop_
  _symmetry_equiv_pos_as_xyz
  'x, y, z'

loop_
  _atom_site_label
  _atom_site_occupancy
  _atom_site_fract_x
  _atom_site_fract_y
  _atom_site_fract_z
  _atom_site_thermal_displace_type
  _atom_site_B_iso_or_equiv
  _atom_site_type_symbol
  C1       1.0000 0.41050  0.57740  0.96090  Biso   1.000  C
  C2       1.0000 0.41050  0.67260  0.28910  Biso   1.000  C
  C3       1.0000 0.33950  0.67260  0.46090  Biso   1.000  C
  C4       1.0000 0.33950  0.57740  0.78910  Biso   1.000  C
  C5       1.0000 0.42260  0.66050  0.21090  Biso   1.000  C
  C6       1.0000 0.32740  0.66050  0.53910  Biso   1.000  C
  C7       1.0000 0.32740  0.58950  0.71090  Biso   1.000  C
  C8       1.0000 0.42260  0.58950  0.03910  Biso   1.000  C
  C9       1.0000 0.57740  0.96090  0.41050  Biso   1.000  C
  C10      1.0000 0.17260  0.28910  0.91050  Biso   1.000  C
  C11      1.0000 0.57740  0.28910  0.83950  Biso   1.000  C
  C12      1.0000 0.17260  0.96090  0.33950  Biso   1.000  C
  C13      1.0000 0.03910  0.82740  0.66050  Biso   1.000  C
  C14      1.0000 0.03910  0.42260  0.58950  Biso   1.000  C
  C15      1.0000 0.71090  0.42260  0.16050  Biso   1.000  C
  C16      1.0000 0.71090  0.82740  0.08950  Biso   1.000  C
  C17      1.0000 0.96090  0.41050  0.57740  Biso   1.000  C
  C18      1.0000 0.28910  0.91050  0.17260  Biso   1.000  C
  C19      1.0000 0.28910  0.83950  0.57740  Biso   1.000  C
  C20      1.0000 0.96090  0.33950  0.17260  Biso   1.000  C
  C21      1.0000 0.58950  0.03910  0.42260  Biso   1.000  C
  C22      1.0000 0.58950  0.71090  0.32740  Biso   1.000  C
  C23      1.0000 0.66050  0.53910  0.32740  Biso   1.000  C
  C24      1.0000 0.16050  0.21090  0.92260  Biso   1.000  C
  C25      1.0000 0.41050  0.07740  0.46090  Biso   1.000  C
  C26      1.0000 0.41050  0.17260  0.78910  Biso   1.000  C
  C27      1.0000 0.33950  0.17260  0.96090  Biso   1.000  C
  C28      1.0000 0.33950  0.07740  0.28910  Biso   1.000  C
  C29      1.0000 0.42260  0.16050  0.71090  Biso   1.000  C
  C30      1.0000 0.32740  0.16050  0.03910  Biso   1.000  C
  C31      1.0000 0.32740  0.08950  0.21090  Biso   1.000  C
  C32      1.0000 0.42260  0.08950  0.53910  Biso   1.000  C
  C33      1.0000 0.57740  0.46090  0.91050  Biso   1.000  C
  C34      1.0000 0.17260  0.78910  0.41050  Biso   1.000  C
  C35      1.0000 0.57740  0.78910  0.33950  Biso   1.000  C
  C36      1.0000 0.17260  0.46090  0.83950  Biso   1.000  C
  C37      1.0000 0.03910  0.32740  0.16050  Biso   1.000  C
  C38      1.0000 0.03910  0.92260  0.08950  Biso   1.000  C
  C39      1.0000 0.71090  0.92260  0.66050  Biso   1.000  C
  C40      1.0000 0.71090  0.32740  0.58950  Biso   1.000  C
  C41      1.0000 0.96090  0.91050  0.07740  Biso   1.000  C
  C42      1.0000 0.28910  0.41050  0.67260  Biso   1.000  C
  C43      1.0000 0.28910  0.33950  0.07740  Biso   1.000  C
  C44      1.0000 0.96090  0.83950  0.67260  Biso   1.000  C
  C45      1.0000 0.58950  0.53910  0.92260  Biso   1.000  C
  C46      1.0000 0.58950  0.21090  0.82740  Biso   1.000  C
  C47      1.0000 0.66050  0.03910  0.82740  Biso   1.000  C
  C48      1.0000 0.16050  0.71090  0.42260  Biso   1.000  C
  C49      1.0000 0.91050  0.57740  0.46090  Biso   1.000  C
  C50      1.0000 0.91050  0.67260  0.78910  Biso   1.000  C
  C51      1.0000 0.83950  0.67260  0.96090  Biso   1.000  C
  C52      1.0000 0.83950  0.57740  0.28910  Biso   1.000  C
  C53      1.0000 0.92260  0.66050  0.71090  Biso   1.000  C
  C54      1.0000 0.82740  0.66050  0.03910  Biso   1.000  C
  C55      1.0000 0.82740  0.58950  0.21090  Biso   1.000  C
  C56      1.0000 0.92260  0.58950  0.53910  Biso   1.000  C
  C57      1.0000 0.07740  0.96090  0.91050  Biso   1.000  C
  C58      1.0000 0.67260  0.28910  0.41050  Biso   1.000  C
  C59      1.0000 0.07740  0.28910  0.33950  Biso   1.000  C
  C60      1.0000 0.67260  0.96090  0.83950  Biso   1.000  C
  C61      1.0000 0.53910  0.82740  0.16050  Biso   1.000  C
  C62      1.0000 0.53910  0.42260  0.08950  Biso   1.000  C
  C63      1.0000 0.21090  0.42260  0.66050  Biso   1.000  C
  C64      1.0000 0.21090  0.82740  0.58950  Biso   1.000  C
  C65      1.0000 0.46090  0.41050  0.07740  Biso   1.000  C
  C66      1.0000 0.78910  0.91050  0.67260  Biso   1.000  C
  C67      1.0000 0.78910  0.83950  0.07740  Biso   1.000  C
  C68      1.0000 0.46090  0.33950  0.67260  Biso   1.000  C
  C69      1.0000 0.08950  0.03910  0.92260  Biso   1.000  C
  C70      1.0000 0.08950  0.71090  0.82740  Biso   1.000  C
  C71      1.0000 0.16050  0.53910  0.82740  Biso   1.000  C
  C72      1.0000 0.66050  0.21090  0.42260  Biso   1.000  C
  C73      1.0000 0.91050  0.07740  0.96090  Biso   1.000  C
  C74      1.0000 0.91050  0.17260  0.28910  Biso   1.000  C
  C75      1.0000 0.83950  0.17260  0.46090  Biso   1.000  C
  C76      1.0000 0.83950  0.07740  0.78910  Biso   1.000  C
  C77      1.0000 0.92260  0.16050  0.21090  Biso   1.000  C
  C78      1.0000 0.82740  0.16050  0.53910  Biso   1.000  C
  C79      1.0000 0.82740  0.08950  0.71090  Biso   1.000  C
  C80      1.0000 0.92260  0.08950  0.03910  Biso   1.000  C
  C81      1.0000 0.07740  0.46090  0.41050  Biso   1.000  C
  C82      1.0000 0.67260  0.78910  0.91050  Biso   1.000  C
  C83      1.0000 0.07740  0.78910  0.83950  Biso   1.000  C
  C84      1.0000 0.67260  0.46090  0.33950  Biso   1.000  C
  C85      1.0000 0.53910  0.32740  0.66050  Biso   1.000  C
  C86      1.0000 0.53910  0.92260  0.58950  Biso   1.000  C
  C87      1.0000 0.21090  0.92260  0.16050  Biso   1.000  C
  C88      1.0000 0.21090  0.32740  0.08950  Biso   1.000  C
  C89      1.0000 0.46090  0.91050  0.57740  Biso   1.000  C
  C90      1.0000 0.78910  0.41050  0.17260  Biso   1.000  C
  C91      1.0000 0.78910  0.33950  0.57740  Biso   1.000  C
  C92      1.0000 0.46090  0.83950  0.17260  Biso   1.000  C
  C93      1.0000 0.08950  0.53910  0.42260  Biso   1.000  C
  C94      1.0000 0.08950  0.21090  0.32740  Biso   1.000  C
  C95      1.0000 0.16050  0.03910  0.32740  Biso   1.000  C
  C96      1.0000 0.66050  0.71090  0.92260  Biso   1.000  C
  C97      1.0000 0.58950  0.42260  0.03910  Biso   1.000  C
  C98      1.0000 0.58950  0.32740  0.71090  Biso   1.000  C
  C99      1.0000 0.66050  0.32740  0.53910  Biso   1.000  C
  C100     1.0000 0.66050  0.42260  0.21090  Biso   1.000  C
  C101     1.0000 0.57740  0.33950  0.78910  Biso   1.000  C
  C102     1.0000 0.67260  0.33950  0.46090  Biso   1.000  C
  C103     1.0000 0.67260  0.41050  0.28910  Biso   1.000  C
  C104     1.0000 0.57740  0.41050  0.96090  Biso   1.000  C
  C105     1.0000 0.42260  0.03910  0.58950  Biso   1.000  C
  C106     1.0000 0.82740  0.71090  0.08950  Biso   1.000  C
  C107     1.0000 0.42260  0.71090  0.16050  Biso   1.000  C
  C108     1.0000 0.82740  0.03910  0.66050  Biso   1.000  C
  C109     1.0000 0.96090  0.17260  0.33950  Biso   1.000  C
  C110     1.0000 0.96090  0.57740  0.41050  Biso   1.000  C
  C111     1.0000 0.28910  0.57740  0.83950  Biso   1.000  C
  C112     1.0000 0.28910  0.17260  0.91050  Biso   1.000  C
  C113     1.0000 0.03910  0.58950  0.42260  Biso   1.000  C
  C114     1.0000 0.71090  0.08950  0.82740  Biso   1.000  C
  C115     1.0000 0.71090  0.16050  0.42260  Biso   1.000  C
  C116     1.0000 0.03910  0.66050  0.82740  Biso   1.000  C
  C117     1.0000 0.41050  0.96090  0.57740  Biso   1.000  C
  C118     1.0000 0.41050  0.28910  0.67260  Biso   1.000  C
  C119     1.0000 0.33950  0.46090  0.67260  Biso   1.000  C
  C120     1.0000 0.83950  0.78910  0.07740  Biso   1.000  C
  C121     1.0000 0.58950  0.92260  0.53910  Biso   1.000  C
  C122     1.0000 0.58950  0.82740  0.21090  Biso   1.000  C
  C123     1.0000 0.66050  0.82740  0.03910  Biso   1.000  C
  C124     1.0000 0.66050  0.92260  0.71090  Biso   1.000  C
  C125     1.0000 0.57740  0.83950  0.28910  Biso   1.000  C
  C126     1.0000 0.67260  0.83950  0.96090  Biso   1.000  C
  C127     1.0000 0.67260  0.91050  0.78910  Biso   1.000  C
  C128     1.0000 0.57740  0.91050  0.46090  Biso   1.000  C
  C129     1.0000 0.42260  0.53910  0.08950  Biso   1.000  C
  C130     1.0000 0.82740  0.21090  0.58950  Biso   1.000  C
  C131     1.0000 0.42260  0.21090  0.66050  Biso   1.000  C
  C132     1.0000 0.82740  0.53910  0.16050  Biso   1.000  C
  C133     1.0000 0.96090  0.67260  0.83950  Biso   1.000  C
  C134     1.0000 0.96090  0.07740  0.91050  Biso   1.000  C
  C135     1.0000 0.28910  0.07740  0.33950  Biso   1.000  C
  C136     1.0000 0.28910  0.67260  0.41050  Biso   1.000  C
  C137     1.0000 0.03910  0.08950  0.92260  Biso   1.000  C
  C138     1.0000 0.71090  0.58950  0.32740  Biso   1.000  C
  C139     1.0000 0.71090  0.66050  0.92260  Biso   1.000  C
  C140     1.0000 0.03910  0.16050  0.32740  Biso   1.000  C
  C141     1.0000 0.41050  0.46090  0.07740  Biso   1.000  C
  C142     1.0000 0.41050  0.78910  0.17260  Biso   1.000  C
  C143     1.0000 0.33950  0.96090  0.17260  Biso   1.000  C
  C144     1.0000 0.83950  0.28910  0.57740  Biso   1.000  C
  C145     1.0000 0.08950  0.42260  0.53910  Biso   1.000  C
  C146     1.0000 0.08950  0.32740  0.21090  Biso   1.000  C
  C147     1.0000 0.16050  0.32740  0.03910  Biso   1.000  C
  C148     1.0000 0.16050  0.42260  0.71090  Biso   1.000  C
  C149     1.0000 0.07740  0.33950  0.28910  Biso   1.000  C
  C150     1.0000 0.17260  0.33950  0.96090  Biso   1.000  C
  C151     1.0000 0.17260  0.41050  0.78910  Biso   1.000  C
  C152     1.0000 0.07740  0.41050  0.46090  Biso   1.000  C
  C153     1.0000 0.92260  0.03910  0.08950  Biso   1.000  C
  C154     1.0000 0.32740  0.71090  0.58950  Biso   1.000  C
  C155     1.0000 0.92260  0.71090  0.66050  Biso   1.000  C
  C156     1.0000 0.32740  0.03910  0.16050  Biso   1.000  C
  C157     1.0000 0.46090  0.17260  0.83950  Biso   1.000  C
  C158     1.0000 0.46090  0.57740  0.91050  Biso   1.000  C
  C159     1.0000 0.78910  0.57740  0.33950  Biso   1.000  C
  C160     1.0000 0.78910  0.17260  0.41050  Biso   1.000  C
  C161     1.0000 0.53910  0.58950  0.92260  Biso   1.000  C
  C162     1.0000 0.21090  0.08950  0.32740  Biso   1.000  C
  C163     1.0000 0.21090  0.16050  0.92260  Biso   1.000  C
  C164     1.0000 0.53910  0.66050  0.32740  Biso   1.000  C
  C165     1.0000 0.91050  0.96090  0.07740  Biso   1.000  C
  C166     1.0000 0.91050  0.28910  0.17260  Biso   1.000  C
  C167     1.0000 0.83950  0.46090  0.17260  Biso   1.000  C
  C168     1.0000 0.33950  0.78910  0.57740  Biso   1.000  C
  C169     1.0000 0.08950  0.92260  0.03910  Biso   1.000  C
  C170     1.0000 0.08950  0.82740  0.71090  Biso   1.000  C
  C171     1.0000 0.16050  0.82740  0.53910  Biso   1.000  C
  C172     1.0000 0.16050  0.92260  0.21090  Biso   1.000  C
  C173     1.0000 0.07740  0.83950  0.78910  Biso   1.000  C
  C174     1.0000 0.17260  0.83950  0.46090  Biso   1.000  C
  C175     1.0000 0.17260  0.91050  0.28910  Biso   1.000  C
  C176     1.0000 0.07740  0.91050  0.96090  Biso   1.000  C
  C177     1.0000 0.92260  0.53910  0.58950  Biso   1.000  C
  C178     1.0000 0.32740  0.21090  0.08950  Biso   1.000  C
  C179     1.0000 0.92260  0.21090  0.16050  Biso   1.000  C
  C180     1.0000 0.32740  0.53910  0.66050  Biso   1.000  C
  C181     1.0000 0.46090  0.67260  0.33950  Biso   1.000  C
  C182     1.0000 0.46090  0.07740  0.41050  Biso   1.000  C
  C183     1.0000 0.78910  0.07740  0.83950  Biso   1.000  C
  C184     1.0000 0.78910  0.67260  0.91050  Biso   1.000  C
  C185     1.0000 0.53910  0.08950  0.42260  Biso   1.000  C
  C186     1.0000 0.21090  0.58950  0.82740  Biso   1.000  C
  C187     1.0000 0.21090  0.66050  0.42260  Biso   1.000  C
  C188     1.0000 0.53910  0.16050  0.82740  Biso   1.000  C
  C189     1.0000 0.91050  0.46090  0.57740  Biso   1.000  C
  C190     1.0000 0.91050  0.78910  0.67260  Biso   1.000  C
  C191     1.0000 0.83950  0.96090  0.67260  Biso   1.000  C
  C192     1.0000 0.33950  0.28910  0.07740  Biso   1.000  C
  C193     1.0000 0.41650  0.57850  0.94020  Biso   1.000  C
  C194     1.0000 0.41650  0.67150  0.30980  Biso   1.000  C
  C195     1.0000 0.33350  0.67150  0.44020  Biso   1.000  C
  C196     1.0000 0.33350  0.57850  0.80980  Biso   1.000  C
  C197     1.0000 0.42150  0.66650  0.19020  Biso   1.000  C
  C198     1.0000 0.32850  0.66650  0.55980  Biso   1.000  C
  C199     1.0000 0.32850  0.58350  0.69020  Biso   1.000  C
  C200     1.0000 0.42150  0.58350  0.05980  Biso   1.000  C
  C201     1.0000 0.57850  0.94020  0.41650  Biso   1.000  C
  C202     1.0000 0.17150  0.30980  0.91650  Biso   1.000  C
  C203     1.0000 0.57850  0.30980  0.83350  Biso   1.000  C
  C204     1.0000 0.17150  0.94020  0.33350  Biso   1.000  C
  C205     1.0000 0.05980  0.82850  0.66650  Biso   1.000  C
  C206     1.0000 0.05980  0.42150  0.58350  Biso   1.000  C
  C207     1.0000 0.69020  0.42150  0.16650  Biso   1.000  C
  C208     1.0000 0.69020  0.82850  0.08350  Biso   1.000  C
  C209     1.0000 0.94020  0.41650  0.57850  Biso   1.000  C
  C210     1.0000 0.30980  0.91650  0.17150  Biso   1.000  C
  C211     1.0000 0.30980  0.83350  0.57850  Biso   1.000  C
  C212     1.0000 0.94020  0.33350  0.17150  Biso   1.000  C
  C213     1.0000 0.58350  0.05980  0.42150  Biso   1.000  C
  C214     1.0000 0.58350  0.69020  0.32850  Biso   1.000  C
  C215     1.0000 0.66650  0.55980  0.32850  Biso   1.000  C
  C216     1.0000 0.16650  0.19020  0.92150  Biso   1.000  C
  C217     1.0000 0.41650  0.07850  0.44020  Biso   1.000  C
  C218     1.0000 0.41650  0.17150  0.80980  Biso   1.000  C
  C219     1.0000 0.33350  0.17150  0.94020  Biso   1.000  C
  C220     1.0000 0.33350  0.07850  0.30980  Biso   1.000  C
  C221     1.0000 0.42150  0.16650  0.69020  Biso   1.000  C
  C222     1.0000 0.32850  0.16650  0.05980  Biso   1.000  C
  C223     1.0000 0.32850  0.08350  0.19020  Biso   1.000  C
  C224     1.0000 0.42150  0.08350  0.55980  Biso   1.000  C
  C225     1.0000 0.57850  0.44020  0.91650  Biso   1.000  C
  C226     1.0000 0.17150  0.80980  0.41650  Biso   1.000  C
  C227     1.0000 0.57850  0.80980  0.33350  Biso   1.000  C
  C228     1.0000 0.17150  0.44020  0.83350  Biso   1.000  C
  C229     1.0000 0.05980  0.32850  0.16650  Biso   1.000  C
  C230     1.0000 0.05980  0.92150  0.08350  Biso   1.000  C
  C231     1.0000 0.69020  0.92150  0.66650  Biso   1.000  C
  C232     1.0000 0.69020  0.32850  0.58350  Biso   1.000  C
  C233     1.0000 0.94020  0.91650  0.07850  Biso   1.000  C
  C234     1.0000 0.30980  0.41650  0.67150  Biso   1.000  C
  C235     1.0000 0.30980  0.33350  0.07850  Biso   1.000  C
  C236     1.0000 0.94020  0.83350  0.67150  Biso   1.000  C
  C237     1.0000 0.58350  0.55980  0.92150  Biso   1.000  C
  C238     1.0000 0.58350  0.19020  0.82850  Biso   1.000  C
  C239     1.0000 0.66650  0.05980  0.82850  Biso   1.000  C
  C240     1.0000 0.16650  0.69020  0.42150  Biso   1.000  C
  C241     1.0000 0.91650  0.57850  0.44020  Biso   1.000  C
  C242     1.0000 0.91650  0.67150  0.80980  Biso   1.000  C
  C243     1.0000 0.83350  0.67150  0.94020  Biso   1.000  C
  C244     1.0000 0.83350  0.57850  0.30980  Biso   1.000  C
  C245     1.0000 0.92150  0.66650  0.69020  Biso   1.000  C
  C246     1.0000 0.82850  0.66650  0.05980  Biso   1.000  C
  C247     1.0000 0.82850  0.58350  0.19020  Biso   1.000  C
  C248     1.0000 0.92150  0.58350  0.55980  Biso   1.000  C
  C249     1.0000 0.07850  0.94020  0.91650  Biso   1.000  C
  C250     1.0000 0.67150  0.30980  0.41650  Biso   1.000  C
  C251     1.0000 0.07850  0.30980  0.33350  Biso   1.000  C
  C252     1.0000 0.67150  0.94020  0.83350  Biso   1.000  C
  C253     1.0000 0.55980  0.82850  0.16650  Biso   1.000  C
  C254     1.0000 0.55980  0.42150  0.08350  Biso   1.000  C
  C255     1.0000 0.19020  0.42150  0.66650  Biso   1.000  C
  C256     1.0000 0.19020  0.82850  0.58350  Biso   1.000  C
  C257     1.0000 0.44020  0.41650  0.07850  Biso   1.000  C
  C258     1.0000 0.80980  0.91650  0.67150  Biso   1.000  C
  C259     1.0000 0.80980  0.83350  0.07850  Biso   1.000  C
  C260     1.0000 0.44020  0.33350  0.67150  Biso   1.000  C
  C261     1.0000 0.08350  0.05980  0.92150  Biso   1.000  C
  C262     1.0000 0.08350  0.69020  0.82850  Biso   1.000  C
  C263     1.0000 0.16650  0.55980  0.82850  Biso   1.000  C
  C264     1.0000 0.66650  0.19020  0.42150  Biso   1.000  C
  C265     1.0000 0.91650  0.07850  0.94020  Biso   1.000  C
  C266     1.0000 0.91650  0.17150  0.30980  Biso   1.000  C
  C267     1.0000 0.83350  0.17150  0.44020  Biso   1.000  C
  C268     1.0000 0.83350  0.07850  0.80980  Biso   1.000  C
  C269     1.0000 0.92150  0.16650  0.19020  Biso   1.000  C
  C270     1.0000 0.82850  0.16650  0.55980  Biso   1.000  C
  C271     1.0000 0.82850  0.08350  0.69020  Biso   1.000  C
  C272     1.0000 0.92150  0.08350  0.05980  Biso   1.000  C
  C273     1.0000 0.07850  0.44020  0.41650  Biso   1.000  C
  C274     1.0000 0.67150  0.80980  0.91650  Biso   1.000  C
  C275     1.0000 0.07850  0.80980  0.83350  Biso   1.000  C
  C276     1.0000 0.67150  0.44020  0.33350  Biso   1.000  C
  C277     1.0000 0.55980  0.32850  0.66650  Biso   1.000  C
  C278     1.0000 0.55980  0.92150  0.58350  Biso   1.000  C
  C279     1.0000 0.19020  0.92150  0.16650  Biso   1.000  C
  C280     1.0000 0.19020  0.32850  0.08350  Biso   1.000  C
  C281     1.0000 0.44020  0.91650  0.57850  Biso   1.000  C
  C282     1.0000 0.80980  0.41650  0.17150  Biso   1.000  C
  C283     1.0000 0.80980  0.33350  0.57850  Biso   1.000  C
  C284     1.0000 0.44020  0.83350  0.17150  Biso   1.000  C
  C285     1.0000 0.08350  0.55980  0.42150  Biso   1.000  C
  C286     1.0000 0.08350  0.19020  0.32850  Biso   1.000  C
  C287     1.0000 0.16650  0.05980  0.32850  Biso   1.000  C
  C288     1.0000 0.66650  0.69020  0.92150  Biso   1.000  C
  C289     1.0000 0.58350  0.42150  0.05980  Biso   1.000  C
  C290     1.0000 0.58350  0.32850  0.69020  Biso   1.000  C
  C291     1.0000 0.66650  0.32850  0.55980  Biso   1.000  C
  C292     1.0000 0.66650  0.42150  0.19020  Biso   1.000  C
  C293     1.0000 0.57850  0.33350  0.80980  Biso   1.000  C
  C294     1.0000 0.67150  0.33350  0.44020  Biso   1.000  C
  C295     1.0000 0.67150  0.41650  0.30980  Biso   1.000  C
  C296     1.0000 0.57850  0.41650  0.94020  Biso   1.000  C
  C297     1.0000 0.42150  0.05980  0.58350  Biso   1.000  C
  C298     1.0000 0.82850  0.69020  0.08350  Biso   1.000  C
  C299     1.0000 0.42150  0.69020  0.16650  Biso   1.000  C
  C300     1.0000 0.82850  0.05980  0.66650  Biso   1.000  C
  C301     1.0000 0.94020  0.17150  0.33350  Biso   1.000  C
  C302     1.0000 0.94020  0.57850  0.41650  Biso   1.000  C
  C303     1.0000 0.30980  0.57850  0.83350  Biso   1.000  C
  C304     1.0000 0.30980  0.17150  0.91650  Biso   1.000  C
  C305     1.0000 0.05980  0.58350  0.42150  Biso   1.000  C
  C306     1.0000 0.69020  0.08350  0.82850  Biso   1.000  C
  C307     1.0000 0.69020  0.16650  0.42150  Biso   1.000  C
  C308     1.0000 0.05980  0.66650  0.82850  Biso   1.000  C
  C309     1.0000 0.41650  0.94020  0.57850  Biso   1.000  C
  C310     1.0000 0.41650  0.30980  0.67150  Biso   1.000  C
  C311     1.0000 0.33350  0.44020  0.67150  Biso   1.000  C
  C312     1.0000 0.83350  0.80980  0.07850  Biso   1.000  C
  C313     1.0000 0.58350  0.92150  0.55980  Biso   1.000  C
  C314     1.0000 0.58350  0.82850  0.19020  Biso   1.000  C
  C315     1.0000 0.66650  0.82850  0.05980  Biso   1.000  C
  C316     1.0000 0.66650  0.92150  0.69020  Biso   1.000  C
  C317     1.0000 0.57850  0.83350  0.30980  Biso   1.000  C
  C318     1.0000 0.67150  0.83350  0.94020  Biso   1.000  C
  C319     1.0000 0.67150  0.91650  0.80980  Biso   1.000  C
  C320     1.0000 0.57850  0.91650  0.44020  Biso   1.000  C
  C321     1.0000 0.42150  0.55980  0.08350  Biso   1.000  C
  C322     1.0000 0.82850  0.19020  0.58350  Biso   1.000  C
  C323     1.0000 0.42150  0.19020  0.66650  Biso   1.000  C
  C324     1.0000 0.82850  0.55980  0.16650  Biso   1.000  C
  C325     1.0000 0.94020  0.67150  0.83350  Biso   1.000  C
  C326     1.0000 0.94020  0.07850  0.91650  Biso   1.000  C
  C327     1.0000 0.30980  0.07850  0.33350  Biso   1.000  C
  C328     1.0000 0.30980  0.67150  0.41650  Biso   1.000  C
  C329     1.0000 0.05980  0.08350  0.92150  Biso   1.000  C
  C330     1.0000 0.69020  0.58350  0.32850  Biso   1.000  C
  C331     1.0000 0.69020  0.66650  0.92150  Biso   1.000  C
  C332     1.0000 0.05980  0.16650  0.32850  Biso   1.000  C
  C333     1.0000 0.41650  0.44020  0.07850  Biso   1.000  C
  C334     1.0000 0.41650  0.80980  0.17150  Biso   1.000  C
  C335     1.0000 0.33350  0.94020  0.17150  Biso   1.000  C
  C336     1.0000 0.83350  0.30980  0.57850  Biso   1.000  C
  C337     1.0000 0.08350  0.42150  0.55980  Biso   1.000  C
  C338     1.0000 0.08350  0.32850  0.19020  Biso   1.000  C
  C339     1.0000 0.16650  0.32850  0.05980  Biso   1.000  C
  C340     1.0000 0.16650  0.42150  0.69020  Biso   1.000  C
  C341     1.0000 0.07850  0.33350  0.30980  Biso   1.000  C
  C342     1.0000 0.17150  0.33350  0.94020  Biso   1.000  C
  C343     1.0000 0.17150  0.41650  0.80980  Biso   1.000  C
  C344     1.0000 0.07850  0.41650  0.44020  Biso   1.000  C
  C345     1.0000 0.92150  0.05980  0.08350  Biso   1.000  C
  C346     1.0000 0.32850  0.69020  0.58350  Biso   1.000  C
  C347     1.0000 0.92150  0.69020  0.66650  Biso   1.000  C
  C348     1.0000 0.32850  0.05980  0.16650  Biso   1.000  C
  C349     1.0000 0.44020  0.17150  0.83350  Biso   1.000  C
  C350     1.0000 0.44020  0.57850  0.91650  Biso   1.000  C
  C351     1.0000 0.80980  0.57850  0.33350  Biso   1.000  C
  C352     1.0000 0.80980  0.17150  0.41650  Biso   1.000  C
  C353     1.0000 0.55980  0.58350  0.92150  Biso   1.000  C
  C354     1.0000 0.19020  0.08350  0.32850  Biso   1.000  C
  C355     1.0000 0.19020  0.16650  0.92150  Biso   1.000  C
  C356     1.0000 0.55980  0.66650  0.32850  Biso   1.000  C
  C357     1.0000 0.91650  0.94020  0.07850  Biso   1.000  C
  C358     1.0000 0.91650  0.30980  0.17150  Biso   1.000  C
  C359     1.0000 0.83350  0.44020  0.17150  Biso   1.000  C
  C360     1.0000 0.33350  0.80980  0.57850  Biso   1.000  C
  C361     1.0000 0.08350  0.92150  0.05980  Biso   1.000  C
  C362     1.0000 0.08350  0.82850  0.69020  Biso   1.000  C
  C363     1.0000 0.16650  0.82850  0.55980  Biso   1.000  C
  C364     1.0000 0.16650  0.92150  0.19020  Biso   1.000  C
  C365     1.0000 0.07850  0.83350  0.80980  Biso   1.000  C
  C366     1.0000 0.17150  0.83350  0.44020  Biso   1.000  C
  C367     1.0000 0.17150  0.91650  0.30980  Biso   1.000  C
  C368     1.0000 0.07850  0.91650  0.94020  Biso   1.000  C
  C369     1.0000 0.92150  0.55980  0.58350  Biso   1.000  C
  C370     1.0000 0.32850  0.19020  0.08350  Biso   1.000  C
  C371     1.0000 0.92150  0.19020  0.16650  Biso   1.000  C
  C372     1.0000 0.32850  0.55980  0.66650  Biso   1.000  C
  C373     1.0000 0.44020  0.67150  0.33350  Biso   1.000  C
  C374     1.0000 0.44020  0.07850  0.41650  Biso   1.000  C
  C375     1.0000 0.80980  0.07850  0.83350  Biso   1.000  C
  C376     1.0000 0.80980  0.67150  0.91650  Biso   1.000  C
  C377     1.0000 0.55980  0.08350  0.42150  Biso   1.000  C
  C378     1.0000 0.19020  0.58350  0.82850  Biso   1.000  C
  C379     1.0000 0.19020  0.66650  0.42150  Biso   1.000  C
  C380     1.0000 0.55980  0.16650  0.82850  Biso   1.000  C
  C381     1.0000 0.91650  0.44020  0.57850  Biso   1.000  C
  C382     1.0000 0.91650  0.80980  0.67150  Biso   1.000  C
  C383     1.0000 0.83350  0.94020  0.67150  Biso   1.000  C
  C384     1.0000 0.33350  0.30980  0.07850  Biso   1.000  C
  C385     1.0000 0.43530  0.57570  0.93530  Biso   1.000  C
  C386     1.0000 0.43530  0.67430  0.31470  Biso   1.000  C
  C387     1.0000 0.31470  0.67430  0.43530  Biso   1.000  C
  C388     1.0000 0.31470  0.57570  0.81470  Biso   1.000  C
  C389     1.0000 0.42430  0.68530  0.18530  Biso   1.000  C
  C390     1.0000 0.32570  0.68530  0.56470  Biso   1.000  C
  C391     1.0000 0.32570  0.56470  0.68530  Biso   1.000  C
  C392     1.0000 0.42430  0.56470  0.06470  Biso   1.000  C
  C393     1.0000 0.57570  0.93530  0.43530  Biso   1.000  C
  C394     1.0000 0.17430  0.31470  0.93530  Biso   1.000  C
  C395     1.0000 0.57570  0.31470  0.81470  Biso   1.000  C
  C396     1.0000 0.17430  0.93530  0.31470  Biso   1.000  C
  C397     1.0000 0.06470  0.82570  0.68530  Biso   1.000  C
  C398     1.0000 0.06470  0.42430  0.56470  Biso   1.000  C
  C399     1.0000 0.68530  0.42430  0.18530  Biso   1.000  C
  C400     1.0000 0.68530  0.82570  0.06470  Biso   1.000  C
  C401     1.0000 0.93530  0.43530  0.57570  Biso   1.000  C
  C402     1.0000 0.31470  0.93530  0.17430  Biso   1.000  C
  C403     1.0000 0.31470  0.81470  0.57570  Biso   1.000  C
  C404     1.0000 0.93530  0.31470  0.17430  Biso   1.000  C
  C405     1.0000 0.56470  0.06470  0.42430  Biso   1.000  C
  C406     1.0000 0.56470  0.68530  0.32570  Biso   1.000  C
  C407     1.0000 0.68530  0.56470  0.32570  Biso   1.000  C
  C408     1.0000 0.18530  0.18530  0.92430  Biso   1.000  C
  C409     1.0000 0.43530  0.07570  0.43530  Biso   1.000  C
  C410     1.0000 0.43530  0.17430  0.81470  Biso   1.000  C
  C411     1.0000 0.31470  0.17430  0.93530  Biso   1.000  C
  C412     1.0000 0.31470  0.07570  0.31470  Biso   1.000  C
  C413     1.0000 0.42430  0.18530  0.68530  Biso   1.000  C
  C414     1.0000 0.32570  0.18530  0.06470  Biso   1.000  C
  C415     1.0000 0.32570  0.06470  0.18530  Biso   1.000  C
  C416     1.0000 0.42430  0.06470  0.56470  Biso   1.000  C
  C417     1.0000 0.57570  0.43530  0.93530  Biso   1.000  C
  C418     1.0000 0.17430  0.81470  0.43530  Biso   1.000  C
  C419     1.0000 0.57570  0.81470  0.31470  Biso   1.000  C
  C420     1.0000 0.17430  0.43530  0.81470  Biso   1.000  C
  C421     1.0000 0.06470  0.32570  0.18530  Biso   1.000  C
  C422     1.0000 0.06470  0.92430  0.06470  Biso   1.000  C
  C423     1.0000 0.68530  0.92430  0.68530  Biso   1.000  C
  C424     1.0000 0.68530  0.32570  0.56470  Biso   1.000  C
  C425     1.0000 0.93530  0.93530  0.07570  Biso   1.000  C
  C426     1.0000 0.31470  0.43530  0.67430  Biso   1.000  C
  C427     1.0000 0.31470  0.31470  0.07570  Biso   1.000  C
  C428     1.0000 0.93530  0.81470  0.67430  Biso   1.000  C
  C429     1.0000 0.56470  0.56470  0.92430  Biso   1.000  C
  C430     1.0000 0.56470  0.18530  0.82570  Biso   1.000  C
  C431     1.0000 0.68530  0.06470  0.82570  Biso   1.000  C
  C432     1.0000 0.18530  0.68530  0.42430  Biso   1.000  C
  C433     1.0000 0.93530  0.57570  0.43530  Biso   1.000  C
  C434     1.0000 0.93530  0.67430  0.81470  Biso   1.000  C
  C435     1.0000 0.81470  0.67430  0.93530  Biso   1.000  C
  C436     1.0000 0.81470  0.57570  0.31470  Biso   1.000  C
  C437     1.0000 0.92430  0.68530  0.68530  Biso   1.000  C
  C438     1.0000 0.82570  0.68530  0.06470  Biso   1.000  C
  C439     1.0000 0.82570  0.56470  0.18530  Biso   1.000  C
  C440     1.0000 0.92430  0.56470  0.56470  Biso   1.000  C
  C441     1.0000 0.07570  0.93530  0.93530  Biso   1.000  C
  C442     1.0000 0.67430  0.31470  0.43530  Biso   1.000  C
  C443     1.0000 0.07570  0.31470  0.31470  Biso   1.000  C
  C444     1.0000 0.67430  0.93530  0.81470  Biso   1.000  C
  C445     1.0000 0.56470  0.82570  0.18530  Biso   1.000  C
  C446     1.0000 0.56470  0.42430  0.06470  Biso   1.000  C
  C447     1.0000 0.18530  0.42430  0.68530  Biso   1.000  C
  C448     1.0000 0.18530  0.82570  0.56470  Biso   1.000  C
  C449     1.0000 0.43530  0.43530  0.07570  Biso   1.000  C
  C450     1.0000 0.81470  0.93530  0.67430  Biso   1.000  C
  C451     1.0000 0.81470  0.81470  0.07570  Biso   1.000  C
  C452     1.0000 0.43530  0.31470  0.67430  Biso   1.000  C
  C453     1.0000 0.06470  0.06470  0.92430  Biso   1.000  C
  C454     1.0000 0.06470  0.68530  0.82570  Biso   1.000  C
  C455     1.0000 0.18530  0.56470  0.82570  Biso   1.000  C
  C456     1.0000 0.68530  0.18530  0.42430  Biso   1.000  C
  C457     1.0000 0.93530  0.07570  0.93530  Biso   1.000  C
  C458     1.0000 0.93530  0.17430  0.31470  Biso   1.000  C
  C459     1.0000 0.81470  0.17430  0.43530  Biso   1.000  C
  C460     1.0000 0.81470  0.07570  0.81470  Biso   1.000  C
  C461     1.0000 0.92430  0.18530  0.18530  Biso   1.000  C
  C462     1.0000 0.82570  0.18530  0.56470  Biso   1.000  C
  C463     1.0000 0.82570  0.06470  0.68530  Biso   1.000  C
  C464     1.0000 0.92430  0.06470  0.06470  Biso   1.000  C
  C465     1.0000 0.07570  0.43530  0.43530  Biso   1.000  C
  C466     1.0000 0.67430  0.81470  0.93530  Biso   1.000  C
  C467     1.0000 0.07570  0.81470  0.81470  Biso   1.000  C
  C468     1.0000 0.67430  0.43530  0.31470  Biso   1.000  C
  C469     1.0000 0.56470  0.32570  0.68530  Biso   1.000  C
  C470     1.0000 0.56470  0.92430  0.56470  Biso   1.000  C
  C471     1.0000 0.18530  0.92430  0.18530  Biso   1.000  C
  C472     1.0000 0.18530  0.32570  0.06470  Biso   1.000  C
  C473     1.0000 0.43530  0.93530  0.57570  Biso   1.000  C
  C474     1.0000 0.81470  0.43530  0.17430  Biso   1.000  C
  C475     1.0000 0.81470  0.31470  0.57570  Biso   1.000  C
  C476     1.0000 0.43530  0.81470  0.17430  Biso   1.000  C
  C477     1.0000 0.06470  0.56470  0.42430  Biso   1.000  C
  C478     1.0000 0.06470  0.18530  0.32570  Biso   1.000  C
  C479     1.0000 0.18530  0.06470  0.32570  Biso   1.000  C
  C480     1.0000 0.68530  0.68530  0.92430  Biso   1.000  C
  H1       1.0000 0.44430  0.57210  0.94430  Biso   1.000  H
  H2       1.0000 0.44430  0.67790  0.30570  Biso   1.000  H
  H3       1.0000 0.30570  0.67790  0.44430  Biso   1.000  H
  H4       1.0000 0.30570  0.57210  0.80570  Biso   1.000  H
  H5       1.0000 0.42790  0.69430  0.19430  Biso   1.000  H
  H6       1.0000 0.32210  0.69430  0.55570  Biso   1.000  H
  H7       1.0000 0.32210  0.55570  0.69430  Biso   1.000  H
  H8       1.0000 0.42790  0.55570  0.05570  Biso   1.000  H
  H9       1.0000 0.57210  0.94430  0.44430  Biso   1.000  H
  H10      1.0000 0.17790  0.30570  0.94430  Biso   1.000  H
  H11      1.0000 0.57210  0.30570  0.80570  Biso   1.000  H
  H12      1.0000 0.17790  0.94430  0.30570  Biso   1.000  H
  H13      1.0000 0.05570  0.82210  0.69430  Biso   1.000  H
  H14      1.0000 0.05570  0.42790  0.55570  Biso   1.000  H
  H15      1.0000 0.69430  0.42790  0.19430  Biso   1.000  H
  H16      1.0000 0.69430  0.82210  0.05570  Biso   1.000  H
  H17      1.0000 0.94430  0.44430  0.57210  Biso   1.000  H
  H18      1.0000 0.30570  0.94430  0.17790  Biso   1.000  H
  H19      1.0000 0.30570  0.80570  0.57210  Biso   1.000  H
  H20      1.0000 0.94430  0.30570  0.17790  Biso   1.000  H
  H21      1.0000 0.55570  0.05570  0.42790  Biso   1.000  H
  H22      1.0000 0.55570  0.69430  0.32210  Biso   1.000  H
  H23      1.0000 0.69430  0.55570  0.32210  Biso   1.000  H
  H24      1.0000 0.19430  0.19430  0.92790  Biso   1.000  H
  H25      1.0000 0.44430  0.07210  0.44430  Biso   1.000  H
  H26      1.0000 0.44430  0.17790  0.80570  Biso   1.000  H
  H27      1.0000 0.30570  0.17790  0.94430  Biso   1.000  H
  H28      1.0000 0.30570  0.07210  0.30570  Biso   1.000  H
  H29      1.0000 0.42790  0.19430  0.69430  Biso   1.000  H
  H30      1.0000 0.32210  0.19430  0.05570  Biso   1.000  H
  H31      1.0000 0.32210  0.05570  0.19430  Biso   1.000  H
  H32      1.0000 0.42790  0.05570  0.55570  Biso   1.000  H
  H33      1.0000 0.57210  0.44430  0.94430  Biso   1.000  H
  H34      1.0000 0.17790  0.80570  0.44430  Biso   1.000  H
  H35      1.0000 0.57210  0.80570  0.30570  Biso   1.000  H
  H36      1.0000 0.17790  0.44430  0.80570  Biso   1.000  H
  H37      1.0000 0.05570  0.32210  0.19430  Biso   1.000  H
  H38      1.0000 0.05570  0.92790  0.05570  Biso   1.000  H
  H39      1.0000 0.69430  0.92790  0.69430  Biso   1.000  H
  H40      1.0000 0.69430  0.32210  0.55570  Biso   1.000  H
  H41      1.0000 0.94430  0.94430  0.07210  Biso   1.000  H
  H42      1.0000 0.30570  0.44430  0.67790  Biso   1.000  H
  H43      1.0000 0.30570  0.30570  0.07210  Biso   1.000  H
  H44      1.0000 0.94430  0.80570  0.67790  Biso   1.000  H
  H45      1.0000 0.55570  0.55570  0.92790  Biso   1.000  H
  H46      1.0000 0.55570  0.19430  0.82210  Biso   1.000  H
  H47      1.0000 0.69430  0.05570  0.82210  Biso   1.000  H
  H48      1.0000 0.19430  0.69430  0.42790  Biso   1.000  H
  H49      1.0000 0.94430  0.57210  0.44430  Biso   1.000  H
  H50      1.0000 0.94430  0.67790  0.80570  Biso   1.000  H
  H51      1.0000 0.80570  0.67790  0.94430  Biso   1.000  H
  H52      1.0000 0.80570  0.57210  0.30570  Biso   1.000  H
  H53      1.0000 0.92790  0.69430  0.69430  Biso   1.000  H
  H54      1.0000 0.82210  0.69430  0.05570  Biso   1.000  H
  H55      1.0000 0.82210  0.55570  0.19430  Biso   1.000  H
  H56      1.0000 0.92790  0.55570  0.55570  Biso   1.000  H
  H57      1.0000 0.07210  0.94430  0.94430  Biso   1.000  H
  H58      1.0000 0.67790  0.30570  0.44430  Biso   1.000  H
  H59      1.0000 0.07210  0.30570  0.30570  Biso   1.000  H
  H60      1.0000 0.67790  0.94430  0.80570  Biso   1.000  H
  H61      1.0000 0.55570  0.82210  0.19430  Biso   1.000  H
  H62      1.0000 0.55570  0.42790  0.05570  Biso   1.000  H
  H63      1.0000 0.19430  0.42790  0.69430  Biso   1.000  H
  H64      1.0000 0.19430  0.82210  0.55570  Biso   1.000  H
  H65      1.0000 0.44430  0.44430  0.07210  Biso   1.000  H
  H66      1.0000 0.80570  0.94430  0.67790  Biso   1.000  H
  H67      1.0000 0.80570  0.80570  0.07210  Biso   1.000  H
  H68      1.0000 0.44430  0.30570  0.67790  Biso   1.000  H
  H69      1.0000 0.05570  0.05570  0.92790  Biso   1.000  H
  H70      1.0000 0.05570  0.69430  0.82210  Biso   1.000  H
  H71      1.0000 0.19430  0.55570  0.82210  Biso   1.000  H
  H72      1.0000 0.69430  0.19430  0.42790  Biso   1.000  H
  H73      1.0000 0.94430  0.07210  0.94430  Biso   1.000  H
  H74      1.0000 0.94430  0.17790  0.30570  Biso   1.000  H
  H75      1.0000 0.80570  0.17790  0.44430  Biso   1.000  H
  H76      1.0000 0.80570  0.07210  0.80570  Biso   1.000  H
  H77      1.0000 0.92790  0.19430  0.19430  Biso   1.000  H
  H78      1.0000 0.82210  0.19430  0.55570  Biso   1.000  H
  H79      1.0000 0.82210  0.05570  0.69430  Biso   1.000  H
  H80      1.0000 0.92790  0.05570  0.05570  Biso   1.000  H
  H81      1.0000 0.07210  0.44430  0.44430  Biso   1.000  H
  H82      1.0000 0.67790  0.80570  0.94430  Biso   1.000  H
  H83      1.0000 0.07210  0.80570  0.80570  Biso   1.000  H
  H84      1.0000 0.67790  0.44430  0.30570  Biso   1.000  H
  H85      1.0000 0.55570  0.32210  0.69430  Biso   1.000  H
  H86      1.0000 0.55570  0.92790  0.55570  Biso   1.000  H
  H87      1.0000 0.19430  0.92790  0.19430  Biso   1.000  H
  H88      1.0000 0.19430  0.32210  0.05570  Biso   1.000  H
  H89      1.0000 0.44430  0.94430  0.57210  Biso   1.000  H
  H90      1.0000 0.80570  0.44430  0.17790  Biso   1.000  H
  H91      1.0000 0.80570  0.30570  0.57210  Biso   1.000  H
  H92      1.0000 0.44430  0.80570  0.17790  Biso   1.000  H
  H93      1.0000 0.05570  0.55570  0.42790  Biso   1.000  H
  H94      1.0000 0.05570  0.19430  0.32210  Biso   1.000  H
  H95      1.0000 0.19430  0.05570  0.32210  Biso   1.000  H
  H96      1.0000 0.69430  0.69430  0.92790  Biso   1.000  H
  C481     1.0000 0.40270  0.58490  0.92720  Biso   1.000  C
  C482     1.0000 0.40270  0.66510  0.32280  Biso   1.000  C
  C483     1.0000 0.34730  0.66510  0.42720  Biso   1.000  C
  C484     1.0000 0.34730  0.58490  0.82280  Biso   1.000  C
  C485     1.0000 0.41510  0.65270  0.17720  Biso   1.000  C
  C486     1.0000 0.33490  0.65270  0.57280  Biso   1.000  C
  C487     1.0000 0.33490  0.59730  0.67720  Biso   1.000  C
  C488     1.0000 0.41510  0.59730  0.07280  Biso   1.000  C
  C489     1.0000 0.58490  0.92720  0.40270  Biso   1.000  C
  C490     1.0000 0.16510  0.32280  0.90270  Biso   1.000  C
  C491     1.0000 0.58490  0.32280  0.84730  Biso   1.000  C
  C492     1.0000 0.16510  0.92720  0.34730  Biso   1.000  C
  C493     1.0000 0.07280  0.83490  0.65270  Biso   1.000  C
  C494     1.0000 0.07280  0.41510  0.59730  Biso   1.000  C
  C495     1.0000 0.67720  0.41510  0.15270  Biso   1.000  C
  C496     1.0000 0.67720  0.83490  0.09730  Biso   1.000  C
  C497     1.0000 0.92720  0.40270  0.58490  Biso   1.000  C
  C498     1.0000 0.32280  0.90270  0.16510  Biso   1.000  C
  C499     1.0000 0.32280  0.84730  0.58490  Biso   1.000  C
  C500     1.0000 0.92720  0.34730  0.16510  Biso   1.000  C
  C501     1.0000 0.59730  0.07280  0.41510  Biso   1.000  C
  C502     1.0000 0.59730  0.67720  0.33490  Biso   1.000  C
  C503     1.0000 0.65270  0.57280  0.33490  Biso   1.000  C
  C504     1.0000 0.15270  0.17720  0.91510  Biso   1.000  C
  C505     1.0000 0.40270  0.08490  0.42720  Biso   1.000  C
  C506     1.0000 0.40270  0.16510  0.82280  Biso   1.000  C
  C507     1.0000 0.34730  0.16510  0.92720  Biso   1.000  C
  C508     1.0000 0.34730  0.08490  0.32280  Biso   1.000  C
  C509     1.0000 0.41510  0.15270  0.67720  Biso   1.000  C
  C510     1.0000 0.33490  0.15270  0.07280  Biso   1.000  C
  C511     1.0000 0.33490  0.09730  0.17720  Biso   1.000  C
  C512     1.0000 0.41510  0.09730  0.57280  Biso   1.000  C
  C513     1.0000 0.58490  0.42720  0.90270  Biso   1.000  C
  C514     1.0000 0.16510  0.82280  0.40270  Biso   1.000  C
  C515     1.0000 0.58490  0.82280  0.34730  Biso   1.000  C
  C516     1.0000 0.16510  0.42720  0.84730  Biso   1.000  C
  C517     1.0000 0.07280  0.33490  0.15270  Biso   1.000  C
  C518     1.0000 0.07280  0.91510  0.09730  Biso   1.000  C
  C519     1.0000 0.67720  0.91510  0.65270  Biso   1.000  C
  C520     1.0000 0.67720  0.33490  0.59730  Biso   1.000  C
  C521     1.0000 0.92720  0.90270  0.08490  Biso   1.000  C
  C522     1.0000 0.32280  0.40270  0.66510  Biso   1.000  C
  C523     1.0000 0.32280  0.34730  0.08490  Biso   1.000  C
  C524     1.0000 0.92720  0.84730  0.66510  Biso   1.000  C
  C525     1.0000 0.59730  0.57280  0.91510  Biso   1.000  C
  C526     1.0000 0.59730  0.17720  0.83490  Biso   1.000  C
  C527     1.0000 0.65270  0.07280  0.83490  Biso   1.000  C
  C528     1.0000 0.15270  0.67720  0.41510  Biso   1.000  C
  C529     1.0000 0.90270  0.58490  0.42720  Biso   1.000  C
  C530     1.0000 0.90270  0.66510  0.82280  Biso   1.000  C
  C531     1.0000 0.84730  0.66510  0.92720  Biso   1.000  C
  C532     1.0000 0.84730  0.58490  0.32280  Biso   1.000  C
  C533     1.0000 0.91510  0.65270  0.67720  Biso   1.000  C
  C534     1.0000 0.83490  0.65270  0.07280  Biso   1.000  C
  C535     1.0000 0.83490  0.59730  0.17720  Biso   1.000  C
  C536     1.0000 0.91510  0.59730  0.57280  Biso   1.000  C
  C537     1.0000 0.08490  0.92720  0.90270  Biso   1.000  C
  C538     1.0000 0.66510  0.32280  0.40270  Biso   1.000  C
  C539     1.0000 0.08490  0.32280  0.34730  Biso   1.000  C
  C540     1.0000 0.66510  0.92720  0.84730  Biso   1.000  C
  C541     1.0000 0.57280  0.83490  0.15270  Biso   1.000  C
  C542     1.0000 0.57280  0.41510  0.09730  Biso   1.000  C
  C543     1.0000 0.17720  0.41510  0.65270  Biso   1.000  C
  C544     1.0000 0.17720  0.83490  0.59730  Biso   1.000  C
  C545     1.0000 0.42720  0.40270  0.08490  Biso   1.000  C
  C546     1.0000 0.82280  0.90270  0.66510  Biso   1.000  C
  C547     1.0000 0.82280  0.84730  0.08490  Biso   1.000  C
  C548     1.0000 0.42720  0.34730  0.66510  Biso   1.000  C
  C549     1.0000 0.09730  0.07280  0.91510  Biso   1.000  C
  C550     1.0000 0.09730  0.67720  0.83490  Biso   1.000  C
  C551     1.0000 0.15270  0.57280  0.83490  Biso   1.000  C
  C552     1.0000 0.65270  0.17720  0.41510  Biso   1.000  C
  C553     1.0000 0.90270  0.08490  0.92720  Biso   1.000  C
  C554     1.0000 0.90270  0.16510  0.32280  Biso   1.000  C
  C555     1.0000 0.84730  0.16510  0.42720  Biso   1.000  C
  C556     1.0000 0.84730  0.08490  0.82280  Biso   1.000  C
  C557     1.0000 0.91510  0.15270  0.17720  Biso   1.000  C
  C558     1.0000 0.83490  0.15270  0.57280  Biso   1.000  C
  C559     1.0000 0.83490  0.09730  0.67720  Biso   1.000  C
  C560     1.0000 0.91510  0.09730  0.07280  Biso   1.000  C
  C561     1.0000 0.08490  0.42720  0.40270  Biso   1.000  C
  C562     1.0000 0.66510  0.82280  0.90270  Biso   1.000  C
  C563     1.0000 0.08490  0.82280  0.84730  Biso   1.000  C
  C564     1.0000 0.66510  0.42720  0.34730  Biso   1.000  C
  C565     1.0000 0.57280  0.33490  0.65270  Biso   1.000  C
  C566     1.0000 0.57280  0.91510  0.59730  Biso   1.000  C
  C567     1.0000 0.17720  0.91510  0.15270  Biso   1.000  C
  C568     1.0000 0.17720  0.33490  0.09730  Biso   1.000  C
  C569     1.0000 0.42720  0.90270  0.58490  Biso   1.000  C
  C570     1.0000 0.82280  0.40270  0.16510  Biso   1.000  C
  C571     1.0000 0.82280  0.34730  0.58490  Biso   1.000  C
  C572     1.0000 0.42720  0.84730  0.16510  Biso   1.000  C
  C573     1.0000 0.09730  0.57280  0.41510  Biso   1.000  C
  C574     1.0000 0.09730  0.17720  0.33490  Biso   1.000  C
  C575     1.0000 0.15270  0.07280  0.33490  Biso   1.000  C
  C576     1.0000 0.65270  0.67720  0.91510  Biso   1.000  C
  C577     1.0000 0.59730  0.41510  0.07280  Biso   1.000  C
  C578     1.0000 0.59730  0.33490  0.67720  Biso   1.000  C
  C579     1.0000 0.65270  0.33490  0.57280  Biso   1.000  C
  C580     1.0000 0.65270  0.41510  0.17720  Biso   1.000  C
  C581     1.0000 0.58490  0.34730  0.82280  Biso   1.000  C
  C582     1.0000 0.66510  0.34730  0.42720  Biso   1.000  C
  C583     1.0000 0.66510  0.40270  0.32280  Biso   1.000  C
  C584     1.0000 0.58490  0.40270  0.92720  Biso   1.000  C
  C585     1.0000 0.41510  0.07280  0.59730  Biso   1.000  C
  C586     1.0000 0.83490  0.67720  0.09730  Biso   1.000  C
  C587     1.0000 0.41510  0.67720  0.15270  Biso   1.000  C
  C588     1.0000 0.83490  0.07280  0.65270  Biso   1.000  C
  C589     1.0000 0.92720  0.16510  0.34730  Biso   1.000  C
  C590     1.0000 0.92720  0.58490  0.40270  Biso   1.000  C
  C591     1.0000 0.32280  0.58490  0.84730  Biso   1.000  C
  C592     1.0000 0.32280  0.16510  0.90270  Biso   1.000  C
  C593     1.0000 0.07280  0.59730  0.41510  Biso   1.000  C
  C594     1.0000 0.67720  0.09730  0.83490  Biso   1.000  C
  C595     1.0000 0.67720  0.15270  0.41510  Biso   1.000  C
  C596     1.0000 0.07280  0.65270  0.83490  Biso   1.000  C
  C597     1.0000 0.40270  0.92720  0.58490  Biso   1.000  C
  C598     1.0000 0.40270  0.32280  0.66510  Biso   1.000  C
  C599     1.0000 0.34730  0.42720  0.66510  Biso   1.000  C
  C600     1.0000 0.84730  0.82280  0.08490  Biso   1.000  C
  C601     1.0000 0.59730  0.91510  0.57280  Biso   1.000  C
  C602     1.0000 0.59730  0.83490  0.17720  Biso   1.000  C
  C603     1.0000 0.65270  0.83490  0.07280  Biso   1.000  C
  C604     1.0000 0.65270  0.91510  0.67720  Biso   1.000  C
  C605     1.0000 0.58490  0.84730  0.32280  Biso   1.000  C
  C606     1.0000 0.66510  0.84730  0.92720  Biso   1.000  C
  C607     1.0000 0.66510  0.90270  0.82280  Biso   1.000  C
  C608     1.0000 0.58490  0.90270  0.42720  Biso   1.000  C
  C609     1.0000 0.41510  0.57280  0.09730  Biso   1.000  C
  C610     1.0000 0.83490  0.17720  0.59730  Biso   1.000  C
  C611     1.0000 0.41510  0.17720  0.65270  Biso   1.000  C
  C612     1.0000 0.83490  0.57280  0.15270  Biso   1.000  C
  C613     1.0000 0.92720  0.66510  0.84730  Biso   1.000  C
  C614     1.0000 0.92720  0.08490  0.90270  Biso   1.000  C
  C615     1.0000 0.32280  0.08490  0.34730  Biso   1.000  C
  C616     1.0000 0.32280  0.66510  0.40270  Biso   1.000  C
  C617     1.0000 0.07280  0.09730  0.91510  Biso   1.000  C
  C618     1.0000 0.67720  0.59730  0.33490  Biso   1.000  C
  C619     1.0000 0.67720  0.65270  0.91510  Biso   1.000  C
  C620     1.0000 0.07280  0.15270  0.33490  Biso   1.000  C
  C621     1.0000 0.40270  0.42720  0.08490  Biso   1.000  C
  C622     1.0000 0.40270  0.82280  0.16510  Biso   1.000  C
  C623     1.0000 0.34730  0.92720  0.16510  Biso   1.000  C
  C624     1.0000 0.84730  0.32280  0.58490  Biso   1.000  C
  C625     1.0000 0.09730  0.41510  0.57280  Biso   1.000  C
  C626     1.0000 0.09730  0.33490  0.17720  Biso   1.000  C
  C627     1.0000 0.15270  0.33490  0.07280  Biso   1.000  C
  C628     1.0000 0.15270  0.41510  0.67720  Biso   1.000  C
  C629     1.0000 0.08490  0.34730  0.32280  Biso   1.000  C
  C630     1.0000 0.16510  0.34730  0.92720  Biso   1.000  C
  C631     1.0000 0.16510  0.40270  0.82280  Biso   1.000  C
  C632     1.0000 0.08490  0.40270  0.42720  Biso   1.000  C
  C633     1.0000 0.91510  0.07280  0.09730  Biso   1.000  C
  C634     1.0000 0.33490  0.67720  0.59730  Biso   1.000  C
  C635     1.0000 0.91510  0.67720  0.65270  Biso   1.000  C
  C636     1.0000 0.33490  0.07280  0.15270  Biso   1.000  C
  C637     1.0000 0.42720  0.16510  0.84730  Biso   1.000  C
  C638     1.0000 0.42720  0.58490  0.90270  Biso   1.000  C
  C639     1.0000 0.82280  0.58490  0.34730  Biso   1.000  C
  C640     1.0000 0.82280  0.16510  0.40270  Biso   1.000  C
  C641     1.0000 0.57280  0.59730  0.91510  Biso   1.000  C
  C642     1.0000 0.17720  0.09730  0.33490  Biso   1.000  C
  C643     1.0000 0.17720  0.15270  0.91510  Biso   1.000  C
  C644     1.0000 0.57280  0.65270  0.33490  Biso   1.000  C
  C645     1.0000 0.90270  0.92720  0.08490  Biso   1.000  C
  C646     1.0000 0.90270  0.32280  0.16510  Biso   1.000  C
  C647     1.0000 0.84730  0.42720  0.16510  Biso   1.000  C
  C648     1.0000 0.34730  0.82280  0.58490  Biso   1.000  C
  C649     1.0000 0.09730  0.91510  0.07280  Biso   1.000  C
  C650     1.0000 0.09730  0.83490  0.67720  Biso   1.000  C
  C651     1.0000 0.15270  0.83490  0.57280  Biso   1.000  C
  C652     1.0000 0.15270  0.91510  0.17720  Biso   1.000  C
  C653     1.0000 0.08490  0.84730  0.82280  Biso   1.000  C
  C654     1.0000 0.16510  0.84730  0.42720  Biso   1.000  C
  C655     1.0000 0.16510  0.90270  0.32280  Biso   1.000  C
  C656     1.0000 0.08490  0.90270  0.92720  Biso   1.000  C
  C657     1.0000 0.91510  0.57280  0.59730  Biso   1.000  C
  C658     1.0000 0.33490  0.17720  0.09730  Biso   1.000  C
  C659     1.0000 0.91510  0.17720  0.15270  Biso   1.000  C
  C660     1.0000 0.33490  0.57280  0.65270  Biso   1.000  C
  C661     1.0000 0.42720  0.66510  0.34730  Biso   1.000  C
  C662     1.0000 0.42720  0.08490  0.40270  Biso   1.000  C
  C663     1.0000 0.82280  0.08490  0.84730  Biso   1.000  C
  C664     1.0000 0.82280  0.66510  0.90270  Biso   1.000  C
  C665     1.0000 0.57280  0.09730  0.41510  Biso   1.000  C
  C666     1.0000 0.17720  0.59730  0.83490  Biso   1.000  C
  C667     1.0000 0.17720  0.65270  0.41510  Biso   1.000  C
  C668     1.0000 0.57280  0.15270  0.83490  Biso   1.000  C
  C669     1.0000 0.90270  0.42720  0.58490  Biso   1.000  C
  C670     1.0000 0.90270  0.82280  0.66510  Biso   1.000  C
  C671     1.0000 0.84730  0.92720  0.66510  Biso   1.000  C
  C672     1.0000 0.34730  0.32280  0.08490  Biso   1.000  C
  H97      1.0000 0.39020  0.58720  0.93110  Biso   1.000  H
  H98      1.0000 0.39020  0.66280  0.31890  Biso   1.000  H
  H99      1.0000 0.35980  0.66280  0.43110  Biso   1.000  H
  H100     1.0000 0.35980  0.58720  0.81890  Biso   1.000  H
  H101     1.0000 0.41280  0.64020  0.18110  Biso   1.000  H
  H102     1.0000 0.33720  0.64020  0.56890  Biso   1.000  H
  H103     1.0000 0.33720  0.60980  0.68110  Biso   1.000  H
  H104     1.0000 0.41280  0.60980  0.06890  Biso   1.000  H
  H105     1.0000 0.58720  0.93110  0.39020  Biso   1.000  H
  H106     1.0000 0.16280  0.31890  0.89020  Biso   1.000  H
  H107     1.0000 0.58720  0.31890  0.85980  Biso   1.000  H
  H108     1.0000 0.16280  0.93110  0.35980  Biso   1.000  H
  H109     1.0000 0.06890  0.83720  0.64020  Biso   1.000  H
  H110     1.0000 0.06890  0.41280  0.60980  Biso   1.000  H
  H111     1.0000 0.68110  0.41280  0.14020  Biso   1.000  H
  H112     1.0000 0.68110  0.83720  0.10980  Biso   1.000  H
  H113     1.0000 0.93110  0.39020  0.58720  Biso   1.000  H
  H114     1.0000 0.31890  0.89020  0.16280  Biso   1.000  H
  H115     1.0000 0.31890  0.85980  0.58720  Biso   1.000  H
  H116     1.0000 0.93110  0.35980  0.16280  Biso   1.000  H
  H117     1.0000 0.60980  0.06890  0.41280  Biso   1.000  H
  H118     1.0000 0.60980  0.68110  0.33720  Biso   1.000  H
  H119     1.0000 0.64020  0.56890  0.33720  Biso   1.000  H
  H120     1.0000 0.14020  0.18110  0.91280  Biso   1.000  H
  H121     1.0000 0.39020  0.08720  0.43110  Biso   1.000  H
  H122     1.0000 0.39020  0.16280  0.81890  Biso   1.000  H
  H123     1.0000 0.35980  0.16280  0.93110  Biso   1.000  H
  H124     1.0000 0.35980  0.08720  0.31890  Biso   1.000  H
  H125     1.0000 0.41280  0.14020  0.68110  Biso   1.000  H
  H126     1.0000 0.33720  0.14020  0.06890  Biso   1.000  H
  H127     1.0000 0.33720  0.10980  0.18110  Biso   1.000  H
  H128     1.0000 0.41280  0.10980  0.56890  Biso   1.000  H
  H129     1.0000 0.58720  0.43110  0.89020  Biso   1.000  H
  H130     1.0000 0.16280  0.81890  0.39020  Biso   1.000  H
  H131     1.0000 0.58720  0.81890  0.35980  Biso   1.000  H
  H132     1.0000 0.16280  0.43110  0.85980  Biso   1.000  H
  H133     1.0000 0.06890  0.33720  0.14020  Biso   1.000  H
  H134     1.0000 0.06890  0.91280  0.10980  Biso   1.000  H
  H135     1.0000 0.68110  0.91280  0.64020  Biso   1.000  H
  H136     1.0000 0.68110  0.33720  0.60980  Biso   1.000  H
  H137     1.0000 0.93110  0.89020  0.08720  Biso   1.000  H
  H138     1.0000 0.31890  0.39020  0.66280  Biso   1.000  H
  H139     1.0000 0.31890  0.35980  0.08720  Biso   1.000  H
  H140     1.0000 0.93110  0.85980  0.66280  Biso   1.000  H
  H141     1.0000 0.60980  0.56890  0.91280  Biso   1.000  H
  H142     1.0000 0.60980  0.18110  0.83720  Biso   1.000  H
  H143     1.0000 0.64020  0.06890  0.83720  Biso   1.000  H
  H144     1.0000 0.14020  0.68110  0.41280  Biso   1.000  H
  H145     1.0000 0.89020  0.58720  0.43110  Biso   1.000  H
  H146     1.0000 0.89020  0.66280  0.81890  Biso   1.000  H
  H147     1.0000 0.85980  0.66280  0.93110  Biso   1.000  H
  H148     1.0000 0.85980  0.58720  0.31890  Biso   1.000  H
  H149     1.0000 0.91280  0.64020  0.68110  Biso   1.000  H
  H150     1.0000 0.83720  0.64020  0.06890  Biso   1.000  H
  H151     1.0000 0.83720  0.60980  0.18110  Biso   1.000  H
  H152     1.0000 0.91280  0.60980  0.56890  Biso   1.000  H
  H153     1.0000 0.08720  0.93110  0.89020  Biso   1.000  H
  H154     1.0000 0.66280  0.31890  0.39020  Biso   1.000  H
  H155     1.0000 0.08720  0.31890  0.35980  Biso   1.000  H
  H156     1.0000 0.66280  0.93110  0.85980  Biso   1.000  H
  H157     1.0000 0.56890  0.83720  0.14020  Biso   1.000  H
  H158     1.0000 0.56890  0.41280  0.10980  Biso   1.000  H
  H159     1.0000 0.18110  0.41280  0.64020  Biso   1.000  H
  H160     1.0000 0.18110  0.83720  0.60980  Biso   1.000  H
  H161     1.0000 0.43110  0.39020  0.08720  Biso   1.000  H
  H162     1.0000 0.81890  0.89020  0.66280  Biso   1.000  H
  H163     1.0000 0.81890  0.85980  0.08720  Biso   1.000  H
  H164     1.0000 0.43110  0.35980  0.66280  Biso   1.000  H
  H165     1.0000 0.10980  0.06890  0.91280  Biso   1.000  H
  H166     1.0000 0.10980  0.68110  0.83720  Biso   1.000  H
  H167     1.0000 0.14020  0.56890  0.83720  Biso   1.000  H
  H168     1.0000 0.64020  0.18110  0.41280  Biso   1.000  H
  H169     1.0000 0.89020  0.08720  0.93110  Biso   1.000  H
  H170     1.0000 0.89020  0.16280  0.31890  Biso   1.000  H
  H171     1.0000 0.85980  0.16280  0.43110  Biso   1.000  H
  H172     1.0000 0.85980  0.08720  0.81890  Biso   1.000  H
  H173     1.0000 0.91280  0.14020  0.18110  Biso   1.000  H
  H174     1.0000 0.83720  0.14020  0.56890  Biso   1.000  H
  H175     1.0000 0.83720  0.10980  0.68110  Biso   1.000  H
  H176     1.0000 0.91280  0.10980  0.06890  Biso   1.000  H
  H177     1.0000 0.08720  0.43110  0.39020  Biso   1.000  H
  H178     1.0000 0.66280  0.81890  0.89020  Biso   1.000  H
  H179     1.0000 0.08720  0.81890  0.85980  Biso   1.000  H
  H180     1.0000 0.66280  0.43110  0.35980  Biso   1.000  H
  H181     1.0000 0.56890  0.33720  0.64020  Biso   1.000  H
  H182     1.0000 0.56890  0.91280  0.60980  Biso   1.000  H
  H183     1.0000 0.18110  0.91280  0.14020  Biso   1.000  H
  H184     1.0000 0.18110  0.33720  0.10980  Biso   1.000  H
  H185     1.0000 0.43110  0.89020  0.58720  Biso   1.000  H
  H186     1.0000 0.81890  0.39020  0.16280  Biso   1.000  H
  H187     1.0000 0.81890  0.35980  0.58720  Biso   1.000  H
  H188     1.0000 0.43110  0.85980  0.16280  Biso   1.000  H
  H189     1.0000 0.10980  0.56890  0.41280  Biso   1.000  H
  H190     1.0000 0.10980  0.18110  0.33720  Biso   1.000  H
  H191     1.0000 0.14020  0.06890  0.33720  Biso   1.000  H
  H192     1.0000 0.64020  0.68110  0.91280  Biso   1.000  H
  H193     1.0000 0.60980  0.41280  0.06890  Biso   1.000  H
  H194     1.0000 0.60980  0.33720  0.68110  Biso   1.000  H
  H195     1.0000 0.64020  0.33720  0.56890  Biso   1.000  H
  H196     1.0000 0.64020  0.41280  0.18110  Biso   1.000  H
  H197     1.0000 0.58720  0.35980  0.81890  Biso   1.000  H
  H198     1.0000 0.66280  0.35980  0.43110  Biso   1.000  H
  H199     1.0000 0.66280  0.39020  0.31890  Biso   1.000  H
  H200     1.0000 0.58720  0.39020  0.93110  Biso   1.000  H
  H201     1.0000 0.41280  0.06890  0.60980  Biso   1.000  H
  H202     1.0000 0.83720  0.68110  0.10980  Biso   1.000  H
  H203     1.0000 0.41280  0.68110  0.14020  Biso   1.000  H
  H204     1.0000 0.83720  0.06890  0.64020  Biso   1.000  H
  H205     1.0000 0.93110  0.16280  0.35980  Biso   1.000  H
  H206     1.0000 0.93110  0.58720  0.39020  Biso   1.000  H
  H207     1.0000 0.31890  0.58720  0.85980  Biso   1.000  H
  H208     1.0000 0.31890  0.16280  0.89020  Biso   1.000  H
  H209     1.0000 0.06890  0.60980  0.41280  Biso   1.000  H
  H210     1.0000 0.68110  0.10980  0.83720  Biso   1.000  H
  H211     1.0000 0.68110  0.14020  0.41280  Biso   1.000  H
  H212     1.0000 0.06890  0.64020  0.83720  Biso   1.000  H
  H213     1.0000 0.39020  0.93110  0.58720  Biso   1.000  H
  H214     1.0000 0.39020  0.31890  0.66280  Biso   1.000  H
  H215     1.0000 0.35980  0.43110  0.66280  Biso   1.000  H
  H216     1.0000 0.85980  0.81890  0.08720  Biso   1.000  H
  H217     1.0000 0.60980  0.91280  0.56890  Biso   1.000  H
  H218     1.0000 0.60980  0.83720  0.18110  Biso   1.000  H
  H219     1.0000 0.64020  0.83720  0.06890  Biso   1.000  H
  H220     1.0000 0.64020  0.91280  0.68110  Biso   1.000  H
  H221     1.0000 0.58720  0.85980  0.31890  Biso   1.000  H
  H222     1.0000 0.66280  0.85980  0.93110  Biso   1.000  H
  H223     1.0000 0.66280  0.89020  0.81890  Biso   1.000  H
  H224     1.0000 0.58720  0.89020  0.43110  Biso   1.000  H
  H225     1.0000 0.41280  0.56890  0.10980  Biso   1.000  H
  H226     1.0000 0.83720  0.18110  0.60980  Biso   1.000  H
  H227     1.0000 0.41280  0.18110  0.64020  Biso   1.000  H
  H228     1.0000 0.83720  0.56890  0.14020  Biso   1.000  H
  H229     1.0000 0.93110  0.66280  0.85980  Biso   1.000  H
  H230     1.0000 0.93110  0.08720  0.89020  Biso   1.000  H
  H231     1.0000 0.31890  0.08720  0.35980  Biso   1.000  H
  H232     1.0000 0.31890  0.66280  0.39020  Biso   1.000  H
  H233     1.0000 0.06890  0.10980  0.91280  Biso   1.000  H
  H234     1.0000 0.68110  0.60980  0.33720  Biso   1.000  H
  H235     1.0000 0.68110  0.64020  0.91280  Biso   1.000  H
  H236     1.0000 0.06890  0.14020  0.33720  Biso   1.000  H
  H237     1.0000 0.39020  0.43110  0.08720  Biso   1.000  H
  H238     1.0000 0.39020  0.81890  0.16280  Biso   1.000  H
  H239     1.0000 0.35980  0.93110  0.16280  Biso   1.000  H
  H240     1.0000 0.85980  0.31890  0.58720  Biso   1.000  H
  H241     1.0000 0.10980  0.41280  0.56890  Biso   1.000  H
  H242     1.0000 0.10980  0.33720  0.18110  Biso   1.000  H
  H243     1.0000 0.14020  0.33720  0.06890  Biso   1.000  H
  H244     1.0000 0.14020  0.41280  0.68110  Biso   1.000  H
  H245     1.0000 0.08720  0.35980  0.31890  Biso   1.000  H
  H246     1.0000 0.16280  0.35980  0.93110  Biso   1.000  H
  H247     1.0000 0.16280  0.39020  0.81890  Biso   1.000  H
  H248     1.0000 0.08720  0.39020  0.43110  Biso   1.000  H
  H249     1.0000 0.91280  0.06890  0.10980  Biso   1.000  H
  H250     1.0000 0.33720  0.68110  0.60980  Biso   1.000  H
  H251     1.0000 0.91280  0.68110  0.64020  Biso   1.000  H
  H252     1.0000 0.33720  0.06890  0.14020  Biso   1.000  H
  H253     1.0000 0.43110  0.16280  0.85980  Biso   1.000  H
  H254     1.0000 0.43110  0.58720  0.89020  Biso   1.000  H
  H255     1.0000 0.81890  0.58720  0.35980  Biso   1.000  H
  H256     1.0000 0.81890  0.16280  0.39020  Biso   1.000  H
  H257     1.0000 0.56890  0.60980  0.91280  Biso   1.000  H
  H258     1.0000 0.18110  0.10980  0.33720  Biso   1.000  H
  H259     1.0000 0.18110  0.14020  0.91280  Biso   1.000  H
  H260     1.0000 0.56890  0.64020  0.33720  Biso   1.000  H
  H261     1.0000 0.89020  0.93110  0.08720  Biso   1.000  H
  H262     1.0000 0.89020  0.31890  0.16280  Biso   1.000  H
  H263     1.0000 0.85980  0.43110  0.16280  Biso   1.000  H
  H264     1.0000 0.35980  0.81890  0.58720  Biso   1.000  H
  H265     1.0000 0.10980  0.91280  0.06890  Biso   1.000  H
  H266     1.0000 0.10980  0.83720  0.68110  Biso   1.000  H
  H267     1.0000 0.14020  0.83720  0.56890  Biso   1.000  H
  H268     1.0000 0.14020  0.91280  0.18110  Biso   1.000  H
  H269     1.0000 0.08720  0.85980  0.81890  Biso   1.000  H
  H270     1.0000 0.16280  0.85980  0.43110  Biso   1.000  H
  H271     1.0000 0.16280  0.89020  0.31890  Biso   1.000  H
  H272     1.0000 0.08720  0.89020  0.93110  Biso   1.000  H
  H273     1.0000 0.91280  0.56890  0.60980  Biso   1.000  H
  H274     1.0000 0.33720  0.18110  0.10980  Biso   1.000  H
  H275     1.0000 0.91280  0.18110  0.14020  Biso   1.000  H
  H276     1.0000 0.33720  0.56890  0.64020  Biso   1.000  H
  H277     1.0000 0.43110  0.66280  0.35980  Biso   1.000  H
  H278     1.0000 0.43110  0.08720  0.39020  Biso   1.000  H
  H279     1.0000 0.81890  0.08720  0.85980  Biso   1.000  H
  H280     1.0000 0.81890  0.66280  0.89020  Biso   1.000  H
  H281     1.0000 0.56890  0.10980  0.41280  Biso   1.000  H
  H282     1.0000 0.18110  0.60980  0.83720  Biso   1.000  H
  H283     1.0000 0.18110  0.64020  0.41280  Biso   1.000  H
  H284     1.0000 0.56890  0.14020  0.83720  Biso   1.000  H
  H285     1.0000 0.89020  0.43110  0.58720  Biso   1.000  H
  H286     1.0000 0.89020  0.81890  0.66280  Biso   1.000  H
  H287     1.0000 0.85980  0.93110  0.66280  Biso   1.000  H
  H288     1.0000 0.35980  0.31890  0.08720  Biso   1.000  H
  C673     1.0000 0.40830  0.58770  0.90830  Biso   1.000  C
  C674     1.0000 0.40830  0.66230  0.34170  Biso   1.000  C
  C675     1.0000 0.34170  0.66230  0.40830  Biso   1.000  C
  C676     1.0000 0.34170  0.58770  0.84170  Biso   1.000  C
  C677     1.0000 0.41230  0.65830  0.15830  Biso   1.000  C
  C678     1.0000 0.33770  0.65830  0.59170  Biso   1.000  C
  C679     1.0000 0.33770  0.59170  0.65830  Biso   1.000  C
  C680     1.0000 0.41230  0.59170  0.09170  Biso   1.000  C
  C681     1.0000 0.58770  0.90830  0.40830  Biso   1.000  C
  C682     1.0000 0.16230  0.34170  0.90830  Biso   1.000  C
  C683     1.0000 0.58770  0.34170  0.84170  Biso   1.000  C
  C684     1.0000 0.16230  0.90830  0.34170  Biso   1.000  C
  C685     1.0000 0.09170  0.83770  0.65830  Biso   1.000  C
  C686     1.0000 0.09170  0.41230  0.59170  Biso   1.000  C
  C687     1.0000 0.65830  0.41230  0.15830  Biso   1.000  C
  C688     1.0000 0.65830  0.83770  0.09170  Biso   1.000  C
  C689     1.0000 0.90830  0.40830  0.58770  Biso   1.000  C
  C690     1.0000 0.34170  0.90830  0.16230  Biso   1.000  C
  C691     1.0000 0.34170  0.84170  0.58770  Biso   1.000  C
  C692     1.0000 0.90830  0.34170  0.16230  Biso   1.000  C
  C693     1.0000 0.59170  0.09170  0.41230  Biso   1.000  C
  C694     1.0000 0.59170  0.65830  0.33770  Biso   1.000  C
  C695     1.0000 0.65830  0.59170  0.33770  Biso   1.000  C
  C696     1.0000 0.15830  0.15830  0.91230  Biso   1.000  C
  C697     1.0000 0.40830  0.08770  0.40830  Biso   1.000  C
  C698     1.0000 0.40830  0.16230  0.84170  Biso   1.000  C
  C699     1.0000 0.34170  0.16230  0.90830  Biso   1.000  C
  C700     1.0000 0.34170  0.08770  0.34170  Biso   1.000  C
  C701     1.0000 0.41230  0.15830  0.65830  Biso   1.000  C
  C702     1.0000 0.33770  0.15830  0.09170  Biso   1.000  C
  C703     1.0000 0.33770  0.09170  0.15830  Biso   1.000  C
  C704     1.0000 0.41230  0.09170  0.59170  Biso   1.000  C
  C705     1.0000 0.58770  0.40830  0.90830  Biso   1.000  C
  C706     1.0000 0.16230  0.84170  0.40830  Biso   1.000  C
  C707     1.0000 0.58770  0.84170  0.34170  Biso   1.000  C
  C708     1.0000 0.16230  0.40830  0.84170  Biso   1.000  C
  C709     1.0000 0.09170  0.33770  0.15830  Biso   1.000  C
  C710     1.0000 0.09170  0.91230  0.09170  Biso   1.000  C
  C711     1.0000 0.65830  0.91230  0.65830  Biso   1.000  C
  C712     1.0000 0.65830  0.33770  0.59170  Biso   1.000  C
  C713     1.0000 0.90830  0.90830  0.08770  Biso   1.000  C
  C714     1.0000 0.34170  0.40830  0.66230  Biso   1.000  C
  C715     1.0000 0.34170  0.34170  0.08770  Biso   1.000  C
  C716     1.0000 0.90830  0.84170  0.66230  Biso   1.000  C
  C717     1.0000 0.59170  0.59170  0.91230  Biso   1.000  C
  C718     1.0000 0.59170  0.15830  0.83770  Biso   1.000  C
  C719     1.0000 0.65830  0.09170  0.83770  Biso   1.000  C
  C720     1.0000 0.15830  0.65830  0.41230  Biso   1.000  C
  C721     1.0000 0.90830  0.58770  0.40830  Biso   1.000  C
  C722     1.0000 0.90830  0.66230  0.84170  Biso   1.000  C
  C723     1.0000 0.84170  0.66230  0.90830  Biso   1.000  C
  C724     1.0000 0.84170  0.58770  0.34170  Biso   1.000  C
  C725     1.0000 0.91230  0.65830  0.65830  Biso   1.000  C
  C726     1.0000 0.83770  0.65830  0.09170  Biso   1.000  C
  C727     1.0000 0.83770  0.59170  0.15830  Biso   1.000  C
  C728     1.0000 0.91230  0.59170  0.59170  Biso   1.000  C
  C729     1.0000 0.08770  0.90830  0.90830  Biso   1.000  C
  C730     1.0000 0.66230  0.34170  0.40830  Biso   1.000  C
  C731     1.0000 0.08770  0.34170  0.34170  Biso   1.000  C
  C732     1.0000 0.66230  0.90830  0.84170  Biso   1.000  C
  C733     1.0000 0.59170  0.83770  0.15830  Biso   1.000  C
  C734     1.0000 0.59170  0.41230  0.09170  Biso   1.000  C
  C735     1.0000 0.15830  0.41230  0.65830  Biso   1.000  C
  C736     1.0000 0.15830  0.83770  0.59170  Biso   1.000  C
  C737     1.0000 0.40830  0.40830  0.08770  Biso   1.000  C
  C738     1.0000 0.84170  0.90830  0.66230  Biso   1.000  C
  C739     1.0000 0.84170  0.84170  0.08770  Biso   1.000  C
  C740     1.0000 0.40830  0.34170  0.66230  Biso   1.000  C
  C741     1.0000 0.09170  0.09170  0.91230  Biso   1.000  C
  C742     1.0000 0.09170  0.65830  0.83770  Biso   1.000  C
  C743     1.0000 0.15830  0.59170  0.83770  Biso   1.000  C
  C744     1.0000 0.65830  0.15830  0.41230  Biso   1.000  C
  C745     1.0000 0.90830  0.08770  0.90830  Biso   1.000  C
  C746     1.0000 0.90830  0.16230  0.34170  Biso   1.000  C
  C747     1.0000 0.84170  0.16230  0.40830  Biso   1.000  C
  C748     1.0000 0.84170  0.08770  0.84170  Biso   1.000  C
  C749     1.0000 0.91230  0.15830  0.15830  Biso   1.000  C
  C750     1.0000 0.83770  0.15830  0.59170  Biso   1.000  C
  C751     1.0000 0.83770  0.09170  0.65830  Biso   1.000  C
  C752     1.0000 0.91230  0.09170  0.09170  Biso   1.000  C
  C753     1.0000 0.08770  0.40830  0.40830  Biso   1.000  C
  C754     1.0000 0.66230  0.84170  0.90830  Biso   1.000  C
  C755     1.0000 0.08770  0.84170  0.84170  Biso   1.000  C
  C756     1.0000 0.66230  0.40830  0.34170  Biso   1.000  C
  C757     1.0000 0.59170  0.33770  0.65830  Biso   1.000  C
  C758     1.0000 0.59170  0.91230  0.59170  Biso   1.000  C
  C759     1.0000 0.15830  0.91230  0.15830  Biso   1.000  C
  C760     1.0000 0.15830  0.33770  0.09170  Biso   1.000  C
  C761     1.0000 0.40830  0.90830  0.58770  Biso   1.000  C
  C762     1.0000 0.84170  0.40830  0.16230  Biso   1.000  C
  C763     1.0000 0.84170  0.34170  0.58770  Biso   1.000  C
  C764     1.0000 0.40830  0.84170  0.16230  Biso   1.000  C
  C765     1.0000 0.09170  0.59170  0.41230  Biso   1.000  C
  C766     1.0000 0.09170  0.15830  0.33770  Biso   1.000  C
  C767     1.0000 0.15830  0.09170  0.33770  Biso   1.000  C
  C768     1.0000 0.65830  0.65830  0.91230  Biso   1.000  C
  C769     1.0000 0.39440  0.59580  0.89440  Biso   1.000  C
  C770     1.0000 0.39440  0.65420  0.35560  Biso   1.000  C
  C771     1.0000 0.35560  0.65420  0.39440  Biso   1.000  C
  C772     1.0000 0.35560  0.59580  0.85560  Biso   1.000  C
  C773     1.0000 0.40420  0.64440  0.14440  Biso   1.000  C
  C774     1.0000 0.34580  0.64440  0.60560  Biso   1.000  C
  C775     1.0000 0.34580  0.60560  0.64440  Biso   1.000  C
  C776     1.0000 0.40420  0.60560  0.10560  Biso   1.000  C
  C777     1.0000 0.59580  0.89440  0.39440  Biso   1.000  C
  C778     1.0000 0.15420  0.35560  0.89440  Biso   1.000  C
  C779     1.0000 0.59580  0.35560  0.85560  Biso   1.000  C
  C780     1.0000 0.15420  0.89440  0.35560  Biso   1.000  C
  C781     1.0000 0.10560  0.84580  0.64440  Biso   1.000  C
  C782     1.0000 0.10560  0.40420  0.60560  Biso   1.000  C
  C783     1.0000 0.64440  0.40420  0.14440  Biso   1.000  C
  C784     1.0000 0.64440  0.84580  0.10560  Biso   1.000  C
  C785     1.0000 0.89440  0.39440  0.59580  Biso   1.000  C
  C786     1.0000 0.35560  0.89440  0.15420  Biso   1.000  C
  C787     1.0000 0.35560  0.85560  0.59580  Biso   1.000  C
  C788     1.0000 0.89440  0.35560  0.15420  Biso   1.000  C
  C789     1.0000 0.60560  0.10560  0.40420  Biso   1.000  C
  C790     1.0000 0.60560  0.64440  0.34580  Biso   1.000  C
  C791     1.0000 0.64440  0.60560  0.34580  Biso   1.000  C
  C792     1.0000 0.14440  0.14440  0.90420  Biso   1.000  C
  C793     1.0000 0.39440  0.09580  0.39440  Biso   1.000  C
  C794     1.0000 0.39440  0.15420  0.85560  Biso   1.000  C
  C795     1.0000 0.35560  0.15420  0.89440  Biso   1.000  C
  C796     1.0000 0.35560  0.09580  0.35560  Biso   1.000  C
  C797     1.0000 0.40420  0.14440  0.64440  Biso   1.000  C
  C798     1.0000 0.34580  0.14440  0.10560  Biso   1.000  C
  C799     1.0000 0.34580  0.10560  0.14440  Biso   1.000  C
  C800     1.0000 0.40420  0.10560  0.60560  Biso   1.000  C
  C801     1.0000 0.59580  0.39440  0.89440  Biso   1.000  C
  C802     1.0000 0.15420  0.85560  0.39440  Biso   1.000  C
  C803     1.0000 0.59580  0.85560  0.35560  Biso   1.000  C
  C804     1.0000 0.15420  0.39440  0.85560  Biso   1.000  C
  C805     1.0000 0.10560  0.34580  0.14440  Biso   1.000  C
  C806     1.0000 0.10560  0.90420  0.10560  Biso   1.000  C
  C807     1.0000 0.64440  0.90420  0.64440  Biso   1.000  C
  C808     1.0000 0.64440  0.34580  0.60560  Biso   1.000  C
  C809     1.0000 0.89440  0.89440  0.09580  Biso   1.000  C
  C810     1.0000 0.35560  0.39440  0.65420  Biso   1.000  C
  C811     1.0000 0.35560  0.35560  0.09580  Biso   1.000  C
  C812     1.0000 0.89440  0.85560  0.65420  Biso   1.000  C
  C813     1.0000 0.60560  0.60560  0.90420  Biso   1.000  C
  C814     1.0000 0.60560  0.14440  0.84580  Biso   1.000  C
  C815     1.0000 0.64440  0.10560  0.84580  Biso   1.000  C
  C816     1.0000 0.14440  0.64440  0.40420  Biso   1.000  C
  C817     1.0000 0.89440  0.59580  0.39440  Biso   1.000  C
  C818     1.0000 0.89440  0.65420  0.85560  Biso   1.000  C
  C819     1.0000 0.85560  0.65420  0.89440  Biso   1.000  C
  C820     1.0000 0.85560  0.59580  0.35560  Biso   1.000  C
  C821     1.0000 0.90420  0.64440  0.64440  Biso   1.000  C
  C822     1.0000 0.84580  0.64440  0.10560  Biso   1.000  C
  C823     1.0000 0.84580  0.60560  0.14440  Biso   1.000  C
  C824     1.0000 0.90420  0.60560  0.60560  Biso   1.000  C
  C825     1.0000 0.09580  0.89440  0.89440  Biso   1.000  C
  C826     1.0000 0.65420  0.35560  0.39440  Biso   1.000  C
  C827     1.0000 0.09580  0.35560  0.35560  Biso   1.000  C
  C828     1.0000 0.65420  0.89440  0.85560  Biso   1.000  C
  C829     1.0000 0.60560  0.84580  0.14440  Biso   1.000  C
  C830     1.0000 0.60560  0.40420  0.10560  Biso   1.000  C
  C831     1.0000 0.14440  0.40420  0.64440  Biso   1.000  C
  C832     1.0000 0.14440  0.84580  0.60560  Biso   1.000  C
  C833     1.0000 0.39440  0.39440  0.09580  Biso   1.000  C
  C834     1.0000 0.85560  0.89440  0.65420  Biso   1.000  C
  C835     1.0000 0.85560  0.85560  0.09580  Biso   1.000  C
  C836     1.0000 0.39440  0.35560  0.65420  Biso   1.000  C
  C837     1.0000 0.10560  0.10560  0.90420  Biso   1.000  C
  C838     1.0000 0.10560  0.64440  0.84580  Biso   1.000  C
  C839     1.0000 0.14440  0.60560  0.84580  Biso   1.000  C
  C840     1.0000 0.64440  0.14440  0.40420  Biso   1.000  C
  C841     1.0000 0.89440  0.09580  0.89440  Biso   1.000  C
  C842     1.0000 0.89440  0.15420  0.35560  Biso   1.000  C
  C843     1.0000 0.85560  0.15420  0.39440  Biso   1.000  C
  C844     1.0000 0.85560  0.09580  0.85560  Biso   1.000  C
  C845     1.0000 0.90420  0.14440  0.14440  Biso   1.000  C
  C846     1.0000 0.84580  0.14440  0.60560  Biso   1.000  C
  C847     1.0000 0.84580  0.10560  0.64440  Biso   1.000  C
  C848     1.0000 0.90420  0.10560  0.10560  Biso   1.000  C
  C849     1.0000 0.09580  0.39440  0.39440  Biso   1.000  C
  C850     1.0000 0.65420  0.85560  0.89440  Biso   1.000  C
  C851     1.0000 0.09580  0.85560  0.85560  Biso   1.000  C
  C852     1.0000 0.65420  0.39440  0.35560  Biso   1.000  C
  C853     1.0000 0.60560  0.34580  0.64440  Biso   1.000  C
  C854     1.0000 0.60560  0.90420  0.60560  Biso   1.000  C
  C855     1.0000 0.14440  0.90420  0.14440  Biso   1.000  C
  C856     1.0000 0.14440  0.34580  0.10560  Biso   1.000  C
  C857     1.0000 0.39440  0.89440  0.59580  Biso   1.000  C
  C858     1.0000 0.85560  0.39440  0.15420  Biso   1.000  C
  C859     1.0000 0.85560  0.35560  0.59580  Biso   1.000  C
  C860     1.0000 0.39440  0.85560  0.15420  Biso   1.000  C
  C861     1.0000 0.10560  0.60560  0.40420  Biso   1.000  C
  C862     1.0000 0.10560  0.14440  0.34580  Biso   1.000  C
  C863     1.0000 0.14440  0.10560  0.34580  Biso   1.000  C
  C864     1.0000 0.64440  0.64440  0.90420  Biso   1.000  C
  C865     1.0000 0.39030  0.55502  0.00520  Biso   1.000  C
  C866     1.0000 0.39030  0.69498  0.24480  Biso   1.000  C
  C867     1.0000 0.35970  0.69498  0.50520  Biso   1.000  C
  C868     1.0000 0.35970  0.55502  0.74480  Biso   1.000  C
  C869     1.0000 0.44498  0.64030  0.25520  Biso   1.000  C
  C870     1.0000 0.30502  0.64030  0.49480  Biso   1.000  C
  C871     1.0000 0.30502  0.60970  0.75520  Biso   1.000  C
  C872     1.0000 0.44498  0.60970  0.99480  Biso   1.000  C
  C873     1.0000 0.55502  0.00520  0.39030  Biso   1.000  C
  C874     1.0000 0.19498  0.24480  0.89030  Biso   1.000  C
  C875     1.0000 0.55502  0.24480  0.85970  Biso   1.000  C
  C876     1.0000 0.19498  0.00520  0.35970  Biso   1.000  C
  C877     1.0000 0.99480  0.80502  0.64030  Biso   1.000  C
  C878     1.0000 0.99480  0.44498  0.60970  Biso   1.000  C
  C879     1.0000 0.75520  0.44498  0.14030  Biso   1.000  C
  C880     1.0000 0.75520  0.80502  0.10970  Biso   1.000  C
  C881     1.0000 0.00520  0.39030  0.55502  Biso   1.000  C
  C882     1.0000 0.24480  0.89030  0.19498  Biso   1.000  C
  C883     1.0000 0.24480  0.85970  0.55502  Biso   1.000  C
  C884     1.0000 0.00520  0.35970  0.19498  Biso   1.000  C
  C885     1.0000 0.60970  0.99480  0.44498  Biso   1.000  C
  C886     1.0000 0.60970  0.75520  0.30502  Biso   1.000  C
  C887     1.0000 0.64030  0.49480  0.30502  Biso   1.000  C
  C888     1.0000 0.14030  0.25520  0.94498  Biso   1.000  C
  C889     1.0000 0.39030  0.05502  0.50520  Biso   1.000  C
  C890     1.0000 0.39030  0.19498  0.74480  Biso   1.000  C
  C891     1.0000 0.35970  0.19498  0.00520  Biso   1.000  C
  C892     1.0000 0.35970  0.05502  0.24480  Biso   1.000  C
  C893     1.0000 0.44498  0.14030  0.75520  Biso   1.000  C
  C894     1.0000 0.30502  0.14030  0.99480  Biso   1.000  C
  C895     1.0000 0.30502  0.10970  0.25520  Biso   1.000  C
  C896     1.0000 0.44498  0.10970  0.49480  Biso   1.000  C
  C897     1.0000 0.55502  0.50520  0.89030  Biso   1.000  C
  C898     1.0000 0.19498  0.74480  0.39030  Biso   1.000  C
  C899     1.0000 0.55502  0.74480  0.35970  Biso   1.000  C
  C900     1.0000 0.19498  0.50520  0.85970  Biso   1.000  C
  C901     1.0000 0.99480  0.30502  0.14030  Biso   1.000  C
  C902     1.0000 0.99480  0.94498  0.10970  Biso   1.000  C
  C903     1.0000 0.75520  0.94498  0.64030  Biso   1.000  C
  C904     1.0000 0.75520  0.30502  0.60970  Biso   1.000  C
  C905     1.0000 0.00520  0.89030  0.05502  Biso   1.000  C
  C906     1.0000 0.24480  0.39030  0.69498  Biso   1.000  C
  C907     1.0000 0.24480  0.35970  0.05502  Biso   1.000  C
  C908     1.0000 0.00520  0.85970  0.69498  Biso   1.000  C
  C909     1.0000 0.60970  0.49480  0.94498  Biso   1.000  C
  C910     1.0000 0.60970  0.25520  0.80502  Biso   1.000  C
  C911     1.0000 0.64030  0.99480  0.80502  Biso   1.000  C
  C912     1.0000 0.14030  0.75520  0.44498  Biso   1.000  C
  C913     1.0000 0.89030  0.55502  0.50520  Biso   1.000  C
  C914     1.0000 0.89030  0.69498  0.74480  Biso   1.000  C
  C915     1.0000 0.85970  0.69498  0.00520  Biso   1.000  C
  C916     1.0000 0.85970  0.55502  0.24480  Biso   1.000  C
  C917     1.0000 0.94498  0.64030  0.75520  Biso   1.000  C
  C918     1.0000 0.80502  0.64030  0.99480  Biso   1.000  C
  C919     1.0000 0.80502  0.60970  0.25520  Biso   1.000  C
  C920     1.0000 0.94498  0.60970  0.49480  Biso   1.000  C
  C921     1.0000 0.05502  0.00520  0.89030  Biso   1.000  C
  C922     1.0000 0.69498  0.24480  0.39030  Biso   1.000  C
  C923     1.0000 0.05502  0.24480  0.35970  Biso   1.000  C
  C924     1.0000 0.69498  0.00520  0.85970  Biso   1.000  C
  C925     1.0000 0.49480  0.80502  0.14030  Biso   1.000  C
  C926     1.0000 0.49480  0.44498  0.10970  Biso   1.000  C
  C927     1.0000 0.25520  0.44498  0.64030  Biso   1.000  C
  C928     1.0000 0.25520  0.80502  0.60970  Biso   1.000  C
  C929     1.0000 0.50520  0.39030  0.05502  Biso   1.000  C
  C930     1.0000 0.74480  0.89030  0.69498  Biso   1.000  C
  C931     1.0000 0.74480  0.85970  0.05502  Biso   1.000  C
  C932     1.0000 0.50520  0.35970  0.69498  Biso   1.000  C
  C933     1.0000 0.10970  0.99480  0.94498  Biso   1.000  C
  C934     1.0000 0.10970  0.75520  0.80502  Biso   1.000  C
  C935     1.0000 0.14030  0.49480  0.80502  Biso   1.000  C
  C936     1.0000 0.64030  0.25520  0.44498  Biso   1.000  C
  C937     1.0000 0.89030  0.05502  0.00520  Biso   1.000  C
  C938     1.0000 0.89030  0.19498  0.24480  Biso   1.000  C
  C939     1.0000 0.85970  0.19498  0.50520  Biso   1.000  C
  C940     1.0000 0.85970  0.05502  0.74480  Biso   1.000  C
  C941     1.0000 0.94498  0.14030  0.25520  Biso   1.000  C
  C942     1.0000 0.80502  0.14030  0.49480  Biso   1.000  C
  C943     1.0000 0.80502  0.10970  0.75520  Biso   1.000  C
  C944     1.0000 0.94498  0.10970  0.99480  Biso   1.000  C
  C945     1.0000 0.05502  0.50520  0.39030  Biso   1.000  C
  C946     1.0000 0.69498  0.74480  0.89030  Biso   1.000  C
  C947     1.0000 0.05502  0.74480  0.85970  Biso   1.000  C
  C948     1.0000 0.69498  0.50520  0.35970  Biso   1.000  C
  C949     1.0000 0.49480  0.30502  0.64030  Biso   1.000  C
  C950     1.0000 0.49480  0.94498  0.60970  Biso   1.000  C
  C951     1.0000 0.25520  0.94498  0.14030  Biso   1.000  C
  C952     1.0000 0.25520  0.30502  0.10970  Biso   1.000  C
  C953     1.0000 0.50520  0.89030  0.55502  Biso   1.000  C
  C954     1.0000 0.74480  0.39030  0.19498  Biso   1.000  C
  C955     1.0000 0.74480  0.35970  0.55502  Biso   1.000  C
  C956     1.0000 0.50520  0.85970  0.19498  Biso   1.000  C
  C957     1.0000 0.10970  0.49480  0.44498  Biso   1.000  C
  C958     1.0000 0.10970  0.25520  0.30502  Biso   1.000  C
  C959     1.0000 0.14030  0.99480  0.30502  Biso   1.000  C
  C960     1.0000 0.64030  0.75520  0.94498  Biso   1.000  C
  C961     1.0000 0.60970  0.44498  0.99480  Biso   1.000  C
  C962     1.0000 0.60970  0.30502  0.75520  Biso   1.000  C
  C963     1.0000 0.64030  0.30502  0.49480  Biso   1.000  C
  C964     1.0000 0.64030  0.44498  0.25520  Biso   1.000  C
  C965     1.0000 0.55502  0.35970  0.74480  Biso   1.000  C
  C966     1.0000 0.69498  0.35970  0.50520  Biso   1.000  C
  C967     1.0000 0.69498  0.39030  0.24480  Biso   1.000  C
  C968     1.0000 0.55502  0.39030  0.00520  Biso   1.000  C
  C969     1.0000 0.44498  0.99480  0.60970  Biso   1.000  C
  C970     1.0000 0.80502  0.75520  0.10970  Biso   1.000  C
  C971     1.0000 0.44498  0.75520  0.14030  Biso   1.000  C
  C972     1.0000 0.80502  0.99480  0.64030  Biso   1.000  C
  C973     1.0000 0.00520  0.19498  0.35970  Biso   1.000  C
  C974     1.0000 0.00520  0.55502  0.39030  Biso   1.000  C
  C975     1.0000 0.24480  0.55502  0.85970  Biso   1.000  C
  C976     1.0000 0.24480  0.19498  0.89030  Biso   1.000  C
  C977     1.0000 0.99480  0.60970  0.44498  Biso   1.000  C
  C978     1.0000 0.75520  0.10970  0.80502  Biso   1.000  C
  C979     1.0000 0.75520  0.14030  0.44498  Biso   1.000  C
  C980     1.0000 0.99480  0.64030  0.80502  Biso   1.000  C
  C981     1.0000 0.39030  0.00520  0.55502  Biso   1.000  C
  C982     1.0000 0.39030  0.24480  0.69498  Biso   1.000  C
  C983     1.0000 0.35970  0.50520  0.69498  Biso   1.000  C
  C984     1.0000 0.85970  0.74480  0.05502  Biso   1.000  C
  C985     1.0000 0.60970  0.94498  0.49480  Biso   1.000  C
  C986     1.0000 0.60970  0.80502  0.25520  Biso   1.000  C
  C987     1.0000 0.64030  0.80502  0.99480  Biso   1.000  C
  C988     1.0000 0.64030  0.94498  0.75520  Biso   1.000  C
  C989     1.0000 0.55502  0.85970  0.24480  Biso   1.000  C
  C990     1.0000 0.69498  0.85970  0.00520  Biso   1.000  C
  C991     1.0000 0.69498  0.89030  0.74480  Biso   1.000  C
  C992     1.0000 0.55502  0.89030  0.50520  Biso   1.000  C
  C993     1.0000 0.44498  0.49480  0.10970  Biso   1.000  C
  C994     1.0000 0.80502  0.25520  0.60970  Biso   1.000  C
  C995     1.0000 0.44498  0.25520  0.64030  Biso   1.000  C
  C996     1.0000 0.80502  0.49480  0.14030  Biso   1.000  C
  C997     1.0000 0.00520  0.69498  0.85970  Biso   1.000  C
  C998     1.0000 0.00520  0.05502  0.89030  Biso   1.000  C
  C999     1.0000 0.24480  0.05502  0.35970  Biso   1.000  C
  C1000    1.0000 0.24480  0.69498  0.39030  Biso   1.000  C
  C1001    1.0000 0.99480  0.10970  0.94498  Biso   1.000  C
  C1002    1.0000 0.75520  0.60970  0.30502  Biso   1.000  C
  C1003    1.0000 0.75520  0.64030  0.94498  Biso   1.000  C
  C1004    1.0000 0.99480  0.14030  0.30502  Biso   1.000  C
  C1005    1.0000 0.39030  0.50520  0.05502  Biso   1.000  C
  C1006    1.0000 0.39030  0.74480  0.19498  Biso   1.000  C
  C1007    1.0000 0.35970  0.00520  0.19498  Biso   1.000  C
  C1008    1.0000 0.85970  0.24480  0.55502  Biso   1.000  C
  C1009    1.0000 0.10970  0.44498  0.49480  Biso   1.000  C
  C1010    1.0000 0.10970  0.30502  0.25520  Biso   1.000  C
  C1011    1.0000 0.14030  0.30502  0.99480  Biso   1.000  C
  C1012    1.0000 0.14030  0.44498  0.75520  Biso   1.000  C
  C1013    1.0000 0.05502  0.35970  0.24480  Biso   1.000  C
  C1014    1.0000 0.19498  0.35970  0.00520  Biso   1.000  C
  C1015    1.0000 0.19498  0.39030  0.74480  Biso   1.000  C
  C1016    1.0000 0.05502  0.39030  0.50520  Biso   1.000  C
  C1017    1.0000 0.94498  0.99480  0.10970  Biso   1.000  C
  C1018    1.0000 0.30502  0.75520  0.60970  Biso   1.000  C
  C1019    1.0000 0.94498  0.75520  0.64030  Biso   1.000  C
  C1020    1.0000 0.30502  0.99480  0.14030  Biso   1.000  C
  C1021    1.0000 0.50520  0.19498  0.85970  Biso   1.000  C
  C1022    1.0000 0.50520  0.55502  0.89030  Biso   1.000  C
  C1023    1.0000 0.74480  0.55502  0.35970  Biso   1.000  C
  C1024    1.0000 0.74480  0.19498  0.39030  Biso   1.000  C
  C1025    1.0000 0.49480  0.60970  0.94498  Biso   1.000  C
  C1026    1.0000 0.25520  0.10970  0.30502  Biso   1.000  C
  C1027    1.0000 0.25520  0.14030  0.94498  Biso   1.000  C
  C1028    1.0000 0.49480  0.64030  0.30502  Biso   1.000  C
  C1029    1.0000 0.89030  0.00520  0.05502  Biso   1.000  C
  C1030    1.0000 0.89030  0.24480  0.19498  Biso   1.000  C
  C1031    1.0000 0.85970  0.50520  0.19498  Biso   1.000  C
  C1032    1.0000 0.35970  0.74480  0.55502  Biso   1.000  C
  C1033    1.0000 0.10970  0.94498  0.99480  Biso   1.000  C
  C1034    1.0000 0.10970  0.80502  0.75520  Biso   1.000  C
  C1035    1.0000 0.14030  0.80502  0.49480  Biso   1.000  C
  C1036    1.0000 0.14030  0.94498  0.25520  Biso   1.000  C
  C1037    1.0000 0.05502  0.85970  0.74480  Biso   1.000  C
  C1038    1.0000 0.19498  0.85970  0.50520  Biso   1.000  C
  C1039    1.0000 0.19498  0.89030  0.24480  Biso   1.000  C
  C1040    1.0000 0.05502  0.89030  0.00520  Biso   1.000  C
  C1041    1.0000 0.94498  0.49480  0.60970  Biso   1.000  C
  C1042    1.0000 0.30502  0.25520  0.10970  Biso   1.000  C
  C1043    1.0000 0.94498  0.25520  0.14030  Biso   1.000  C
  C1044    1.0000 0.30502  0.49480  0.64030  Biso   1.000  C
  C1045    1.0000 0.50520  0.69498  0.35970  Biso   1.000  C
  C1046    1.0000 0.50520  0.05502  0.39030  Biso   1.000  C
  C1047    1.0000 0.74480  0.05502  0.85970  Biso   1.000  C
  C1048    1.0000 0.74480  0.69498  0.89030  Biso   1.000  C
  C1049    1.0000 0.49480  0.10970  0.44498  Biso   1.000  C
  C1050    1.0000 0.25520  0.60970  0.80502  Biso   1.000  C
  C1051    1.0000 0.25520  0.64030  0.44498  Biso   1.000  C
  C1052    1.0000 0.49480  0.14030  0.80502  Biso   1.000  C
  C1053    1.0000 0.89030  0.50520  0.55502  Biso   1.000  C
  C1054    1.0000 0.89030  0.74480  0.69498  Biso   1.000  C
  C1055    1.0000 0.85970  0.00520  0.69498  Biso   1.000  C
  C1056    1.0000 0.35970  0.24480  0.05502  Biso   1.000  C
  C1057    1.0000 0.38002  0.54105  0.01741  Biso   1.000  C
  C1058    1.0000 0.38002  0.70895  0.23259  Biso   1.000  C
  C1059    1.0000 0.36998  0.70895  0.51741  Biso   1.000  C
  C1060    1.0000 0.36998  0.54105  0.73259  Biso   1.000  C
  C1061    1.0000 0.45895  0.63002  0.26741  Biso   1.000  C
  C1062    1.0000 0.29105  0.63002  0.48259  Biso   1.000  C
  C1063    1.0000 0.29105  0.61998  0.76741  Biso   1.000  C
  C1064    1.0000 0.45895  0.61998  0.98259  Biso   1.000  C
  C1065    1.0000 0.54105  0.01741  0.38002  Biso   1.000  C
  C1066    1.0000 0.20895  0.23259  0.88002  Biso   1.000  C
  C1067    1.0000 0.54105  0.23259  0.86998  Biso   1.000  C
  C1068    1.0000 0.20895  0.01741  0.36998  Biso   1.000  C
  C1069    1.0000 0.98259  0.79105  0.63002  Biso   1.000  C
  C1070    1.0000 0.98259  0.45895  0.61998  Biso   1.000  C
  C1071    1.0000 0.76741  0.45895  0.13002  Biso   1.000  C
  C1072    1.0000 0.76741  0.79105  0.11998  Biso   1.000  C
  C1073    1.0000 0.01741  0.38002  0.54105  Biso   1.000  C
  C1074    1.0000 0.23259  0.88002  0.20895  Biso   1.000  C
  C1075    1.0000 0.23259  0.86998  0.54105  Biso   1.000  C
  C1076    1.0000 0.01741  0.36998  0.20895  Biso   1.000  C
  C1077    1.0000 0.61998  0.98259  0.45895  Biso   1.000  C
  C1078    1.0000 0.61998  0.76741  0.29105  Biso   1.000  C
  C1079    1.0000 0.63002  0.48259  0.29105  Biso   1.000  C
  C1080    1.0000 0.13002  0.26741  0.95895  Biso   1.000  C
  C1081    1.0000 0.38002  0.04105  0.51741  Biso   1.000  C
  C1082    1.0000 0.38002  0.20895  0.73259  Biso   1.000  C
  C1083    1.0000 0.36998  0.20895  0.01741  Biso   1.000  C
  C1084    1.0000 0.36998  0.04105  0.23259  Biso   1.000  C
  C1085    1.0000 0.45895  0.13002  0.76741  Biso   1.000  C
  C1086    1.0000 0.29105  0.13002  0.98259  Biso   1.000  C
  C1087    1.0000 0.29105  0.11998  0.26741  Biso   1.000  C
  C1088    1.0000 0.45895  0.11998  0.48259  Biso   1.000  C
  C1089    1.0000 0.54105  0.51741  0.88002  Biso   1.000  C
  C1090    1.0000 0.20895  0.73259  0.38002  Biso   1.000  C
  C1091    1.0000 0.54105  0.73259  0.36998  Biso   1.000  C
  C1092    1.0000 0.20895  0.51741  0.86998  Biso   1.000  C
  C1093    1.0000 0.98259  0.29105  0.13002  Biso   1.000  C
  C1094    1.0000 0.98259  0.95895  0.11998  Biso   1.000  C
  C1095    1.0000 0.76741  0.95895  0.63002  Biso   1.000  C
  C1096    1.0000 0.76741  0.29105  0.61998  Biso   1.000  C
  C1097    1.0000 0.01741  0.88002  0.04105  Biso   1.000  C
  C1098    1.0000 0.23259  0.38002  0.70895  Biso   1.000  C
  C1099    1.0000 0.23259  0.36998  0.04105  Biso   1.000  C
  C1100    1.0000 0.01741  0.86998  0.70895  Biso   1.000  C
  C1101    1.0000 0.61998  0.48259  0.95895  Biso   1.000  C
  C1102    1.0000 0.61998  0.26741  0.79105  Biso   1.000  C
  C1103    1.0000 0.63002  0.98259  0.79105  Biso   1.000  C
  C1104    1.0000 0.13002  0.76741  0.45895  Biso   1.000  C
  C1105    1.0000 0.88002  0.54105  0.51741  Biso   1.000  C
  C1106    1.0000 0.88002  0.70895  0.73259  Biso   1.000  C
  C1107    1.0000 0.86998  0.70895  0.01741  Biso   1.000  C
  C1108    1.0000 0.86998  0.54105  0.23259  Biso   1.000  C
  C1109    1.0000 0.95895  0.63002  0.76741  Biso   1.000  C
  C1110    1.0000 0.79105  0.63002  0.98259  Biso   1.000  C
  C1111    1.0000 0.79105  0.61998  0.26741  Biso   1.000  C
  C1112    1.0000 0.95895  0.61998  0.48259  Biso   1.000  C
  C1113    1.0000 0.04105  0.01741  0.88002  Biso   1.000  C
  C1114    1.0000 0.70895  0.23259  0.38002  Biso   1.000  C
  C1115    1.0000 0.04105  0.23259  0.36998  Biso   1.000  C
  C1116    1.0000 0.70895  0.01741  0.86998  Biso   1.000  C
  C1117    1.0000 0.48259  0.79105  0.13002  Biso   1.000  C
  C1118    1.0000 0.48259  0.45895  0.11998  Biso   1.000  C
  C1119    1.0000 0.26741  0.45895  0.63002  Biso   1.000  C
  C1120    1.0000 0.26741  0.79105  0.61998  Biso   1.000  C
  C1121    1.0000 0.51741  0.38002  0.04105  Biso   1.000  C
  C1122    1.0000 0.73259  0.88002  0.70895  Biso   1.000  C
  C1123    1.0000 0.73259  0.86998  0.04105  Biso   1.000  C
  C1124    1.0000 0.51741  0.36998  0.70895  Biso   1.000  C
  C1125    1.0000 0.11998  0.98259  0.95895  Biso   1.000  C
  C1126    1.0000 0.11998  0.76741  0.79105  Biso   1.000  C
  C1127    1.0000 0.13002  0.48259  0.79105  Biso   1.000  C
  C1128    1.0000 0.63002  0.26741  0.45895  Biso   1.000  C
  C1129    1.0000 0.88002  0.04105  0.01741  Biso   1.000  C
  C1130    1.0000 0.88002  0.20895  0.23259  Biso   1.000  C
  C1131    1.0000 0.86998  0.20895  0.51741  Biso   1.000  C
  C1132    1.0000 0.86998  0.04105  0.73259  Biso   1.000  C
  C1133    1.0000 0.95895  0.13002  0.26741  Biso   1.000  C
  C1134    1.0000 0.79105  0.13002  0.48259  Biso   1.000  C
  C1135    1.0000 0.79105  0.11998  0.76741  Biso   1.000  C
  C1136    1.0000 0.95895  0.11998  0.98259  Biso   1.000  C
  C1137    1.0000 0.04105  0.51741  0.38002  Biso   1.000  C
  C1138    1.0000 0.70895  0.73259  0.88002  Biso   1.000  C
  C1139    1.0000 0.04105  0.73259  0.86998  Biso   1.000  C
  C1140    1.0000 0.70895  0.51741  0.36998  Biso   1.000  C
  C1141    1.0000 0.48259  0.29105  0.63002  Biso   1.000  C
  C1142    1.0000 0.48259  0.95895  0.61998  Biso   1.000  C
  C1143    1.0000 0.26741  0.95895  0.13002  Biso   1.000  C
  C1144    1.0000 0.26741  0.29105  0.11998  Biso   1.000  C
  C1145    1.0000 0.51741  0.88002  0.54105  Biso   1.000  C
  C1146    1.0000 0.73259  0.38002  0.20895  Biso   1.000  C
  C1147    1.0000 0.73259  0.36998  0.54105  Biso   1.000  C
  C1148    1.0000 0.51741  0.86998  0.20895  Biso   1.000  C
  C1149    1.0000 0.11998  0.48259  0.45895  Biso   1.000  C
  C1150    1.0000 0.11998  0.26741  0.29105  Biso   1.000  C
  C1151    1.0000 0.13002  0.98259  0.29105  Biso   1.000  C
  C1152    1.0000 0.63002  0.76741  0.95895  Biso   1.000  C
  C1153    1.0000 0.61998  0.45895  0.98259  Biso   1.000  C
  C1154    1.0000 0.61998  0.29105  0.76741  Biso   1.000  C
  C1155    1.0000 0.63002  0.29105  0.48259  Biso   1.000  C
  C1156    1.0000 0.63002  0.45895  0.26741  Biso   1.000  C
  C1157    1.0000 0.54105  0.36998  0.73259  Biso   1.000  C
  C1158    1.0000 0.70895  0.36998  0.51741  Biso   1.000  C
  C1159    1.0000 0.70895  0.38002  0.23259  Biso   1.000  C
  C1160    1.0000 0.54105  0.38002  0.01741  Biso   1.000  C
  C1161    1.0000 0.45895  0.98259  0.61998  Biso   1.000  C
  C1162    1.0000 0.79105  0.76741  0.11998  Biso   1.000  C
  C1163    1.0000 0.45895  0.76741  0.13002  Biso   1.000  C
  C1164    1.0000 0.79105  0.98259  0.63002  Biso   1.000  C
  C1165    1.0000 0.01741  0.20895  0.36998  Biso   1.000  C
  C1166    1.0000 0.01741  0.54105  0.38002  Biso   1.000  C
  C1167    1.0000 0.23259  0.54105  0.86998  Biso   1.000  C
  C1168    1.0000 0.23259  0.20895  0.88002  Biso   1.000  C
  C1169    1.0000 0.98259  0.61998  0.45895  Biso   1.000  C
  C1170    1.0000 0.76741  0.11998  0.79105  Biso   1.000  C
  C1171    1.0000 0.76741  0.13002  0.45895  Biso   1.000  C
  C1172    1.0000 0.98259  0.63002  0.79105  Biso   1.000  C
  C1173    1.0000 0.38002  0.01741  0.54105  Biso   1.000  C
  C1174    1.0000 0.38002  0.23259  0.70895  Biso   1.000  C
  C1175    1.0000 0.36998  0.51741  0.70895  Biso   1.000  C
  C1176    1.0000 0.86998  0.73259  0.04105  Biso   1.000  C
  C1177    1.0000 0.61998  0.95895  0.48259  Biso   1.000  C
  C1178    1.0000 0.61998  0.79105  0.26741  Biso   1.000  C
  C1179    1.0000 0.63002  0.79105  0.98259  Biso   1.000  C
  C1180    1.0000 0.63002  0.95895  0.76741  Biso   1.000  C
  C1181    1.0000 0.54105  0.86998  0.23259  Biso   1.000  C
  C1182    1.0000 0.70895  0.86998  0.01741  Biso   1.000  C
  C1183    1.0000 0.70895  0.88002  0.73259  Biso   1.000  C
  C1184    1.0000 0.54105  0.88002  0.51741  Biso   1.000  C
  C1185    1.0000 0.45895  0.48259  0.11998  Biso   1.000  C
  C1186    1.0000 0.79105  0.26741  0.61998  Biso   1.000  C
  C1187    1.0000 0.45895  0.26741  0.63002  Biso   1.000  C
  C1188    1.0000 0.79105  0.48259  0.13002  Biso   1.000  C
  C1189    1.0000 0.01741  0.70895  0.86998  Biso   1.000  C
  C1190    1.0000 0.01741  0.04105  0.88002  Biso   1.000  C
  C1191    1.0000 0.23259  0.04105  0.36998  Biso   1.000  C
  C1192    1.0000 0.23259  0.70895  0.38002  Biso   1.000  C
  C1193    1.0000 0.98259  0.11998  0.95895  Biso   1.000  C
  C1194    1.0000 0.76741  0.61998  0.29105  Biso   1.000  C
  C1195    1.0000 0.76741  0.63002  0.95895  Biso   1.000  C
  C1196    1.0000 0.98259  0.13002  0.29105  Biso   1.000  C
  C1197    1.0000 0.38002  0.51741  0.04105  Biso   1.000  C
  C1198    1.0000 0.38002  0.73259  0.20895  Biso   1.000  C
  C1199    1.0000 0.36998  0.01741  0.20895  Biso   1.000  C
  C1200    1.0000 0.86998  0.23259  0.54105  Biso   1.000  C
  C1201    1.0000 0.11998  0.45895  0.48259  Biso   1.000  C
  C1202    1.0000 0.11998  0.29105  0.26741  Biso   1.000  C
  C1203    1.0000 0.13002  0.29105  0.98259  Biso   1.000  C
  C1204    1.0000 0.13002  0.45895  0.76741  Biso   1.000  C
  C1205    1.0000 0.04105  0.36998  0.23259  Biso   1.000  C
  C1206    1.0000 0.20895  0.36998  0.01741  Biso   1.000  C
  C1207    1.0000 0.20895  0.38002  0.73259  Biso   1.000  C
  C1208    1.0000 0.04105  0.38002  0.51741  Biso   1.000  C
  C1209    1.0000 0.95895  0.98259  0.11998  Biso   1.000  C
  C1210    1.0000 0.29105  0.76741  0.61998  Biso   1.000  C
  C1211    1.0000 0.95895  0.76741  0.63002  Biso   1.000  C
  C1212    1.0000 0.29105  0.98259  0.13002  Biso   1.000  C
  C1213    1.0000 0.51741  0.20895  0.86998  Biso   1.000  C
  C1214    1.0000 0.51741  0.54105  0.88002  Biso   1.000  C
  C1215    1.0000 0.73259  0.54105  0.36998  Biso   1.000  C
  C1216    1.0000 0.73259  0.20895  0.38002  Biso   1.000  C
  C1217    1.0000 0.48259  0.61998  0.95895  Biso   1.000  C
  C1218    1.0000 0.26741  0.11998  0.29105  Biso   1.000  C
  C1219    1.0000 0.26741  0.13002  0.95895  Biso   1.000  C
  C1220    1.0000 0.48259  0.63002  0.29105  Biso   1.000  C
  C1221    1.0000 0.88002  0.01741  0.04105  Biso   1.000  C
  C1222    1.0000 0.88002  0.23259  0.20895  Biso   1.000  C
  C1223    1.0000 0.86998  0.51741  0.20895  Biso   1.000  C
  C1224    1.0000 0.36998  0.73259  0.54105  Biso   1.000  C
  C1225    1.0000 0.11998  0.95895  0.98259  Biso   1.000  C
  C1226    1.0000 0.11998  0.79105  0.76741  Biso   1.000  C
  C1227    1.0000 0.13002  0.79105  0.48259  Biso   1.000  C
  C1228    1.0000 0.13002  0.95895  0.26741  Biso   1.000  C
  C1229    1.0000 0.04105  0.86998  0.73259  Biso   1.000  C
  C1230    1.0000 0.20895  0.86998  0.51741  Biso   1.000  C
  C1231    1.0000 0.20895  0.88002  0.23259  Biso   1.000  C
  C1232    1.0000 0.04105  0.88002  0.01741  Biso   1.000  C
  C1233    1.0000 0.95895  0.48259  0.61998  Biso   1.000  C
  C1234    1.0000 0.29105  0.26741  0.11998  Biso   1.000  C
  C1235    1.0000 0.95895  0.26741  0.13002  Biso   1.000  C
  C1236    1.0000 0.29105  0.48259  0.63002  Biso   1.000  C
  C1237    1.0000 0.51741  0.70895  0.36998  Biso   1.000  C
  C1238    1.0000 0.51741  0.04105  0.38002  Biso   1.000  C
  C1239    1.0000 0.73259  0.04105  0.86998  Biso   1.000  C
  C1240    1.0000 0.73259  0.70895  0.88002  Biso   1.000  C
  C1241    1.0000 0.48259  0.11998  0.45895  Biso   1.000  C
  C1242    1.0000 0.26741  0.61998  0.79105  Biso   1.000  C
  C1243    1.0000 0.26741  0.63002  0.45895  Biso   1.000  C
  C1244    1.0000 0.48259  0.13002  0.79105  Biso   1.000  C
  C1245    1.0000 0.88002  0.51741  0.54105  Biso   1.000  C
  C1246    1.0000 0.88002  0.73259  0.70895  Biso   1.000  C
  C1247    1.0000 0.86998  0.01741  0.70895  Biso   1.000  C
  C1248    1.0000 0.36998  0.23259  0.04105  Biso   1.000  C
  C1249    1.0000 0.36088  0.54178  0.01783  Biso   1.000  C
  C1250    1.0000 0.36088  0.70822  0.23217  Biso   1.000  C
  C1251    1.0000 0.38912  0.70822  0.51783  Biso   1.000  C
  C1252    1.0000 0.38912  0.54178  0.73217  Biso   1.000  C
  C1253    1.0000 0.45822  0.61088  0.26783  Biso   1.000  C
  C1254    1.0000 0.29178  0.61088  0.48217  Biso   1.000  C
  C1255    1.0000 0.29178  0.63912  0.76783  Biso   1.000  C
  C1256    1.0000 0.45822  0.63912  0.98217  Biso   1.000  C
  C1257    1.0000 0.54178  0.01783  0.36088  Biso   1.000  C
  C1258    1.0000 0.20822  0.23217  0.86088  Biso   1.000  C
  C1259    1.0000 0.54178  0.23217  0.88912  Biso   1.000  C
  C1260    1.0000 0.20822  0.01783  0.38912  Biso   1.000  C
  C1261    1.0000 0.98217  0.79178  0.61088  Biso   1.000  C
  C1262    1.0000 0.98217  0.45822  0.63912  Biso   1.000  C
  C1263    1.0000 0.76783  0.45822  0.11088  Biso   1.000  C
  C1264    1.0000 0.76783  0.79178  0.13912  Biso   1.000  C
  C1265    1.0000 0.01783  0.36088  0.54178  Biso   1.000  C
  C1266    1.0000 0.23217  0.86088  0.20822  Biso   1.000  C
  C1267    1.0000 0.23217  0.88912  0.54178  Biso   1.000  C
  C1268    1.0000 0.01783  0.38912  0.20822  Biso   1.000  C
  C1269    1.0000 0.63912  0.98217  0.45822  Biso   1.000  C
  C1270    1.0000 0.63912  0.76783  0.29178  Biso   1.000  C
  C1271    1.0000 0.61088  0.48217  0.29178  Biso   1.000  C
  C1272    1.0000 0.11088  0.26783  0.95822  Biso   1.000  C
  C1273    1.0000 0.36088  0.04178  0.51783  Biso   1.000  C
  C1274    1.0000 0.36088  0.20822  0.73217  Biso   1.000  C
  C1275    1.0000 0.38912  0.20822  0.01783  Biso   1.000  C
  C1276    1.0000 0.38912  0.04178  0.23217  Biso   1.000  C
  C1277    1.0000 0.45822  0.11088  0.76783  Biso   1.000  C
  C1278    1.0000 0.29178  0.11088  0.98217  Biso   1.000  C
  C1279    1.0000 0.29178  0.13912  0.26783  Biso   1.000  C
  C1280    1.0000 0.45822  0.13912  0.48217  Biso   1.000  C
  C1281    1.0000 0.54178  0.51783  0.86088  Biso   1.000  C
  C1282    1.0000 0.20822  0.73217  0.36088  Biso   1.000  C
  C1283    1.0000 0.54178  0.73217  0.38912  Biso   1.000  C
  C1284    1.0000 0.20822  0.51783  0.88912  Biso   1.000  C
  C1285    1.0000 0.98217  0.29178  0.11088  Biso   1.000  C
  C1286    1.0000 0.98217  0.95822  0.13912  Biso   1.000  C
  C1287    1.0000 0.76783  0.95822  0.61088  Biso   1.000  C
  C1288    1.0000 0.76783  0.29178  0.63912  Biso   1.000  C
  C1289    1.0000 0.01783  0.86088  0.04178  Biso   1.000  C
  C1290    1.0000 0.23217  0.36088  0.70822  Biso   1.000  C
  C1291    1.0000 0.23217  0.38912  0.04178  Biso   1.000  C
  C1292    1.0000 0.01783  0.88912  0.70822  Biso   1.000  C
  C1293    1.0000 0.63912  0.48217  0.95822  Biso   1.000  C
  C1294    1.0000 0.63912  0.26783  0.79178  Biso   1.000  C
  C1295    1.0000 0.61088  0.98217  0.79178  Biso   1.000  C
  C1296    1.0000 0.11088  0.76783  0.45822  Biso   1.000  C
  C1297    1.0000 0.86088  0.54178  0.51783  Biso   1.000  C
  C1298    1.0000 0.86088  0.70822  0.73217  Biso   1.000  C
  C1299    1.0000 0.88912  0.70822  0.01783  Biso   1.000  C
  C1300    1.0000 0.88912  0.54178  0.23217  Biso   1.000  C
  C1301    1.0000 0.95822  0.61088  0.76783  Biso   1.000  C
  C1302    1.0000 0.79178  0.61088  0.98217  Biso   1.000  C
  C1303    1.0000 0.79178  0.63912  0.26783  Biso   1.000  C
  C1304    1.0000 0.95822  0.63912  0.48217  Biso   1.000  C
  C1305    1.0000 0.04178  0.01783  0.86088  Biso   1.000  C
  C1306    1.0000 0.70822  0.23217  0.36088  Biso   1.000  C
  C1307    1.0000 0.04178  0.23217  0.38912  Biso   1.000  C
  C1308    1.0000 0.70822  0.01783  0.88912  Biso   1.000  C
  C1309    1.0000 0.48217  0.79178  0.11088  Biso   1.000  C
  C1310    1.0000 0.48217  0.45822  0.13912  Biso   1.000  C
  C1311    1.0000 0.26783  0.45822  0.61088  Biso   1.000  C
  C1312    1.0000 0.26783  0.79178  0.63912  Biso   1.000  C
  C1313    1.0000 0.51783  0.36088  0.04178  Biso   1.000  C
  C1314    1.0000 0.73217  0.86088  0.70822  Biso   1.000  C
  C1315    1.0000 0.73217  0.88912  0.04178  Biso   1.000  C
  C1316    1.0000 0.51783  0.38912  0.70822  Biso   1.000  C
  C1317    1.0000 0.13912  0.98217  0.95822  Biso   1.000  C
  C1318    1.0000 0.13912  0.76783  0.79178  Biso   1.000  C
  C1319    1.0000 0.11088  0.48217  0.79178  Biso   1.000  C
  C1320    1.0000 0.61088  0.26783  0.45822  Biso   1.000  C
  C1321    1.0000 0.86088  0.04178  0.01783  Biso   1.000  C
  C1322    1.0000 0.86088  0.20822  0.23217  Biso   1.000  C
  C1323    1.0000 0.88912  0.20822  0.51783  Biso   1.000  C
  C1324    1.0000 0.88912  0.04178  0.73217  Biso   1.000  C
  C1325    1.0000 0.95822  0.11088  0.26783  Biso   1.000  C
  C1326    1.0000 0.79178  0.11088  0.48217  Biso   1.000  C
  C1327    1.0000 0.79178  0.13912  0.76783  Biso   1.000  C
  C1328    1.0000 0.95822  0.13912  0.98217  Biso   1.000  C
  C1329    1.0000 0.04178  0.51783  0.36088  Biso   1.000  C
  C1330    1.0000 0.70822  0.73217  0.86088  Biso   1.000  C
  C1331    1.0000 0.04178  0.73217  0.88912  Biso   1.000  C
  C1332    1.0000 0.70822  0.51783  0.38912  Biso   1.000  C
  C1333    1.0000 0.48217  0.29178  0.61088  Biso   1.000  C
  C1334    1.0000 0.48217  0.95822  0.63912  Biso   1.000  C
  C1335    1.0000 0.26783  0.95822  0.11088  Biso   1.000  C
  C1336    1.0000 0.26783  0.29178  0.13912  Biso   1.000  C
  C1337    1.0000 0.51783  0.86088  0.54178  Biso   1.000  C
  C1338    1.0000 0.73217  0.36088  0.20822  Biso   1.000  C
  C1339    1.0000 0.73217  0.38912  0.54178  Biso   1.000  C
  C1340    1.0000 0.51783  0.88912  0.20822  Biso   1.000  C
  C1341    1.0000 0.13912  0.48217  0.45822  Biso   1.000  C
  C1342    1.0000 0.13912  0.26783  0.29178  Biso   1.000  C
  C1343    1.0000 0.11088  0.98217  0.29178  Biso   1.000  C
  C1344    1.0000 0.61088  0.76783  0.95822  Biso   1.000  C
  C1345    1.0000 0.63912  0.45822  0.98217  Biso   1.000  C
  C1346    1.0000 0.63912  0.29178  0.76783  Biso   1.000  C
  C1347    1.0000 0.61088  0.29178  0.48217  Biso   1.000  C
  C1348    1.0000 0.61088  0.45822  0.26783  Biso   1.000  C
  C1349    1.0000 0.54178  0.38912  0.73217  Biso   1.000  C
  C1350    1.0000 0.70822  0.38912  0.51783  Biso   1.000  C
  C1351    1.0000 0.70822  0.36088  0.23217  Biso   1.000  C
  C1352    1.0000 0.54178  0.36088  0.01783  Biso   1.000  C
  C1353    1.0000 0.45822  0.98217  0.63912  Biso   1.000  C
  C1354    1.0000 0.79178  0.76783  0.13912  Biso   1.000  C
  C1355    1.0000 0.45822  0.76783  0.11088  Biso   1.000  C
  C1356    1.0000 0.79178  0.98217  0.61088  Biso   1.000  C
  C1357    1.0000 0.01783  0.20822  0.38912  Biso   1.000  C
  C1358    1.0000 0.01783  0.54178  0.36088  Biso   1.000  C
  C1359    1.0000 0.23217  0.54178  0.88912  Biso   1.000  C
  C1360    1.0000 0.23217  0.20822  0.86088  Biso   1.000  C
  C1361    1.0000 0.98217  0.63912  0.45822  Biso   1.000  C
  C1362    1.0000 0.76783  0.13912  0.79178  Biso   1.000  C
  C1363    1.0000 0.76783  0.11088  0.45822  Biso   1.000  C
  C1364    1.0000 0.98217  0.61088  0.79178  Biso   1.000  C
  C1365    1.0000 0.36088  0.01783  0.54178  Biso   1.000  C
  C1366    1.0000 0.36088  0.23217  0.70822  Biso   1.000  C
  C1367    1.0000 0.38912  0.51783  0.70822  Biso   1.000  C
  C1368    1.0000 0.88912  0.73217  0.04178  Biso   1.000  C
  C1369    1.0000 0.63912  0.95822  0.48217  Biso   1.000  C
  C1370    1.0000 0.63912  0.79178  0.26783  Biso   1.000  C
  C1371    1.0000 0.61088  0.79178  0.98217  Biso   1.000  C
  C1372    1.0000 0.61088  0.95822  0.76783  Biso   1.000  C
  C1373    1.0000 0.54178  0.88912  0.23217  Biso   1.000  C
  C1374    1.0000 0.70822  0.88912  0.01783  Biso   1.000  C
  C1375    1.0000 0.70822  0.86088  0.73217  Biso   1.000  C
  C1376    1.0000 0.54178  0.86088  0.51783  Biso   1.000  C
  C1377    1.0000 0.45822  0.48217  0.13912  Biso   1.000  C
  C1378    1.0000 0.79178  0.26783  0.63912  Biso   1.000  C
  C1379    1.0000 0.45822  0.26783  0.61088  Biso   1.000  C
  C1380    1.0000 0.79178  0.48217  0.11088  Biso   1.000  C
  C1381    1.0000 0.01783  0.70822  0.88912  Biso   1.000  C
  C1382    1.0000 0.01783  0.04178  0.86088  Biso   1.000  C
  C1383    1.0000 0.23217  0.04178  0.38912  Biso   1.000  C
  C1384    1.0000 0.23217  0.70822  0.36088  Biso   1.000  C
  C1385    1.0000 0.98217  0.13912  0.95822  Biso   1.000  C
  C1386    1.0000 0.76783  0.63912  0.29178  Biso   1.000  C
  C1387    1.0000 0.76783  0.61088  0.95822  Biso   1.000  C
  C1388    1.0000 0.98217  0.11088  0.29178  Biso   1.000  C
  C1389    1.0000 0.36088  0.51783  0.04178  Biso   1.000  C
  C1390    1.0000 0.36088  0.73217  0.20822  Biso   1.000  C
  C1391    1.0000 0.38912  0.01783  0.20822  Biso   1.000  C
  C1392    1.0000 0.88912  0.23217  0.54178  Biso   1.000  C
  C1393    1.0000 0.13912  0.45822  0.48217  Biso   1.000  C
  C1394    1.0000 0.13912  0.29178  0.26783  Biso   1.000  C
  C1395    1.0000 0.11088  0.29178  0.98217  Biso   1.000  C
  C1396    1.0000 0.11088  0.45822  0.76783  Biso   1.000  C
  C1397    1.0000 0.04178  0.38912  0.23217  Biso   1.000  C
  C1398    1.0000 0.20822  0.38912  0.01783  Biso   1.000  C
  C1399    1.0000 0.20822  0.36088  0.73217  Biso   1.000  C
  C1400    1.0000 0.04178  0.36088  0.51783  Biso   1.000  C
  C1401    1.0000 0.95822  0.98217  0.13912  Biso   1.000  C
  C1402    1.0000 0.29178  0.76783  0.63912  Biso   1.000  C
  C1403    1.0000 0.95822  0.76783  0.61088  Biso   1.000  C
  C1404    1.0000 0.29178  0.98217  0.11088  Biso   1.000  C
  C1405    1.0000 0.51783  0.20822  0.88912  Biso   1.000  C
  C1406    1.0000 0.51783  0.54178  0.86088  Biso   1.000  C
  C1407    1.0000 0.73217  0.54178  0.38912  Biso   1.000  C
  C1408    1.0000 0.73217  0.20822  0.36088  Biso   1.000  C
  C1409    1.0000 0.48217  0.63912  0.95822  Biso   1.000  C
  C1410    1.0000 0.26783  0.13912  0.29178  Biso   1.000  C
  C1411    1.0000 0.26783  0.11088  0.95822  Biso   1.000  C
  C1412    1.0000 0.48217  0.61088  0.29178  Biso   1.000  C
  C1413    1.0000 0.86088  0.01783  0.04178  Biso   1.000  C
  C1414    1.0000 0.86088  0.23217  0.20822  Biso   1.000  C
  C1415    1.0000 0.88912  0.51783  0.20822  Biso   1.000  C
  C1416    1.0000 0.38912  0.73217  0.54178  Biso   1.000  C
  C1417    1.0000 0.13912  0.95822  0.98217  Biso   1.000  C
  C1418    1.0000 0.13912  0.79178  0.76783  Biso   1.000  C
  C1419    1.0000 0.11088  0.79178  0.48217  Biso   1.000  C
  C1420    1.0000 0.11088  0.95822  0.26783  Biso   1.000  C
  C1421    1.0000 0.04178  0.88912  0.73217  Biso   1.000  C
  C1422    1.0000 0.20822  0.88912  0.51783  Biso   1.000  C
  C1423    1.0000 0.20822  0.86088  0.23217  Biso   1.000  C
  C1424    1.0000 0.04178  0.86088  0.01783  Biso   1.000  C
  C1425    1.0000 0.95822  0.48217  0.63912  Biso   1.000  C
  C1426    1.0000 0.29178  0.26783  0.13912  Biso   1.000  C
  C1427    1.0000 0.95822  0.26783  0.11088  Biso   1.000  C
  C1428    1.0000 0.29178  0.48217  0.61088  Biso   1.000  C
  C1429    1.0000 0.51783  0.70822  0.38912  Biso   1.000  C
  C1430    1.0000 0.51783  0.04178  0.36088  Biso   1.000  C
  C1431    1.0000 0.73217  0.04178  0.88912  Biso   1.000  C
  C1432    1.0000 0.73217  0.70822  0.86088  Biso   1.000  C
  C1433    1.0000 0.48217  0.13912  0.45822  Biso   1.000  C
  C1434    1.0000 0.26783  0.63912  0.79178  Biso   1.000  C
  C1435    1.0000 0.26783  0.61088  0.45822  Biso   1.000  C
  C1436    1.0000 0.48217  0.11088  0.79178  Biso   1.000  C
  C1437    1.0000 0.86088  0.51783  0.54178  Biso   1.000  C
  C1438    1.0000 0.86088  0.73217  0.70822  Biso   1.000  C
  C1439    1.0000 0.88912  0.01783  0.70822  Biso   1.000  C
  C1440    1.0000 0.38912  0.23217  0.04178  Biso   1.000  C
  H289     1.0000 0.35450  0.55010  0.00970  Biso   1.000  H
  H290     1.0000 0.35450  0.69990  0.24030  Biso   1.000  H
  H291     1.0000 0.39550  0.69990  0.50970  Biso   1.000  H
  H292     1.0000 0.39550  0.55010  0.74030  Biso   1.000  H
  H293     1.0000 0.44990  0.60450  0.25970  Biso   1.000  H
  H294     1.0000 0.30010  0.60450  0.49030  Biso   1.000  H
  H295     1.0000 0.30010  0.64550  0.75970  Biso   1.000  H
  H296     1.0000 0.44990  0.64550  0.99030  Biso   1.000  H
  H297     1.0000 0.55010  0.00970  0.35450  Biso   1.000  H
  H298     1.0000 0.19990  0.24030  0.85450  Biso   1.000  H
  H299     1.0000 0.55010  0.24030  0.89550  Biso   1.000  H
  H300     1.0000 0.19990  0.00970  0.39550  Biso   1.000  H
  H301     1.0000 0.99030  0.80010  0.60450  Biso   1.000  H
  H302     1.0000 0.99030  0.44990  0.64550  Biso   1.000  H
  H303     1.0000 0.75970  0.44990  0.10450  Biso   1.000  H
  H304     1.0000 0.75970  0.80010  0.14550  Biso   1.000  H
  H305     1.0000 0.00970  0.35450  0.55010  Biso   1.000  H
  H306     1.0000 0.24030  0.85450  0.19990  Biso   1.000  H
  H307     1.0000 0.24030  0.89550  0.55010  Biso   1.000  H
  H308     1.0000 0.00970  0.39550  0.19990  Biso   1.000  H
  H309     1.0000 0.64550  0.99030  0.44990  Biso   1.000  H
  H310     1.0000 0.64550  0.75970  0.30010  Biso   1.000  H
  H311     1.0000 0.60450  0.49030  0.30010  Biso   1.000  H
  H312     1.0000 0.10450  0.25970  0.94990  Biso   1.000  H
  H313     1.0000 0.35450  0.05010  0.50970  Biso   1.000  H
  H314     1.0000 0.35450  0.19990  0.74030  Biso   1.000  H
  H315     1.0000 0.39550  0.19990  0.00970  Biso   1.000  H
  H316     1.0000 0.39550  0.05010  0.24030  Biso   1.000  H
  H317     1.0000 0.44990  0.10450  0.75970  Biso   1.000  H
  H318     1.0000 0.30010  0.10450  0.99030  Biso   1.000  H
  H319     1.0000 0.30010  0.14550  0.25970  Biso   1.000  H
  H320     1.0000 0.44990  0.14550  0.49030  Biso   1.000  H
  H321     1.0000 0.55010  0.50970  0.85450  Biso   1.000  H
  H322     1.0000 0.19990  0.74030  0.35450  Biso   1.000  H
  H323     1.0000 0.55010  0.74030  0.39550  Biso   1.000  H
  H324     1.0000 0.19990  0.50970  0.89550  Biso   1.000  H
  H325     1.0000 0.99030  0.30010  0.10450  Biso   1.000  H
  H326     1.0000 0.99030  0.94990  0.14550  Biso   1.000  H
  H327     1.0000 0.75970  0.94990  0.60450  Biso   1.000  H
  H328     1.0000 0.75970  0.30010  0.64550  Biso   1.000  H
  H329     1.0000 0.00970  0.85450  0.05010  Biso   1.000  H
  H330     1.0000 0.24030  0.35450  0.69990  Biso   1.000  H
  H331     1.0000 0.24030  0.39550  0.05010  Biso   1.000  H
  H332     1.0000 0.00970  0.89550  0.69990  Biso   1.000  H
  H333     1.0000 0.64550  0.49030  0.94990  Biso   1.000  H
  H334     1.0000 0.64550  0.25970  0.80010  Biso   1.000  H
  H335     1.0000 0.60450  0.99030  0.80010  Biso   1.000  H
  H336     1.0000 0.10450  0.75970  0.44990  Biso   1.000  H
  H337     1.0000 0.85450  0.55010  0.50970  Biso   1.000  H
  H338     1.0000 0.85450  0.69990  0.74030  Biso   1.000  H
  H339     1.0000 0.89550  0.69990  0.00970  Biso   1.000  H
  H340     1.0000 0.89550  0.55010  0.24030  Biso   1.000  H
  H341     1.0000 0.94990  0.60450  0.75970  Biso   1.000  H
  H342     1.0000 0.80010  0.60450  0.99030  Biso   1.000  H
  H343     1.0000 0.80010  0.64550  0.25970  Biso   1.000  H
  H344     1.0000 0.94990  0.64550  0.49030  Biso   1.000  H
  H345     1.0000 0.05010  0.00970  0.85450  Biso   1.000  H
  H346     1.0000 0.69990  0.24030  0.35450  Biso   1.000  H
  H347     1.0000 0.05010  0.24030  0.39550  Biso   1.000  H
  H348     1.0000 0.69990  0.00970  0.89550  Biso   1.000  H
  H349     1.0000 0.49030  0.80010  0.10450  Biso   1.000  H
  H350     1.0000 0.49030  0.44990  0.14550  Biso   1.000  H
  H351     1.0000 0.25970  0.44990  0.60450  Biso   1.000  H
  H352     1.0000 0.25970  0.80010  0.64550  Biso   1.000  H
  H353     1.0000 0.50970  0.35450  0.05010  Biso   1.000  H
  H354     1.0000 0.74030  0.85450  0.69990  Biso   1.000  H
  H355     1.0000 0.74030  0.89550  0.05010  Biso   1.000  H
  H356     1.0000 0.50970  0.39550  0.69990  Biso   1.000  H
  H357     1.0000 0.14550  0.99030  0.94990  Biso   1.000  H
  H358     1.0000 0.14550  0.75970  0.80010  Biso   1.000  H
  H359     1.0000 0.10450  0.49030  0.80010  Biso   1.000  H
  H360     1.0000 0.60450  0.25970  0.44990  Biso   1.000  H
  H361     1.0000 0.85450  0.05010  0.00970  Biso   1.000  H
  H362     1.0000 0.85450  0.19990  0.24030  Biso   1.000  H
  H363     1.0000 0.89550  0.19990  0.50970  Biso   1.000  H
  H364     1.0000 0.89550  0.05010  0.74030  Biso   1.000  H
  H365     1.0000 0.94990  0.10450  0.25970  Biso   1.000  H
  H366     1.0000 0.80010  0.10450  0.49030  Biso   1.000  H
  H367     1.0000 0.80010  0.14550  0.75970  Biso   1.000  H
  H368     1.0000 0.94990  0.14550  0.99030  Biso   1.000  H
  H369     1.0000 0.05010  0.50970  0.35450  Biso   1.000  H
  H370     1.0000 0.69990  0.74030  0.85450  Biso   1.000  H
  H371     1.0000 0.05010  0.74030  0.89550  Biso   1.000  H
  H372     1.0000 0.69990  0.50970  0.39550  Biso   1.000  H
  H373     1.0000 0.49030  0.30010  0.60450  Biso   1.000  H
  H374     1.0000 0.49030  0.94990  0.64550  Biso   1.000  H
  H375     1.0000 0.25970  0.94990  0.10450  Biso   1.000  H
  H376     1.0000 0.25970  0.30010  0.14550  Biso   1.000  H
  H377     1.0000 0.50970  0.85450  0.55010  Biso   1.000  H
  H378     1.0000 0.74030  0.35450  0.19990  Biso   1.000  H
  H379     1.0000 0.74030  0.39550  0.55010  Biso   1.000  H
  H380     1.0000 0.50970  0.89550  0.19990  Biso   1.000  H
  H381     1.0000 0.14550  0.49030  0.44990  Biso   1.000  H
  H382     1.0000 0.14550  0.25970  0.30010  Biso   1.000  H
  H383     1.0000 0.10450  0.99030  0.30010  Biso   1.000  H
  H384     1.0000 0.60450  0.75970  0.94990  Biso   1.000  H
  H385     1.0000 0.64550  0.44990  0.99030  Biso   1.000  H
  H386     1.0000 0.64550  0.30010  0.75970  Biso   1.000  H
  H387     1.0000 0.60450  0.30010  0.49030  Biso   1.000  H
  H388     1.0000 0.60450  0.44990  0.25970  Biso   1.000  H
  H389     1.0000 0.55010  0.39550  0.74030  Biso   1.000  H
  H390     1.0000 0.69990  0.39550  0.50970  Biso   1.000  H
  H391     1.0000 0.69990  0.35450  0.24030  Biso   1.000  H
  H392     1.0000 0.55010  0.35450  0.00970  Biso   1.000  H
  H393     1.0000 0.44990  0.99030  0.64550  Biso   1.000  H
  H394     1.0000 0.80010  0.75970  0.14550  Biso   1.000  H
  H395     1.0000 0.44990  0.75970  0.10450  Biso   1.000  H
  H396     1.0000 0.80010  0.99030  0.60450  Biso   1.000  H
  H397     1.0000 0.00970  0.19990  0.39550  Biso   1.000  H
  H398     1.0000 0.00970  0.55010  0.35450  Biso   1.000  H
  H399     1.0000 0.24030  0.55010  0.89550  Biso   1.000  H
  H400     1.0000 0.24030  0.19990  0.85450  Biso   1.000  H
  H401     1.0000 0.99030  0.64550  0.44990  Biso   1.000  H
  H402     1.0000 0.75970  0.14550  0.80010  Biso   1.000  H
  H403     1.0000 0.75970  0.10450  0.44990  Biso   1.000  H
  H404     1.0000 0.99030  0.60450  0.80010  Biso   1.000  H
  H405     1.0000 0.35450  0.00970  0.55010  Biso   1.000  H
  H406     1.0000 0.35450  0.24030  0.69990  Biso   1.000  H
  H407     1.0000 0.39550  0.50970  0.69990  Biso   1.000  H
  H408     1.0000 0.89550  0.74030  0.05010  Biso   1.000  H
  H409     1.0000 0.64550  0.94990  0.49030  Biso   1.000  H
  H410     1.0000 0.64550  0.80010  0.25970  Biso   1.000  H
  H411     1.0000 0.60450  0.80010  0.99030  Biso   1.000  H
  H412     1.0000 0.60450  0.94990  0.75970  Biso   1.000  H
  H413     1.0000 0.55010  0.89550  0.24030  Biso   1.000  H
  H414     1.0000 0.69990  0.89550  0.00970  Biso   1.000  H
  H415     1.0000 0.69990  0.85450  0.74030  Biso   1.000  H
  H416     1.0000 0.55010  0.85450  0.50970  Biso   1.000  H
  H417     1.0000 0.44990  0.49030  0.14550  Biso   1.000  H
  H418     1.0000 0.80010  0.25970  0.64550  Biso   1.000  H
  H419     1.0000 0.44990  0.25970  0.60450  Biso   1.000  H
  H420     1.0000 0.80010  0.49030  0.10450  Biso   1.000  H
  H421     1.0000 0.00970  0.69990  0.89550  Biso   1.000  H
  H422     1.0000 0.00970  0.05010  0.85450  Biso   1.000  H
  H423     1.0000 0.24030  0.05010  0.39550  Biso   1.000  H
  H424     1.0000 0.24030  0.69990  0.35450  Biso   1.000  H
  H425     1.0000 0.99030  0.14550  0.94990  Biso   1.000  H
  H426     1.0000 0.75970  0.64550  0.30010  Biso   1.000  H
  H427     1.0000 0.75970  0.60450  0.94990  Biso   1.000  H
  H428     1.0000 0.99030  0.10450  0.30010  Biso   1.000  H
  H429     1.0000 0.35450  0.50970  0.05010  Biso   1.000  H
  H430     1.0000 0.35450  0.74030  0.19990  Biso   1.000  H
  H431     1.0000 0.39550  0.00970  0.19990  Biso   1.000  H
  H432     1.0000 0.89550  0.24030  0.55010  Biso   1.000  H
  H433     1.0000 0.14550  0.44990  0.49030  Biso   1.000  H
  H434     1.0000 0.14550  0.30010  0.25970  Biso   1.000  H
  H435     1.0000 0.10450  0.30010  0.99030  Biso   1.000  H
  H436     1.0000 0.10450  0.44990  0.75970  Biso   1.000  H
  H437     1.0000 0.05010  0.39550  0.24030  Biso   1.000  H
  H438     1.0000 0.19990  0.39550  0.00970  Biso   1.000  H
  H439     1.0000 0.19990  0.35450  0.74030  Biso   1.000  H
  H440     1.0000 0.05010  0.35450  0.50970  Biso   1.000  H
  H441     1.0000 0.94990  0.99030  0.14550  Biso   1.000  H
  H442     1.0000 0.30010  0.75970  0.64550  Biso   1.000  H
  H443     1.0000 0.94990  0.75970  0.60450  Biso   1.000  H
  H444     1.0000 0.30010  0.99030  0.10450  Biso   1.000  H
  H445     1.0000 0.50970  0.19990  0.89550  Biso   1.000  H
  H446     1.0000 0.50970  0.55010  0.85450  Biso   1.000  H
  H447     1.0000 0.74030  0.55010  0.39550  Biso   1.000  H
  H448     1.0000 0.74030  0.19990  0.35450  Biso   1.000  H
  H449     1.0000 0.49030  0.64550  0.94990  Biso   1.000  H
  H450     1.0000 0.25970  0.14550  0.30010  Biso   1.000  H
  H451     1.0000 0.25970  0.10450  0.94990  Biso   1.000  H
  H452     1.0000 0.49030  0.60450  0.30010  Biso   1.000  H
  H453     1.0000 0.85450  0.00970  0.05010  Biso   1.000  H
  H454     1.0000 0.85450  0.24030  0.19990  Biso   1.000  H
  H455     1.0000 0.89550  0.50970  0.19990  Biso   1.000  H
  H456     1.0000 0.39550  0.74030  0.55010  Biso   1.000  H
  H457     1.0000 0.14550  0.94990  0.99030  Biso   1.000  H
  H458     1.0000 0.14550  0.80010  0.75970  Biso   1.000  H
  H459     1.0000 0.10450  0.80010  0.49030  Biso   1.000  H
  H460     1.0000 0.10450  0.94990  0.25970  Biso   1.000  H
  H461     1.0000 0.05010  0.89550  0.74030  Biso   1.000  H
  H462     1.0000 0.19990  0.89550  0.50970  Biso   1.000  H
  H463     1.0000 0.19990  0.85450  0.24030  Biso   1.000  H
  H464     1.0000 0.05010  0.85450  0.00970  Biso   1.000  H
  H465     1.0000 0.94990  0.49030  0.64550  Biso   1.000  H
  H466     1.0000 0.30010  0.25970  0.14550  Biso   1.000  H
  H467     1.0000 0.94990  0.25970  0.10450  Biso   1.000  H
  H468     1.0000 0.30010  0.49030  0.60450  Biso   1.000  H
  H469     1.0000 0.50970  0.69990  0.39550  Biso   1.000  H
  H470     1.0000 0.50970  0.05010  0.35450  Biso   1.000  H
  H471     1.0000 0.74030  0.05010  0.89550  Biso   1.000  H
  H472     1.0000 0.74030  0.69990  0.85450  Biso   1.000  H
  H473     1.0000 0.49030  0.14550  0.44990  Biso   1.000  H
  H474     1.0000 0.25970  0.64550  0.80010  Biso   1.000  H
  H475     1.0000 0.25970  0.60450  0.44990  Biso   1.000  H
  H476     1.0000 0.49030  0.10450  0.80010  Biso   1.000  H
  H477     1.0000 0.85450  0.50970  0.55010  Biso   1.000  H
  H478     1.0000 0.85450  0.74030  0.69990  Biso   1.000  H
  H479     1.0000 0.89550  0.00970  0.69990  Biso   1.000  H
  H480     1.0000 0.39550  0.24030  0.05010  Biso   1.000  H
  C1441    1.0000 0.38960  0.52924  0.02924  Biso   1.000  C
  C1442    1.0000 0.38960  0.72076  0.22076  Biso   1.000  C
  C1443    1.0000 0.36040  0.72076  0.52924  Biso   1.000  C
  C1444    1.0000 0.36040  0.52924  0.72076  Biso   1.000  C
  C1445    1.0000 0.47076  0.63960  0.27924  Biso   1.000  C
  C1446    1.0000 0.27924  0.63960  0.47076  Biso   1.000  C
  C1447    1.0000 0.27924  0.61040  0.77924  Biso   1.000  C
  C1448    1.0000 0.47076  0.61040  0.97076  Biso   1.000  C
  C1449    1.0000 0.52924  0.02924  0.38960  Biso   1.000  C
  C1450    1.0000 0.22076  0.22076  0.88960  Biso   1.000  C
  C1451    1.0000 0.52924  0.22076  0.86040  Biso   1.000  C
  C1452    1.0000 0.22076  0.02924  0.36040  Biso   1.000  C
  C1453    1.0000 0.97076  0.77924  0.63960  Biso   1.000  C
  C1454    1.0000 0.97076  0.47076  0.61040  Biso   1.000  C
  C1455    1.0000 0.77924  0.47076  0.13960  Biso   1.000  C
  C1456    1.0000 0.77924  0.77924  0.11040  Biso   1.000  C
  C1457    1.0000 0.02924  0.38960  0.52924  Biso   1.000  C
  C1458    1.0000 0.22076  0.88960  0.22076  Biso   1.000  C
  C1459    1.0000 0.22076  0.86040  0.52924  Biso   1.000  C
  C1460    1.0000 0.02924  0.36040  0.22076  Biso   1.000  C
  C1461    1.0000 0.61040  0.97076  0.47076  Biso   1.000  C
  C1462    1.0000 0.61040  0.77924  0.27924  Biso   1.000  C
  C1463    1.0000 0.63960  0.47076  0.27924  Biso   1.000  C
  C1464    1.0000 0.13960  0.27924  0.97076  Biso   1.000  C
  C1465    1.0000 0.38960  0.02924  0.52924  Biso   1.000  C
  C1466    1.0000 0.38960  0.22076  0.72076  Biso   1.000  C
  C1467    1.0000 0.36040  0.22076  0.02924  Biso   1.000  C
  C1468    1.0000 0.36040  0.02924  0.22076  Biso   1.000  C
  C1469    1.0000 0.47076  0.13960  0.77924  Biso   1.000  C
  C1470    1.0000 0.27924  0.13960  0.97076  Biso   1.000  C
  C1471    1.0000 0.27924  0.11040  0.27924  Biso   1.000  C
  C1472    1.0000 0.47076  0.11040  0.47076  Biso   1.000  C
  C1473    1.0000 0.52924  0.52924  0.88960  Biso   1.000  C
  C1474    1.0000 0.22076  0.72076  0.38960  Biso   1.000  C
  C1475    1.0000 0.52924  0.72076  0.36040  Biso   1.000  C
  C1476    1.0000 0.22076  0.52924  0.86040  Biso   1.000  C
  C1477    1.0000 0.97076  0.27924  0.13960  Biso   1.000  C
  C1478    1.0000 0.97076  0.97076  0.11040  Biso   1.000  C
  C1479    1.0000 0.77924  0.97076  0.63960  Biso   1.000  C
  C1480    1.0000 0.77924  0.27924  0.61040  Biso   1.000  C
  C1481    1.0000 0.02924  0.88960  0.02924  Biso   1.000  C
  C1482    1.0000 0.22076  0.38960  0.72076  Biso   1.000  C
  C1483    1.0000 0.22076  0.36040  0.02924  Biso   1.000  C
  C1484    1.0000 0.02924  0.86040  0.72076  Biso   1.000  C
  C1485    1.0000 0.61040  0.47076  0.97076  Biso   1.000  C
  C1486    1.0000 0.61040  0.27924  0.77924  Biso   1.000  C
  C1487    1.0000 0.63960  0.97076  0.77924  Biso   1.000  C
  C1488    1.0000 0.13960  0.77924  0.47076  Biso   1.000  C
  C1489    1.0000 0.88960  0.52924  0.52924  Biso   1.000  C
  C1490    1.0000 0.88960  0.72076  0.72076  Biso   1.000  C
  C1491    1.0000 0.86040  0.72076  0.02924  Biso   1.000  C
  C1492    1.0000 0.86040  0.52924  0.22076  Biso   1.000  C
  C1493    1.0000 0.97076  0.63960  0.77924  Biso   1.000  C
  C1494    1.0000 0.77924  0.63960  0.97076  Biso   1.000  C
  C1495    1.0000 0.77924  0.61040  0.27924  Biso   1.000  C
  C1496    1.0000 0.97076  0.61040  0.47076  Biso   1.000  C
  C1497    1.0000 0.02924  0.02924  0.88960  Biso   1.000  C
  C1498    1.0000 0.72076  0.22076  0.38960  Biso   1.000  C
  C1499    1.0000 0.02924  0.22076  0.36040  Biso   1.000  C
  C1500    1.0000 0.72076  0.02924  0.86040  Biso   1.000  C
  C1501    1.0000 0.47076  0.77924  0.13960  Biso   1.000  C
  C1502    1.0000 0.47076  0.47076  0.11040  Biso   1.000  C
  C1503    1.0000 0.27924  0.47076  0.63960  Biso   1.000  C
  C1504    1.0000 0.27924  0.77924  0.61040  Biso   1.000  C
  C1505    1.0000 0.52924  0.38960  0.02924  Biso   1.000  C
  C1506    1.0000 0.72076  0.88960  0.72076  Biso   1.000  C
  C1507    1.0000 0.72076  0.86040  0.02924  Biso   1.000  C
  C1508    1.0000 0.52924  0.36040  0.72076  Biso   1.000  C
  C1509    1.0000 0.11040  0.97076  0.97076  Biso   1.000  C
  C1510    1.0000 0.11040  0.77924  0.77924  Biso   1.000  C
  C1511    1.0000 0.13960  0.47076  0.77924  Biso   1.000  C
  C1512    1.0000 0.63960  0.27924  0.47076  Biso   1.000  C
  C1513    1.0000 0.88960  0.02924  0.02924  Biso   1.000  C
  C1514    1.0000 0.88960  0.22076  0.22076  Biso   1.000  C
  C1515    1.0000 0.86040  0.22076  0.52924  Biso   1.000  C
  C1516    1.0000 0.86040  0.02924  0.72076  Biso   1.000  C
  C1517    1.0000 0.97076  0.13960  0.27924  Biso   1.000  C
  C1518    1.0000 0.77924  0.13960  0.47076  Biso   1.000  C
  C1519    1.0000 0.77924  0.11040  0.77924  Biso   1.000  C
  C1520    1.0000 0.97076  0.11040  0.97076  Biso   1.000  C
  C1521    1.0000 0.02924  0.52924  0.38960  Biso   1.000  C
  C1522    1.0000 0.72076  0.72076  0.88960  Biso   1.000  C
  C1523    1.0000 0.02924  0.72076  0.86040  Biso   1.000  C
  C1524    1.0000 0.72076  0.52924  0.36040  Biso   1.000  C
  C1525    1.0000 0.47076  0.27924  0.63960  Biso   1.000  C
  C1526    1.0000 0.47076  0.97076  0.61040  Biso   1.000  C
  C1527    1.0000 0.27924  0.97076  0.13960  Biso   1.000  C
  C1528    1.0000 0.27924  0.27924  0.11040  Biso   1.000  C
  C1529    1.0000 0.52924  0.88960  0.52924  Biso   1.000  C
  C1530    1.0000 0.72076  0.38960  0.22076  Biso   1.000  C
  C1531    1.0000 0.72076  0.36040  0.52924  Biso   1.000  C
  C1532    1.0000 0.52924  0.86040  0.22076  Biso   1.000  C
  C1533    1.0000 0.11040  0.47076  0.47076  Biso   1.000  C
  C1534    1.0000 0.11040  0.27924  0.27924  Biso   1.000  C
  C1535    1.0000 0.13960  0.97076  0.27924  Biso   1.000  C
  C1536    1.0000 0.63960  0.77924  0.97076  Biso   1.000  C
  H481     1.0000 0.40290  0.52920  0.02920  Biso   1.000  H
  H482     1.0000 0.40290  0.72080  0.22080  Biso   1.000  H
  H483     1.0000 0.34710  0.72080  0.52920  Biso   1.000  H
  H484     1.0000 0.34710  0.52920  0.72080  Biso   1.000  H
  H485     1.0000 0.47080  0.65290  0.27920  Biso   1.000  H
  H486     1.0000 0.27920  0.65290  0.47080  Biso   1.000  H
  H487     1.0000 0.27920  0.59710  0.77920  Biso   1.000  H
  H488     1.0000 0.47080  0.59710  0.97080  Biso   1.000  H
  H489     1.0000 0.52920  0.02920  0.40290  Biso   1.000  H
  H490     1.0000 0.22080  0.22080  0.90290  Biso   1.000  H
  H491     1.0000 0.52920  0.22080  0.84710  Biso   1.000  H
  H492     1.0000 0.22080  0.02920  0.34710  Biso   1.000  H
  H493     1.0000 0.97080  0.77920  0.65290  Biso   1.000  H
  H494     1.0000 0.97080  0.47080  0.59710  Biso   1.000  H
  H495     1.0000 0.77920  0.47080  0.15290  Biso   1.000  H
  H496     1.0000 0.77920  0.77920  0.09710  Biso   1.000  H
  H497     1.0000 0.02920  0.40290  0.52920  Biso   1.000  H
  H498     1.0000 0.22080  0.90290  0.22080  Biso   1.000  H
  H499     1.0000 0.22080  0.84710  0.52920  Biso   1.000  H
  H500     1.0000 0.02920  0.34710  0.22080  Biso   1.000  H
  H501     1.0000 0.59710  0.97080  0.47080  Biso   1.000  H
  H502     1.0000 0.59710  0.77920  0.27920  Biso   1.000  H
  H503     1.0000 0.65290  0.47080  0.27920  Biso   1.000  H
  H504     1.0000 0.15290  0.27920  0.97080  Biso   1.000  H
  H505     1.0000 0.40290  0.02920  0.52920  Biso   1.000  H
  H506     1.0000 0.40290  0.22080  0.72080  Biso   1.000  H
  H507     1.0000 0.34710  0.22080  0.02920  Biso   1.000  H
  H508     1.0000 0.34710  0.02920  0.22080  Biso   1.000  H
  H509     1.0000 0.47080  0.15290  0.77920  Biso   1.000  H
  H510     1.0000 0.27920  0.15290  0.97080  Biso   1.000  H
  H511     1.0000 0.27920  0.09710  0.27920  Biso   1.000  H
  H512     1.0000 0.47080  0.09710  0.47080  Biso   1.000  H
  H513     1.0000 0.52920  0.52920  0.90290  Biso   1.000  H
  H514     1.0000 0.22080  0.72080  0.40290  Biso   1.000  H
  H515     1.0000 0.52920  0.72080  0.34710  Biso   1.000  H
  H516     1.0000 0.22080  0.52920  0.84710  Biso   1.000  H
  H517     1.0000 0.97080  0.27920  0.15290  Biso   1.000  H
  H518     1.0000 0.97080  0.97080  0.09710  Biso   1.000  H
  H519     1.0000 0.77920  0.97080  0.65290  Biso   1.000  H
  H520     1.0000 0.77920  0.27920  0.59710  Biso   1.000  H
  H521     1.0000 0.02920  0.90290  0.02920  Biso   1.000  H
  H522     1.0000 0.22080  0.40290  0.72080  Biso   1.000  H
  H523     1.0000 0.22080  0.34710  0.02920  Biso   1.000  H
  H524     1.0000 0.02920  0.84710  0.72080  Biso   1.000  H
  H525     1.0000 0.59710  0.47080  0.97080  Biso   1.000  H
  H526     1.0000 0.59710  0.27920  0.77920  Biso   1.000  H
  H527     1.0000 0.65290  0.97080  0.77920  Biso   1.000  H
  H528     1.0000 0.15290  0.77920  0.47080  Biso   1.000  H
  H529     1.0000 0.90290  0.52920  0.52920  Biso   1.000  H
  H530     1.0000 0.90290  0.72080  0.72080  Biso   1.000  H
  H531     1.0000 0.84710  0.72080  0.02920  Biso   1.000  H
  H532     1.0000 0.84710  0.52920  0.22080  Biso   1.000  H
  H533     1.0000 0.97080  0.65290  0.77920  Biso   1.000  H
  H534     1.0000 0.77920  0.65290  0.97080  Biso   1.000  H
  H535     1.0000 0.77920  0.59710  0.27920  Biso   1.000  H
  H536     1.0000 0.97080  0.59710  0.47080  Biso   1.000  H
  H537     1.0000 0.02920  0.02920  0.90290  Biso   1.000  H
  H538     1.0000 0.72080  0.22080  0.40290  Biso   1.000  H
  H539     1.0000 0.02920  0.22080  0.34710  Biso   1.000  H
  H540     1.0000 0.72080  0.02920  0.84710  Biso   1.000  H
  H541     1.0000 0.47080  0.77920  0.15290  Biso   1.000  H
  H542     1.0000 0.47080  0.47080  0.09710  Biso   1.000  H
  H543     1.0000 0.27920  0.47080  0.65290  Biso   1.000  H
  H544     1.0000 0.27920  0.77920  0.59710  Biso   1.000  H
  H545     1.0000 0.52920  0.40290  0.02920  Biso   1.000  H
  H546     1.0000 0.72080  0.90290  0.72080  Biso   1.000  H
  H547     1.0000 0.72080  0.84710  0.02920  Biso   1.000  H
  H548     1.0000 0.52920  0.34710  0.72080  Biso   1.000  H
  H549     1.0000 0.09710  0.97080  0.97080  Biso   1.000  H
  H550     1.0000 0.09710  0.77920  0.77920  Biso   1.000  H
  H551     1.0000 0.15290  0.47080  0.77920  Biso   1.000  H
  H552     1.0000 0.65290  0.27920  0.47080  Biso   1.000  H
  H553     1.0000 0.90290  0.02920  0.02920  Biso   1.000  H
  H554     1.0000 0.90290  0.22080  0.22080  Biso   1.000  H
  H555     1.0000 0.84710  0.22080  0.52920  Biso   1.000  H
  H556     1.0000 0.84710  0.02920  0.72080  Biso   1.000  H
  H557     1.0000 0.97080  0.15290  0.27920  Biso   1.000  H
  H558     1.0000 0.77920  0.15290  0.47080  Biso   1.000  H
  H559     1.0000 0.77920  0.09710  0.77920  Biso   1.000  H
  H560     1.0000 0.97080  0.09710  0.97080  Biso   1.000  H
  H561     1.0000 0.02920  0.52920  0.40290  Biso   1.000  H
  H562     1.0000 0.72080  0.72080  0.90290  Biso   1.000  H
  H563     1.0000 0.02920  0.72080  0.84710  Biso   1.000  H
  H564     1.0000 0.72080  0.52920  0.34710  Biso   1.000  H
  H565     1.0000 0.47080  0.27920  0.65290  Biso   1.000  H
  H566     1.0000 0.47080  0.97080  0.59710  Biso   1.000  H
  H567     1.0000 0.27920  0.97080  0.15290  Biso   1.000  H
  H568     1.0000 0.27920  0.27920  0.09710  Biso   1.000  H
  H569     1.0000 0.52920  0.90290  0.52920  Biso   1.000  H
  H570     1.0000 0.72080  0.40290  0.22080  Biso   1.000  H
  H571     1.0000 0.72080  0.34710  0.52920  Biso   1.000  H
  H572     1.0000 0.52920  0.84710  0.22080  Biso   1.000  H
  H573     1.0000 0.09710  0.47080  0.47080  Biso   1.000  H
  H574     1.0000 0.09710  0.27920  0.27920  Biso   1.000  H
  H575     1.0000 0.15290  0.97080  0.27920  Biso   1.000  H
  H576     1.0000 0.65290  0.77920  0.97080  Biso   1.000  H
  C1537    1.0000 0.35040  0.53023  0.03023  Biso   1.000  C
  C1538    1.0000 0.35040  0.71977  0.21977  Biso   1.000  C
  C1539    1.0000 0.39960  0.71977  0.53023  Biso   1.000  C
  C1540    1.0000 0.39960  0.53023  0.71977  Biso   1.000  C
  C1541    1.0000 0.46977  0.60040  0.28023  Biso   1.000  C
  C1542    1.0000 0.28023  0.60040  0.46977  Biso   1.000  C
  C1543    1.0000 0.28023  0.64960  0.78023  Biso   1.000  C
  C1544    1.0000 0.46977  0.64960  0.96977  Biso   1.000  C
  C1545    1.0000 0.53023  0.03023  0.35040  Biso   1.000  C
  C1546    1.0000 0.21977  0.21977  0.85040  Biso   1.000  C
  C1547    1.0000 0.53023  0.21977  0.89960  Biso   1.000  C
  C1548    1.0000 0.21977  0.03023  0.39960  Biso   1.000  C
  C1549    1.0000 0.96977  0.78023  0.60040  Biso   1.000  C
  C1550    1.0000 0.96977  0.46977  0.64960  Biso   1.000  C
  C1551    1.0000 0.78023  0.46977  0.10040  Biso   1.000  C
  C1552    1.0000 0.78023  0.78023  0.14960  Biso   1.000  C
  C1553    1.0000 0.03023  0.35040  0.53023  Biso   1.000  C
  C1554    1.0000 0.21977  0.85040  0.21977  Biso   1.000  C
  C1555    1.0000 0.21977  0.89960  0.53023  Biso   1.000  C
  C1556    1.0000 0.03023  0.39960  0.21977  Biso   1.000  C
  C1557    1.0000 0.64960  0.96977  0.46977  Biso   1.000  C
  C1558    1.0000 0.64960  0.78023  0.28023  Biso   1.000  C
  C1559    1.0000 0.60040  0.46977  0.28023  Biso   1.000  C
  C1560    1.0000 0.10040  0.28023  0.96977  Biso   1.000  C
  C1561    1.0000 0.35040  0.03023  0.53023  Biso   1.000  C
  C1562    1.0000 0.35040  0.21977  0.71977  Biso   1.000  C
  C1563    1.0000 0.39960  0.21977  0.03023  Biso   1.000  C
  C1564    1.0000 0.39960  0.03023  0.21977  Biso   1.000  C
  C1565    1.0000 0.46977  0.10040  0.78023  Biso   1.000  C
  C1566    1.0000 0.28023  0.10040  0.96977  Biso   1.000  C
  C1567    1.0000 0.28023  0.14960  0.28023  Biso   1.000  C
  C1568    1.0000 0.46977  0.14960  0.46977  Biso   1.000  C
  C1569    1.0000 0.53023  0.53023  0.85040  Biso   1.000  C
  C1570    1.0000 0.21977  0.71977  0.35040  Biso   1.000  C
  C1571    1.0000 0.53023  0.71977  0.39960  Biso   1.000  C
  C1572    1.0000 0.21977  0.53023  0.89960  Biso   1.000  C
  C1573    1.0000 0.96977  0.28023  0.10040  Biso   1.000  C
  C1574    1.0000 0.96977  0.96977  0.14960  Biso   1.000  C
  C1575    1.0000 0.78023  0.96977  0.60040  Biso   1.000  C
  C1576    1.0000 0.78023  0.28023  0.64960  Biso   1.000  C
  C1577    1.0000 0.03023  0.85040  0.03023  Biso   1.000  C
  C1578    1.0000 0.21977  0.35040  0.71977  Biso   1.000  C
  C1579    1.0000 0.21977  0.39960  0.03023  Biso   1.000  C
  C1580    1.0000 0.03023  0.89960  0.71977  Biso   1.000  C
  C1581    1.0000 0.64960  0.46977  0.96977  Biso   1.000  C
  C1582    1.0000 0.64960  0.28023  0.78023  Biso   1.000  C
  C1583    1.0000 0.60040  0.96977  0.78023  Biso   1.000  C
  C1584    1.0000 0.10040  0.78023  0.46977  Biso   1.000  C
  C1585    1.0000 0.85040  0.53023  0.53023  Biso   1.000  C
  C1586    1.0000 0.85040  0.71977  0.71977  Biso   1.000  C
  C1587    1.0000 0.89960  0.71977  0.03023  Biso   1.000  C
  C1588    1.0000 0.89960  0.53023  0.21977  Biso   1.000  C
  C1589    1.0000 0.96977  0.60040  0.78023  Biso   1.000  C
  C1590    1.0000 0.78023  0.60040  0.96977  Biso   1.000  C
  C1591    1.0000 0.78023  0.64960  0.28023  Biso   1.000  C
  C1592    1.0000 0.96977  0.64960  0.46977  Biso   1.000  C
  C1593    1.0000 0.03023  0.03023  0.85040  Biso   1.000  C
  C1594    1.0000 0.71977  0.21977  0.35040  Biso   1.000  C
  C1595    1.0000 0.03023  0.21977  0.39960  Biso   1.000  C
  C1596    1.0000 0.71977  0.03023  0.89960  Biso   1.000  C
  C1597    1.0000 0.46977  0.78023  0.10040  Biso   1.000  C
  C1598    1.0000 0.46977  0.46977  0.14960  Biso   1.000  C
  C1599    1.0000 0.28023  0.46977  0.60040  Biso   1.000  C
  C1600    1.0000 0.28023  0.78023  0.64960  Biso   1.000  C
  C1601    1.0000 0.53023  0.35040  0.03023  Biso   1.000  C
  C1602    1.0000 0.71977  0.85040  0.71977  Biso   1.000  C
  C1603    1.0000 0.71977  0.89960  0.03023  Biso   1.000  C
  C1604    1.0000 0.53023  0.39960  0.71977  Biso   1.000  C
  C1605    1.0000 0.14960  0.96977  0.96977  Biso   1.000  C
  C1606    1.0000 0.14960  0.78023  0.78023  Biso   1.000  C
  C1607    1.0000 0.10040  0.46977  0.78023  Biso   1.000  C
  C1608    1.0000 0.60040  0.28023  0.46977  Biso   1.000  C
  C1609    1.0000 0.85040  0.03023  0.03023  Biso   1.000  C
  C1610    1.0000 0.85040  0.21977  0.21977  Biso   1.000  C
  C1611    1.0000 0.89960  0.21977  0.53023  Biso   1.000  C
  C1612    1.0000 0.89960  0.03023  0.71977  Biso   1.000  C
  C1613    1.0000 0.96977  0.10040  0.28023  Biso   1.000  C
  C1614    1.0000 0.78023  0.10040  0.46977  Biso   1.000  C
  C1615    1.0000 0.78023  0.14960  0.78023  Biso   1.000  C
  C1616    1.0000 0.96977  0.14960  0.96977  Biso   1.000  C
  C1617    1.0000 0.03023  0.53023  0.35040  Biso   1.000  C
  C1618    1.0000 0.71977  0.71977  0.85040  Biso   1.000  C
  C1619    1.0000 0.03023  0.71977  0.89960  Biso   1.000  C
  C1620    1.0000 0.71977  0.53023  0.39960  Biso   1.000  C
  C1621    1.0000 0.46977  0.28023  0.60040  Biso   1.000  C
  C1622    1.0000 0.46977  0.96977  0.64960  Biso   1.000  C
  C1623    1.0000 0.28023  0.96977  0.10040  Biso   1.000  C
  C1624    1.0000 0.28023  0.28023  0.14960  Biso   1.000  C
  C1625    1.0000 0.53023  0.85040  0.53023  Biso   1.000  C
  C1626    1.0000 0.71977  0.35040  0.21977  Biso   1.000  C
  C1627    1.0000 0.71977  0.39960  0.53023  Biso   1.000  C
  C1628    1.0000 0.53023  0.89960  0.21977  Biso   1.000  C
  C1629    1.0000 0.14960  0.46977  0.46977  Biso   1.000  C
  C1630    1.0000 0.14960  0.28023  0.28023  Biso   1.000  C
  C1631    1.0000 0.10040  0.96977  0.28023  Biso   1.000  C
  C1632    1.0000 0.60040  0.78023  0.96977  Biso   1.000  C
  C1633    1.0000 0.32980  0.53253  0.03253  Biso   1.000  C
  C1634    1.0000 0.32980  0.71747  0.21747  Biso   1.000  C
  C1635    1.0000 0.42020  0.71747  0.53253  Biso   1.000  C
  C1636    1.0000 0.42020  0.53253  0.71747  Biso   1.000  C
  C1637    1.0000 0.46747  0.57980  0.28253  Biso   1.000  C
  C1638    1.0000 0.28253  0.57980  0.46747  Biso   1.000  C
  C1639    1.0000 0.28253  0.67020  0.78253  Biso   1.000  C
  C1640    1.0000 0.46747  0.67020  0.96747  Biso   1.000  C
  C1641    1.0000 0.53253  0.03253  0.32980  Biso   1.000  C
  C1642    1.0000 0.21747  0.21747  0.82980  Biso   1.000  C
  C1643    1.0000 0.53253  0.21747  0.92020  Biso   1.000  C
  C1644    1.0000 0.21747  0.03253  0.42020  Biso   1.000  C
  C1645    1.0000 0.96747  0.78253  0.57980  Biso   1.000  C
  C1646    1.0000 0.96747  0.46747  0.67020  Biso   1.000  C
  C1647    1.0000 0.78253  0.46747  0.07980  Biso   1.000  C
  C1648    1.0000 0.78253  0.78253  0.17020  Biso   1.000  C
  C1649    1.0000 0.03253  0.32980  0.53253  Biso   1.000  C
  C1650    1.0000 0.21747  0.82980  0.21747  Biso   1.000  C
  C1651    1.0000 0.21747  0.92020  0.53253  Biso   1.000  C
  C1652    1.0000 0.03253  0.42020  0.21747  Biso   1.000  C
  C1653    1.0000 0.67020  0.96747  0.46747  Biso   1.000  C
  C1654    1.0000 0.67020  0.78253  0.28253  Biso   1.000  C
  C1655    1.0000 0.57980  0.46747  0.28253  Biso   1.000  C
  C1656    1.0000 0.07980  0.28253  0.96747  Biso   1.000  C
  C1657    1.0000 0.32980  0.03253  0.53253  Biso   1.000  C
  C1658    1.0000 0.32980  0.21747  0.71747  Biso   1.000  C
  C1659    1.0000 0.42020  0.21747  0.03253  Biso   1.000  C
  C1660    1.0000 0.42020  0.03253  0.21747  Biso   1.000  C
  C1661    1.0000 0.46747  0.07980  0.78253  Biso   1.000  C
  C1662    1.0000 0.28253  0.07980  0.96747  Biso   1.000  C
  C1663    1.0000 0.28253  0.17020  0.28253  Biso   1.000  C
  C1664    1.0000 0.46747  0.17020  0.46747  Biso   1.000  C
  C1665    1.0000 0.53253  0.53253  0.82980  Biso   1.000  C
  C1666    1.0000 0.21747  0.71747  0.32980  Biso   1.000  C
  C1667    1.0000 0.53253  0.71747  0.42020  Biso   1.000  C
  C1668    1.0000 0.21747  0.53253  0.92020  Biso   1.000  C
  C1669    1.0000 0.96747  0.28253  0.07980  Biso   1.000  C
  C1670    1.0000 0.96747  0.96747  0.17020  Biso   1.000  C
  C1671    1.0000 0.78253  0.96747  0.57980  Biso   1.000  C
  C1672    1.0000 0.78253  0.28253  0.67020  Biso   1.000  C
  C1673    1.0000 0.03253  0.82980  0.03253  Biso   1.000  C
  C1674    1.0000 0.21747  0.32980  0.71747  Biso   1.000  C
  C1675    1.0000 0.21747  0.42020  0.03253  Biso   1.000  C
  C1676    1.0000 0.03253  0.92020  0.71747  Biso   1.000  C
  C1677    1.0000 0.67020  0.46747  0.96747  Biso   1.000  C
  C1678    1.0000 0.67020  0.28253  0.78253  Biso   1.000  C
  C1679    1.0000 0.57980  0.96747  0.78253  Biso   1.000  C
  C1680    1.0000 0.07980  0.78253  0.46747  Biso   1.000  C
  C1681    1.0000 0.82980  0.53253  0.53253  Biso   1.000  C
  C1682    1.0000 0.82980  0.71747  0.71747  Biso   1.000  C
  C1683    1.0000 0.92020  0.71747  0.03253  Biso   1.000  C
  C1684    1.0000 0.92020  0.53253  0.21747  Biso   1.000  C
  C1685    1.0000 0.96747  0.57980  0.78253  Biso   1.000  C
  C1686    1.0000 0.78253  0.57980  0.96747  Biso   1.000  C
  C1687    1.0000 0.78253  0.67020  0.28253  Biso   1.000  C
  C1688    1.0000 0.96747  0.67020  0.46747  Biso   1.000  C
  C1689    1.0000 0.03253  0.03253  0.82980  Biso   1.000  C
  C1690    1.0000 0.71747  0.21747  0.32980  Biso   1.000  C
  C1691    1.0000 0.03253  0.21747  0.42020  Biso   1.000  C
  C1692    1.0000 0.71747  0.03253  0.92020  Biso   1.000  C
  C1693    1.0000 0.46747  0.78253  0.07980  Biso   1.000  C
  C1694    1.0000 0.46747  0.46747  0.17020  Biso   1.000  C
  C1695    1.0000 0.28253  0.46747  0.57980  Biso   1.000  C
  C1696    1.0000 0.28253  0.78253  0.67020  Biso   1.000  C
  C1697    1.0000 0.53253  0.32980  0.03253  Biso   1.000  C
  C1698    1.0000 0.71747  0.82980  0.71747  Biso   1.000  C
  C1699    1.0000 0.71747  0.92020  0.03253  Biso   1.000  C
  C1700    1.0000 0.53253  0.42020  0.71747  Biso   1.000  C
  C1701    1.0000 0.17020  0.96747  0.96747  Biso   1.000  C
  C1702    1.0000 0.17020  0.78253  0.78253  Biso   1.000  C
  C1703    1.0000 0.07980  0.46747  0.78253  Biso   1.000  C
  C1704    1.0000 0.57980  0.28253  0.46747  Biso   1.000  C
  C1705    1.0000 0.82980  0.03253  0.03253  Biso   1.000  C
  C1706    1.0000 0.82980  0.21747  0.21747  Biso   1.000  C
  C1707    1.0000 0.92020  0.21747  0.53253  Biso   1.000  C
  C1708    1.0000 0.92020  0.03253  0.71747  Biso   1.000  C
  C1709    1.0000 0.96747  0.07980  0.28253  Biso   1.000  C
  C1710    1.0000 0.78253  0.07980  0.46747  Biso   1.000  C
  C1711    1.0000 0.78253  0.17020  0.78253  Biso   1.000  C
  C1712    1.0000 0.96747  0.17020  0.96747  Biso   1.000  C
  C1713    1.0000 0.03253  0.53253  0.32980  Biso   1.000  C
  C1714    1.0000 0.71747  0.71747  0.82980  Biso   1.000  C
  C1715    1.0000 0.03253  0.71747  0.92020  Biso   1.000  C
  C1716    1.0000 0.71747  0.53253  0.42020  Biso   1.000  C
  C1717    1.0000 0.46747  0.28253  0.57980  Biso   1.000  C
  C1718    1.0000 0.46747  0.96747  0.67020  Biso   1.000  C
  C1719    1.0000 0.28253  0.96747  0.07980  Biso   1.000  C
  C1720    1.0000 0.28253  0.28253  0.17020  Biso   1.000  C
  C1721    1.0000 0.53253  0.82980  0.53253  Biso   1.000  C
  C1722    1.0000 0.71747  0.32980  0.21747  Biso   1.000  C
  C1723    1.0000 0.71747  0.42020  0.53253  Biso   1.000  C
  C1724    1.0000 0.53253  0.92020  0.21747  Biso   1.000  C
  C1725    1.0000 0.17020  0.46747  0.46747  Biso   1.000  C
  C1726    1.0000 0.17020  0.28253  0.28253  Biso   1.000  C
  C1727    1.0000 0.07980  0.96747  0.28253  Biso   1.000  C
  C1728    1.0000 0.57980  0.78253  0.96747  Biso   1.000  C
  C1729    1.0000 0.41308  0.68730  0.95330  Biso   1.000  C
  C1730    1.0000 0.41308  0.56270  0.29670  Biso   1.000  C
  C1731    1.0000 0.33692  0.56270  0.45330  Biso   1.000  C
  C1732    1.0000 0.33692  0.68730  0.79670  Biso   1.000  C
  C1733    1.0000 0.31270  0.66308  0.20330  Biso   1.000  C
  C1734    1.0000 0.43730  0.66308  0.54670  Biso   1.000  C
  C1735    1.0000 0.43730  0.58692  0.70330  Biso   1.000  C
  C1736    1.0000 0.31270  0.58692  0.04670  Biso   1.000  C
  C1737    1.0000 0.68730  0.95330  0.41308  Biso   1.000  C
  C1738    1.0000 0.06270  0.29670  0.91308  Biso   1.000  C
  C1739    1.0000 0.68730  0.29670  0.83692  Biso   1.000  C
  C1740    1.0000 0.06270  0.95330  0.33692  Biso   1.000  C
  C1741    1.0000 0.04670  0.93730  0.66308  Biso   1.000  C
  C1742    1.0000 0.04670  0.31270  0.58692  Biso   1.000  C
  C1743    1.0000 0.70330  0.31270  0.16308  Biso   1.000  C
  C1744    1.0000 0.70330  0.93730  0.08692  Biso   1.000  C
  C1745    1.0000 0.95330  0.41308  0.68730  Biso   1.000  C
  C1746    1.0000 0.29670  0.91308  0.06270  Biso   1.000  C
  C1747    1.0000 0.29670  0.83692  0.68730  Biso   1.000  C
  C1748    1.0000 0.95330  0.33692  0.06270  Biso   1.000  C
  C1749    1.0000 0.58692  0.04670  0.31270  Biso   1.000  C
  C1750    1.0000 0.58692  0.70330  0.43730  Biso   1.000  C
  C1751    1.0000 0.66308  0.54670  0.43730  Biso   1.000  C
  C1752    1.0000 0.16308  0.20330  0.81270  Biso   1.000  C
  C1753    1.0000 0.41308  0.18730  0.45330  Biso   1.000  C
  C1754    1.0000 0.41308  0.06270  0.79670  Biso   1.000  C
  C1755    1.0000 0.33692  0.06270  0.95330  Biso   1.000  C
  C1756    1.0000 0.33692  0.18730  0.29670  Biso   1.000  C
  C1757    1.0000 0.31270  0.16308  0.70330  Biso   1.000  C
  C1758    1.0000 0.43730  0.16308  0.04670  Biso   1.000  C
  C1759    1.0000 0.43730  0.08692  0.20330  Biso   1.000  C
  C1760    1.0000 0.31270  0.08692  0.54670  Biso   1.000  C
  C1761    1.0000 0.68730  0.45330  0.91308  Biso   1.000  C
  C1762    1.0000 0.06270  0.79670  0.41308  Biso   1.000  C
  C1763    1.0000 0.68730  0.79670  0.33692  Biso   1.000  C
  C1764    1.0000 0.06270  0.45330  0.83692  Biso   1.000  C
  C1765    1.0000 0.04670  0.43730  0.16308  Biso   1.000  C
  C1766    1.0000 0.04670  0.81270  0.08692  Biso   1.000  C
  C1767    1.0000 0.70330  0.81270  0.66308  Biso   1.000  C
  C1768    1.0000 0.70330  0.43730  0.58692  Biso   1.000  C
  C1769    1.0000 0.95330  0.91308  0.18730  Biso   1.000  C
  C1770    1.0000 0.29670  0.41308  0.56270  Biso   1.000  C
  C1771    1.0000 0.29670  0.33692  0.18730  Biso   1.000  C
  C1772    1.0000 0.95330  0.83692  0.56270  Biso   1.000  C
  C1773    1.0000 0.58692  0.54670  0.81270  Biso   1.000  C
  C1774    1.0000 0.58692  0.20330  0.93730  Biso   1.000  C
  C1775    1.0000 0.66308  0.04670  0.93730  Biso   1.000  C
  C1776    1.0000 0.16308  0.70330  0.31270  Biso   1.000  C
  C1777    1.0000 0.91308  0.68730  0.45330  Biso   1.000  C
  C1778    1.0000 0.91308  0.56270  0.79670  Biso   1.000  C
  C1779    1.0000 0.83692  0.56270  0.95330  Biso   1.000  C
  C1780    1.0000 0.83692  0.68730  0.29670  Biso   1.000  C
  C1781    1.0000 0.81270  0.66308  0.70330  Biso   1.000  C
  C1782    1.0000 0.93730  0.66308  0.04670  Biso   1.000  C
  C1783    1.0000 0.93730  0.58692  0.20330  Biso   1.000  C
  C1784    1.0000 0.81270  0.58692  0.54670  Biso   1.000  C
  C1785    1.0000 0.18730  0.95330  0.91308  Biso   1.000  C
  C1786    1.0000 0.56270  0.29670  0.41308  Biso   1.000  C
  C1787    1.0000 0.18730  0.29670  0.33692  Biso   1.000  C
  C1788    1.0000 0.56270  0.95330  0.83692  Biso   1.000  C
  C1789    1.0000 0.54670  0.93730  0.16308  Biso   1.000  C
  C1790    1.0000 0.54670  0.31270  0.08692  Biso   1.000  C
  C1791    1.0000 0.20330  0.31270  0.66308  Biso   1.000  C
  C1792    1.0000 0.20330  0.93730  0.58692  Biso   1.000  C
  C1793    1.0000 0.45330  0.41308  0.18730  Biso   1.000  C
  C1794    1.0000 0.79670  0.91308  0.56270  Biso   1.000  C
  C1795    1.0000 0.79670  0.83692  0.18730  Biso   1.000  C
  C1796    1.0000 0.45330  0.33692  0.56270  Biso   1.000  C
  C1797    1.0000 0.08692  0.04670  0.81270  Biso   1.000  C
  C1798    1.0000 0.08692  0.70330  0.93730  Biso   1.000  C
  C1799    1.0000 0.16308  0.54670  0.93730  Biso   1.000  C
  C1800    1.0000 0.66308  0.20330  0.31270  Biso   1.000  C
  C1801    1.0000 0.91308  0.18730  0.95330  Biso   1.000  C
  C1802    1.0000 0.91308  0.06270  0.29670  Biso   1.000  C
  C1803    1.0000 0.83692  0.06270  0.45330  Biso   1.000  C
  C1804    1.0000 0.83692  0.18730  0.79670  Biso   1.000  C
  C1805    1.0000 0.81270  0.16308  0.20330  Biso   1.000  C
  C1806    1.0000 0.93730  0.16308  0.54670  Biso   1.000  C
  C1807    1.0000 0.93730  0.08692  0.70330  Biso   1.000  C
  C1808    1.0000 0.81270  0.08692  0.04670  Biso   1.000  C
  C1809    1.0000 0.18730  0.45330  0.41308  Biso   1.000  C
  C1810    1.0000 0.56270  0.79670  0.91308  Biso   1.000  C
  C1811    1.0000 0.18730  0.79670  0.83692  Biso   1.000  C
  C1812    1.0000 0.56270  0.45330  0.33692  Biso   1.000  C
  C1813    1.0000 0.54670  0.43730  0.66308  Biso   1.000  C
  C1814    1.0000 0.54670  0.81270  0.58692  Biso   1.000  C
  C1815    1.0000 0.20330  0.81270  0.16308  Biso   1.000  C
  C1816    1.0000 0.20330  0.43730  0.08692  Biso   1.000  C
  C1817    1.0000 0.45330  0.91308  0.68730  Biso   1.000  C
  C1818    1.0000 0.79670  0.41308  0.06270  Biso   1.000  C
  C1819    1.0000 0.79670  0.33692  0.68730  Biso   1.000  C
  C1820    1.0000 0.45330  0.83692  0.06270  Biso   1.000  C
  C1821    1.0000 0.08692  0.54670  0.31270  Biso   1.000  C
  C1822    1.0000 0.08692  0.20330  0.43730  Biso   1.000  C
  C1823    1.0000 0.16308  0.04670  0.43730  Biso   1.000  C
  C1824    1.0000 0.66308  0.70330  0.81270  Biso   1.000  C
  C1825    1.0000 0.58692  0.31270  0.04670  Biso   1.000  C
  C1826    1.0000 0.58692  0.43730  0.70330  Biso   1.000  C
  C1827    1.0000 0.66308  0.43730  0.54670  Biso   1.000  C
  C1828    1.0000 0.66308  0.31270  0.20330  Biso   1.000  C
  C1829    1.0000 0.68730  0.33692  0.79670  Biso   1.000  C
  C1830    1.0000 0.56270  0.33692  0.45330  Biso   1.000  C
  C1831    1.0000 0.56270  0.41308  0.29670  Biso   1.000  C
  C1832    1.0000 0.68730  0.41308  0.95330  Biso   1.000  C
  C1833    1.0000 0.31270  0.04670  0.58692  Biso   1.000  C
  C1834    1.0000 0.93730  0.70330  0.08692  Biso   1.000  C
  C1835    1.0000 0.31270  0.70330  0.16308  Biso   1.000  C
  C1836    1.0000 0.93730  0.04670  0.66308  Biso   1.000  C
  C1837    1.0000 0.95330  0.06270  0.33692  Biso   1.000  C
  C1838    1.0000 0.95330  0.68730  0.41308  Biso   1.000  C
  C1839    1.0000 0.29670  0.68730  0.83692  Biso   1.000  C
  C1840    1.0000 0.29670  0.06270  0.91308  Biso   1.000  C
  C1841    1.0000 0.04670  0.58692  0.31270  Biso   1.000  C
  C1842    1.0000 0.70330  0.08692  0.93730  Biso   1.000  C
  C1843    1.0000 0.70330  0.16308  0.31270  Biso   1.000  C
  C1844    1.0000 0.04670  0.66308  0.93730  Biso   1.000  C
  C1845    1.0000 0.41308  0.95330  0.68730  Biso   1.000  C
  C1846    1.0000 0.41308  0.29670  0.56270  Biso   1.000  C
  C1847    1.0000 0.33692  0.45330  0.56270  Biso   1.000  C
  C1848    1.0000 0.83692  0.79670  0.18730  Biso   1.000  C
  C1849    1.0000 0.58692  0.81270  0.54670  Biso   1.000  C
  C1850    1.0000 0.58692  0.93730  0.20330  Biso   1.000  C
  C1851    1.0000 0.66308  0.93730  0.04670  Biso   1.000  C
  C1852    1.0000 0.66308  0.81270  0.70330  Biso   1.000  C
  C1853    1.0000 0.68730  0.83692  0.29670  Biso   1.000  C
  C1854    1.0000 0.56270  0.83692  0.95330  Biso   1.000  C
  C1855    1.0000 0.56270  0.91308  0.79670  Biso   1.000  C
  C1856    1.0000 0.68730  0.91308  0.45330  Biso   1.000  C
  C1857    1.0000 0.31270  0.54670  0.08692  Biso   1.000  C
  C1858    1.0000 0.93730  0.20330  0.58692  Biso   1.000  C
  C1859    1.0000 0.31270  0.20330  0.66308  Biso   1.000  C
  C1860    1.0000 0.93730  0.54670  0.16308  Biso   1.000  C
  C1861    1.0000 0.95330  0.56270  0.83692  Biso   1.000  C
  C1862    1.0000 0.95330  0.18730  0.91308  Biso   1.000  C
  C1863    1.0000 0.29670  0.18730  0.33692  Biso   1.000  C
  C1864    1.0000 0.29670  0.56270  0.41308  Biso   1.000  C
  C1865    1.0000 0.04670  0.08692  0.81270  Biso   1.000  C
  C1866    1.0000 0.70330  0.58692  0.43730  Biso   1.000  C
  C1867    1.0000 0.70330  0.66308  0.81270  Biso   1.000  C
  C1868    1.0000 0.04670  0.16308  0.43730  Biso   1.000  C
  C1869    1.0000 0.41308  0.45330  0.18730  Biso   1.000  C
  C1870    1.0000 0.41308  0.79670  0.06270  Biso   1.000  C
  C1871    1.0000 0.33692  0.95330  0.06270  Biso   1.000  C
  C1872    1.0000 0.83692  0.29670  0.68730  Biso   1.000  C
  C1873    1.0000 0.08692  0.31270  0.54670  Biso   1.000  C
  C1874    1.0000 0.08692  0.43730  0.20330  Biso   1.000  C
  C1875    1.0000 0.16308  0.43730  0.04670  Biso   1.000  C
  C1876    1.0000 0.16308  0.31270  0.70330  Biso   1.000  C
  C1877    1.0000 0.18730  0.33692  0.29670  Biso   1.000  C
  C1878    1.0000 0.06270  0.33692  0.95330  Biso   1.000  C
  C1879    1.0000 0.06270  0.41308  0.79670  Biso   1.000  C
  C1880    1.0000 0.18730  0.41308  0.45330  Biso   1.000  C
  C1881    1.0000 0.81270  0.04670  0.08692  Biso   1.000  C
  C1882    1.0000 0.43730  0.70330  0.58692  Biso   1.000  C
  C1883    1.0000 0.81270  0.70330  0.66308  Biso   1.000  C
  C1884    1.0000 0.43730  0.04670  0.16308  Biso   1.000  C
  C1885    1.0000 0.45330  0.06270  0.83692  Biso   1.000  C
  C1886    1.0000 0.45330  0.68730  0.91308  Biso   1.000  C
  C1887    1.0000 0.79670  0.68730  0.33692  Biso   1.000  C
  C1888    1.0000 0.79670  0.06270  0.41308  Biso   1.000  C
  C1889    1.0000 0.54670  0.58692  0.81270  Biso   1.000  C
  C1890    1.0000 0.20330  0.08692  0.43730  Biso   1.000  C
  C1891    1.0000 0.20330  0.16308  0.81270  Biso   1.000  C
  C1892    1.0000 0.54670  0.66308  0.43730  Biso   1.000  C
  C1893    1.0000 0.91308  0.95330  0.18730  Biso   1.000  C
  C1894    1.0000 0.91308  0.29670  0.06270  Biso   1.000  C
  C1895    1.0000 0.83692  0.45330  0.06270  Biso   1.000  C
  C1896    1.0000 0.33692  0.79670  0.68730  Biso   1.000  C
  C1897    1.0000 0.08692  0.81270  0.04670  Biso   1.000  C
  C1898    1.0000 0.08692  0.93730  0.70330  Biso   1.000  C
  C1899    1.0000 0.16308  0.93730  0.54670  Biso   1.000  C
  C1900    1.0000 0.16308  0.81270  0.20330  Biso   1.000  C
  C1901    1.0000 0.18730  0.83692  0.79670  Biso   1.000  C
  C1902    1.0000 0.06270  0.83692  0.45330  Biso   1.000  C
  C1903    1.0000 0.06270  0.91308  0.29670  Biso   1.000  C
  C1904    1.0000 0.18730  0.91308  0.95330  Biso   1.000  C
  C1905    1.0000 0.81270  0.54670  0.58692  Biso   1.000  C
  C1906    1.0000 0.43730  0.20330  0.08692  Biso   1.000  C
  C1907    1.0000 0.81270  0.20330  0.16308  Biso   1.000  C
  C1908    1.0000 0.43730  0.54670  0.66308  Biso   1.000  C
  C1909    1.0000 0.45330  0.56270  0.33692  Biso   1.000  C
  C1910    1.0000 0.45330  0.18730  0.41308  Biso   1.000  C
  C1911    1.0000 0.79670  0.18730  0.83692  Biso   1.000  C
  C1912    1.0000 0.79670  0.56270  0.91308  Biso   1.000  C
  C1913    1.0000 0.54670  0.08692  0.31270  Biso   1.000  C
  C1914    1.0000 0.20330  0.58692  0.93730  Biso   1.000  C
  C1915    1.0000 0.20330  0.66308  0.31270  Biso   1.000  C
  C1916    1.0000 0.54670  0.16308  0.93730  Biso   1.000  C
  C1917    1.0000 0.91308  0.45330  0.68730  Biso   1.000  C
  C1918    1.0000 0.91308  0.79670  0.56270  Biso   1.000  C
  C1919    1.0000 0.83692  0.95330  0.56270  Biso   1.000  C
  C1920    1.0000 0.33692  0.29670  0.18730  Biso   1.000  C
  C1921    1.0000 0.40051  0.67028  0.95173  Biso   1.000  C
  C1922    1.0000 0.40051  0.57972  0.29827  Biso   1.000  C
  C1923    1.0000 0.34949  0.57972  0.45173  Biso   1.000  C
  C1924    1.0000 0.34949  0.67028  0.79827  Biso   1.000  C
  C1925    1.0000 0.32972  0.65051  0.20173  Biso   1.000  C
  C1926    1.0000 0.42028  0.65051  0.54827  Biso   1.000  C
  C1927    1.0000 0.42028  0.59949  0.70173  Biso   1.000  C
  C1928    1.0000 0.32972  0.59949  0.04827  Biso   1.000  C
  C1929    1.0000 0.67028  0.95173  0.40051  Biso   1.000  C
  C1930    1.0000 0.07972  0.29827  0.90051  Biso   1.000  C
  C1931    1.0000 0.67028  0.29827  0.84949  Biso   1.000  C
  C1932    1.0000 0.07972  0.95173  0.34949  Biso   1.000  C
  C1933    1.0000 0.04827  0.92028  0.65051  Biso   1.000  C
  C1934    1.0000 0.04827  0.32972  0.59949  Biso   1.000  C
  C1935    1.0000 0.70173  0.32972  0.15051  Biso   1.000  C
  C1936    1.0000 0.70173  0.92028  0.09949  Biso   1.000  C
  C1937    1.0000 0.95173  0.40051  0.67028  Biso   1.000  C
  C1938    1.0000 0.29827  0.90051  0.07972  Biso   1.000  C
  C1939    1.0000 0.29827  0.84949  0.67028  Biso   1.000  C
  C1940    1.0000 0.95173  0.34949  0.07972  Biso   1.000  C
  C1941    1.0000 0.59949  0.04827  0.32972  Biso   1.000  C
  C1942    1.0000 0.59949  0.70173  0.42028  Biso   1.000  C
  C1943    1.0000 0.65051  0.54827  0.42028  Biso   1.000  C
  C1944    1.0000 0.15051  0.20173  0.82972  Biso   1.000  C
  C1945    1.0000 0.40051  0.17028  0.45173  Biso   1.000  C
  C1946    1.0000 0.40051  0.07972  0.79827  Biso   1.000  C
  C1947    1.0000 0.34949  0.07972  0.95173  Biso   1.000  C
  C1948    1.0000 0.34949  0.17028  0.29827  Biso   1.000  C
  C1949    1.0000 0.32972  0.15051  0.70173  Biso   1.000  C
  C1950    1.0000 0.42028  0.15051  0.04827  Biso   1.000  C
  C1951    1.0000 0.42028  0.09949  0.20173  Biso   1.000  C
  C1952    1.0000 0.32972  0.09949  0.54827  Biso   1.000  C
  C1953    1.0000 0.67028  0.45173  0.90051  Biso   1.000  C
  C1954    1.0000 0.07972  0.79827  0.40051  Biso   1.000  C
  C1955    1.0000 0.67028  0.79827  0.34949  Biso   1.000  C
  C1956    1.0000 0.07972  0.45173  0.84949  Biso   1.000  C
  C1957    1.0000 0.04827  0.42028  0.15051  Biso   1.000  C
  C1958    1.0000 0.04827  0.82972  0.09949  Biso   1.000  C
  C1959    1.0000 0.70173  0.82972  0.65051  Biso   1.000  C
  C1960    1.0000 0.70173  0.42028  0.59949  Biso   1.000  C
  C1961    1.0000 0.95173  0.90051  0.17028  Biso   1.000  C
  C1962    1.0000 0.29827  0.40051  0.57972  Biso   1.000  C
  C1963    1.0000 0.29827  0.34949  0.17028  Biso   1.000  C
  C1964    1.0000 0.95173  0.84949  0.57972  Biso   1.000  C
  C1965    1.0000 0.59949  0.54827  0.82972  Biso   1.000  C
  C1966    1.0000 0.59949  0.20173  0.92028  Biso   1.000  C
  C1967    1.0000 0.65051  0.04827  0.92028  Biso   1.000  C
  C1968    1.0000 0.15051  0.70173  0.32972  Biso   1.000  C
  C1969    1.0000 0.90051  0.67028  0.45173  Biso   1.000  C
  C1970    1.0000 0.90051  0.57972  0.79827  Biso   1.000  C
  C1971    1.0000 0.84949  0.57972  0.95173  Biso   1.000  C
  C1972    1.0000 0.84949  0.67028  0.29827  Biso   1.000  C
  C1973    1.0000 0.82972  0.65051  0.70173  Biso   1.000  C
  C1974    1.0000 0.92028  0.65051  0.04827  Biso   1.000  C
  C1975    1.0000 0.92028  0.59949  0.20173  Biso   1.000  C
  C1976    1.0000 0.82972  0.59949  0.54827  Biso   1.000  C
  C1977    1.0000 0.17028  0.95173  0.90051  Biso   1.000  C
  C1978    1.0000 0.57972  0.29827  0.40051  Biso   1.000  C
  C1979    1.0000 0.17028  0.29827  0.34949  Biso   1.000  C
  C1980    1.0000 0.57972  0.95173  0.84949  Biso   1.000  C
  C1981    1.0000 0.54827  0.92028  0.15051  Biso   1.000  C
  C1982    1.0000 0.54827  0.32972  0.09949  Biso   1.000  C
  C1983    1.0000 0.20173  0.32972  0.65051  Biso   1.000  C
  C1984    1.0000 0.20173  0.92028  0.59949  Biso   1.000  C
  C1985    1.0000 0.45173  0.40051  0.17028  Biso   1.000  C
  C1986    1.0000 0.79827  0.90051  0.57972  Biso   1.000  C
  C1987    1.0000 0.79827  0.84949  0.17028  Biso   1.000  C
  C1988    1.0000 0.45173  0.34949  0.57972  Biso   1.000  C
  C1989    1.0000 0.09949  0.04827  0.82972  Biso   1.000  C
  C1990    1.0000 0.09949  0.70173  0.92028  Biso   1.000  C
  C1991    1.0000 0.15051  0.54827  0.92028  Biso   1.000  C
  C1992    1.0000 0.65051  0.20173  0.32972  Biso   1.000  C
  C1993    1.0000 0.90051  0.17028  0.95173  Biso   1.000  C
  C1994    1.0000 0.90051  0.07972  0.29827  Biso   1.000  C
  C1995    1.0000 0.84949  0.07972  0.45173  Biso   1.000  C
  C1996    1.0000 0.84949  0.17028  0.79827  Biso   1.000  C
  C1997    1.0000 0.82972  0.15051  0.20173  Biso   1.000  C
  C1998    1.0000 0.92028  0.15051  0.54827  Biso   1.000  C
  C1999    1.0000 0.92028  0.09949  0.70173  Biso   1.000  C
  C2000    1.0000 0.82972  0.09949  0.04827  Biso   1.000  C
  C2001    1.0000 0.17028  0.45173  0.40051  Biso   1.000  C
  C2002    1.0000 0.57972  0.79827  0.90051  Biso   1.000  C
  C2003    1.0000 0.17028  0.79827  0.84949  Biso   1.000  C
  C2004    1.0000 0.57972  0.45173  0.34949  Biso   1.000  C
  C2005    1.0000 0.54827  0.42028  0.65051  Biso   1.000  C
  C2006    1.0000 0.54827  0.82972  0.59949  Biso   1.000  C
  C2007    1.0000 0.20173  0.82972  0.15051  Biso   1.000  C
  C2008    1.0000 0.20173  0.42028  0.09949  Biso   1.000  C
  C2009    1.0000 0.45173  0.90051  0.67028  Biso   1.000  C
  C2010    1.0000 0.79827  0.40051  0.07972  Biso   1.000  C
  C2011    1.0000 0.79827  0.34949  0.67028  Biso   1.000  C
  C2012    1.0000 0.45173  0.84949  0.07972  Biso   1.000  C
  C2013    1.0000 0.09949  0.54827  0.32972  Biso   1.000  C
  C2014    1.0000 0.09949  0.20173  0.42028  Biso   1.000  C
  C2015    1.0000 0.15051  0.04827  0.42028  Biso   1.000  C
  C2016    1.0000 0.65051  0.70173  0.82972  Biso   1.000  C
  C2017    1.0000 0.59949  0.32972  0.04827  Biso   1.000  C
  C2018    1.0000 0.59949  0.42028  0.70173  Biso   1.000  C
  C2019    1.0000 0.65051  0.42028  0.54827  Biso   1.000  C
  C2020    1.0000 0.65051  0.32972  0.20173  Biso   1.000  C
  C2021    1.0000 0.67028  0.34949  0.79827  Biso   1.000  C
  C2022    1.0000 0.57972  0.34949  0.45173  Biso   1.000  C
  C2023    1.0000 0.57972  0.40051  0.29827  Biso   1.000  C
  C2024    1.0000 0.67028  0.40051  0.95173  Biso   1.000  C
  C2025    1.0000 0.32972  0.04827  0.59949  Biso   1.000  C
  C2026    1.0000 0.92028  0.70173  0.09949  Biso   1.000  C
  C2027    1.0000 0.32972  0.70173  0.15051  Biso   1.000  C
  C2028    1.0000 0.92028  0.04827  0.65051  Biso   1.000  C
  C2029    1.0000 0.95173  0.07972  0.34949  Biso   1.000  C
  C2030    1.0000 0.95173  0.67028  0.40051  Biso   1.000  C
  C2031    1.0000 0.29827  0.67028  0.84949  Biso   1.000  C
  C2032    1.0000 0.29827  0.07972  0.90051  Biso   1.000  C
  C2033    1.0000 0.04827  0.59949  0.32972  Biso   1.000  C
  C2034    1.0000 0.70173  0.09949  0.92028  Biso   1.000  C
  C2035    1.0000 0.70173  0.15051  0.32972  Biso   1.000  C
  C2036    1.0000 0.04827  0.65051  0.92028  Biso   1.000  C
  C2037    1.0000 0.40051  0.95173  0.67028  Biso   1.000  C
  C2038    1.0000 0.40051  0.29827  0.57972  Biso   1.000  C
  C2039    1.0000 0.34949  0.45173  0.57972  Biso   1.000  C
  C2040    1.0000 0.84949  0.79827  0.17028  Biso   1.000  C
  C2041    1.0000 0.59949  0.82972  0.54827  Biso   1.000  C
  C2042    1.0000 0.59949  0.92028  0.20173  Biso   1.000  C
  C2043    1.0000 0.65051  0.92028  0.04827  Biso   1.000  C
  C2044    1.0000 0.65051  0.82972  0.70173  Biso   1.000  C
  C2045    1.0000 0.67028  0.84949  0.29827  Biso   1.000  C
  C2046    1.0000 0.57972  0.84949  0.95173  Biso   1.000  C
  C2047    1.0000 0.57972  0.90051  0.79827  Biso   1.000  C
  C2048    1.0000 0.67028  0.90051  0.45173  Biso   1.000  C
  C2049    1.0000 0.32972  0.54827  0.09949  Biso   1.000  C
  C2050    1.0000 0.92028  0.20173  0.59949  Biso   1.000  C
  C2051    1.0000 0.32972  0.20173  0.65051  Biso   1.000  C
  C2052    1.0000 0.92028  0.54827  0.15051  Biso   1.000  C
  C2053    1.0000 0.95173  0.57972  0.84949  Biso   1.000  C
  C2054    1.0000 0.95173  0.17028  0.90051  Biso   1.000  C
  C2055    1.0000 0.29827  0.17028  0.34949  Biso   1.000  C
  C2056    1.0000 0.29827  0.57972  0.40051  Biso   1.000  C
  C2057    1.0000 0.04827  0.09949  0.82972  Biso   1.000  C
  C2058    1.0000 0.70173  0.59949  0.42028  Biso   1.000  C
  C2059    1.0000 0.70173  0.65051  0.82972  Biso   1.000  C
  C2060    1.0000 0.04827  0.15051  0.42028  Biso   1.000  C
  C2061    1.0000 0.40051  0.45173  0.17028  Biso   1.000  C
  C2062    1.0000 0.40051  0.79827  0.07972  Biso   1.000  C
  C2063    1.0000 0.34949  0.95173  0.07972  Biso   1.000  C
  C2064    1.0000 0.84949  0.29827  0.67028  Biso   1.000  C
  C2065    1.0000 0.09949  0.32972  0.54827  Biso   1.000  C
  C2066    1.0000 0.09949  0.42028  0.20173  Biso   1.000  C
  C2067    1.0000 0.15051  0.42028  0.04827  Biso   1.000  C
  C2068    1.0000 0.15051  0.32972  0.70173  Biso   1.000  C
  C2069    1.0000 0.17028  0.34949  0.29827  Biso   1.000  C
  C2070    1.0000 0.07972  0.34949  0.95173  Biso   1.000  C
  C2071    1.0000 0.07972  0.40051  0.79827  Biso   1.000  C
  C2072    1.0000 0.17028  0.40051  0.45173  Biso   1.000  C
  C2073    1.0000 0.82972  0.04827  0.09949  Biso   1.000  C
  C2074    1.0000 0.42028  0.70173  0.59949  Biso   1.000  C
  C2075    1.0000 0.82972  0.70173  0.65051  Biso   1.000  C
  C2076    1.0000 0.42028  0.04827  0.15051  Biso   1.000  C
  C2077    1.0000 0.45173  0.07972  0.84949  Biso   1.000  C
  C2078    1.0000 0.45173  0.67028  0.90051  Biso   1.000  C
  C2079    1.0000 0.79827  0.67028  0.34949  Biso   1.000  C
  C2080    1.0000 0.79827  0.07972  0.40051  Biso   1.000  C
  C2081    1.0000 0.54827  0.59949  0.82972  Biso   1.000  C
  C2082    1.0000 0.20173  0.09949  0.42028  Biso   1.000  C
  C2083    1.0000 0.20173  0.15051  0.82972  Biso   1.000  C
  C2084    1.0000 0.54827  0.65051  0.42028  Biso   1.000  C
  C2085    1.0000 0.90051  0.95173  0.17028  Biso   1.000  C
  C2086    1.0000 0.90051  0.29827  0.07972  Biso   1.000  C
  C2087    1.0000 0.84949  0.45173  0.07972  Biso   1.000  C
  C2088    1.0000 0.34949  0.79827  0.67028  Biso   1.000  C
  C2089    1.0000 0.09949  0.82972  0.04827  Biso   1.000  C
  C2090    1.0000 0.09949  0.92028  0.70173  Biso   1.000  C
  C2091    1.0000 0.15051  0.92028  0.54827  Biso   1.000  C
  C2092    1.0000 0.15051  0.82972  0.20173  Biso   1.000  C
  C2093    1.0000 0.17028  0.84949  0.79827  Biso   1.000  C
  C2094    1.0000 0.07972  0.84949  0.45173  Biso   1.000  C
  C2095    1.0000 0.07972  0.90051  0.29827  Biso   1.000  C
  C2096    1.0000 0.17028  0.90051  0.95173  Biso   1.000  C
  C2097    1.0000 0.82972  0.54827  0.59949  Biso   1.000  C
  C2098    1.0000 0.42028  0.20173  0.09949  Biso   1.000  C
  C2099    1.0000 0.82972  0.20173  0.15051  Biso   1.000  C
  C2100    1.0000 0.42028  0.54827  0.65051  Biso   1.000  C
  C2101    1.0000 0.45173  0.57972  0.34949  Biso   1.000  C
  C2102    1.0000 0.45173  0.17028  0.40051  Biso   1.000  C
  C2103    1.0000 0.79827  0.17028  0.84949  Biso   1.000  C
  C2104    1.0000 0.79827  0.57972  0.90051  Biso   1.000  C
  C2105    1.0000 0.54827  0.09949  0.32972  Biso   1.000  C
  C2106    1.0000 0.20173  0.59949  0.92028  Biso   1.000  C
  C2107    1.0000 0.20173  0.65051  0.32972  Biso   1.000  C
  C2108    1.0000 0.54827  0.15051  0.92028  Biso   1.000  C
  C2109    1.0000 0.90051  0.45173  0.67028  Biso   1.000  C
  C2110    1.0000 0.90051  0.79827  0.57972  Biso   1.000  C
  C2111    1.0000 0.84949  0.95173  0.57972  Biso   1.000  C
  C2112    1.0000 0.34949  0.29827  0.17028  Biso   1.000  C
  C2113    1.0000 0.39119  0.66760  0.93460  Biso   1.000  C
  C2114    1.0000 0.39119  0.58240  0.31540  Biso   1.000  C
  C2115    1.0000 0.35881  0.58240  0.43460  Biso   1.000  C
  C2116    1.0000 0.35881  0.66760  0.81540  Biso   1.000  C
  C2117    1.0000 0.33240  0.64119  0.18460  Biso   1.000  C
  C2118    1.0000 0.41760  0.64119  0.56540  Biso   1.000  C
  C2119    1.0000 0.41760  0.60881  0.68460  Biso   1.000  C
  C2120    1.0000 0.33240  0.60881  0.06540  Biso   1.000  C
  C2121    1.0000 0.66760  0.93460  0.39119  Biso   1.000  C
  C2122    1.0000 0.08240  0.31540  0.89119  Biso   1.000  C
  C2123    1.0000 0.66760  0.31540  0.85881  Biso   1.000  C
  C2124    1.0000 0.08240  0.93460  0.35881  Biso   1.000  C
  C2125    1.0000 0.06540  0.91760  0.64119  Biso   1.000  C
  C2126    1.0000 0.06540  0.33240  0.60881  Biso   1.000  C
  C2127    1.0000 0.68460  0.33240  0.14119  Biso   1.000  C
  C2128    1.0000 0.68460  0.91760  0.10881  Biso   1.000  C
  C2129    1.0000 0.93460  0.39119  0.66760  Biso   1.000  C
  C2130    1.0000 0.31540  0.89119  0.08240  Biso   1.000  C
  C2131    1.0000 0.31540  0.85881  0.66760  Biso   1.000  C
  C2132    1.0000 0.93460  0.35881  0.08240  Biso   1.000  C
  C2133    1.0000 0.60881  0.06540  0.33240  Biso   1.000  C
  C2134    1.0000 0.60881  0.68460  0.41760  Biso   1.000  C
  C2135    1.0000 0.64119  0.56540  0.41760  Biso   1.000  C
  C2136    1.0000 0.14119  0.18460  0.83240  Biso   1.000  C
  C2137    1.0000 0.39119  0.16760  0.43460  Biso   1.000  C
  C2138    1.0000 0.39119  0.08240  0.81540  Biso   1.000  C
  C2139    1.0000 0.35881  0.08240  0.93460  Biso   1.000  C
  C2140    1.0000 0.35881  0.16760  0.31540  Biso   1.000  C
  C2141    1.0000 0.33240  0.14119  0.68460  Biso   1.000  C
  C2142    1.0000 0.41760  0.14119  0.06540  Biso   1.000  C
  C2143    1.0000 0.41760  0.10881  0.18460  Biso   1.000  C
  C2144    1.0000 0.33240  0.10881  0.56540  Biso   1.000  C
  C2145    1.0000 0.66760  0.43460  0.89119  Biso   1.000  C
  C2146    1.0000 0.08240  0.81540  0.39119  Biso   1.000  C
  C2147    1.0000 0.66760  0.81540  0.35881  Biso   1.000  C
  C2148    1.0000 0.08240  0.43460  0.85881  Biso   1.000  C
  C2149    1.0000 0.06540  0.41760  0.14119  Biso   1.000  C
  C2150    1.0000 0.06540  0.83240  0.10881  Biso   1.000  C
  C2151    1.0000 0.68460  0.83240  0.64119  Biso   1.000  C
  C2152    1.0000 0.68460  0.41760  0.60881  Biso   1.000  C
  C2153    1.0000 0.93460  0.89119  0.16760  Biso   1.000  C
  C2154    1.0000 0.31540  0.39119  0.58240  Biso   1.000  C
  C2155    1.0000 0.31540  0.35881  0.16760  Biso   1.000  C
  C2156    1.0000 0.93460  0.85881  0.58240  Biso   1.000  C
  C2157    1.0000 0.60881  0.56540  0.83240  Biso   1.000  C
  C2158    1.0000 0.60881  0.18460  0.91760  Biso   1.000  C
  C2159    1.0000 0.64119  0.06540  0.91760  Biso   1.000  C
  C2160    1.0000 0.14119  0.68460  0.33240  Biso   1.000  C
  C2161    1.0000 0.89119  0.66760  0.43460  Biso   1.000  C
  C2162    1.0000 0.89119  0.58240  0.81540  Biso   1.000  C
  C2163    1.0000 0.85881  0.58240  0.93460  Biso   1.000  C
  C2164    1.0000 0.85881  0.66760  0.31540  Biso   1.000  C
  C2165    1.0000 0.83240  0.64119  0.68460  Biso   1.000  C
  C2166    1.0000 0.91760  0.64119  0.06540  Biso   1.000  C
  C2167    1.0000 0.91760  0.60881  0.18460  Biso   1.000  C
  C2168    1.0000 0.83240  0.60881  0.56540  Biso   1.000  C
  C2169    1.0000 0.16760  0.93460  0.89119  Biso   1.000  C
  C2170    1.0000 0.58240  0.31540  0.39119  Biso   1.000  C
  C2171    1.0000 0.16760  0.31540  0.35881  Biso   1.000  C
  C2172    1.0000 0.58240  0.93460  0.85881  Biso   1.000  C
  C2173    1.0000 0.56540  0.91760  0.14119  Biso   1.000  C
  C2174    1.0000 0.56540  0.33240  0.10881  Biso   1.000  C
  C2175    1.0000 0.18460  0.33240  0.64119  Biso   1.000  C
  C2176    1.0000 0.18460  0.91760  0.60881  Biso   1.000  C
  C2177    1.0000 0.43460  0.39119  0.16760  Biso   1.000  C
  C2178    1.0000 0.81540  0.89119  0.58240  Biso   1.000  C
  C2179    1.0000 0.81540  0.85881  0.16760  Biso   1.000  C
  C2180    1.0000 0.43460  0.35881  0.58240  Biso   1.000  C
  C2181    1.0000 0.10881  0.06540  0.83240  Biso   1.000  C
  C2182    1.0000 0.10881  0.68460  0.91760  Biso   1.000  C
  C2183    1.0000 0.14119  0.56540  0.91760  Biso   1.000  C
  C2184    1.0000 0.64119  0.18460  0.33240  Biso   1.000  C
  C2185    1.0000 0.89119  0.16760  0.93460  Biso   1.000  C
  C2186    1.0000 0.89119  0.08240  0.31540  Biso   1.000  C
  C2187    1.0000 0.85881  0.08240  0.43460  Biso   1.000  C
  C2188    1.0000 0.85881  0.16760  0.81540  Biso   1.000  C
  C2189    1.0000 0.83240  0.14119  0.18460  Biso   1.000  C
  C2190    1.0000 0.91760  0.14119  0.56540  Biso   1.000  C
  C2191    1.0000 0.91760  0.10881  0.68460  Biso   1.000  C
  C2192    1.0000 0.83240  0.10881  0.06540  Biso   1.000  C
  C2193    1.0000 0.16760  0.43460  0.39119  Biso   1.000  C
  C2194    1.0000 0.58240  0.81540  0.89119  Biso   1.000  C
  C2195    1.0000 0.16760  0.81540  0.85881  Biso   1.000  C
  C2196    1.0000 0.58240  0.43460  0.35881  Biso   1.000  C
  C2197    1.0000 0.56540  0.41760  0.64119  Biso   1.000  C
  C2198    1.0000 0.56540  0.83240  0.60881  Biso   1.000  C
  C2199    1.0000 0.18460  0.83240  0.14119  Biso   1.000  C
  C2200    1.0000 0.18460  0.41760  0.10881  Biso   1.000  C
  C2201    1.0000 0.43460  0.89119  0.66760  Biso   1.000  C
  C2202    1.0000 0.81540  0.39119  0.08240  Biso   1.000  C
  C2203    1.0000 0.81540  0.35881  0.66760  Biso   1.000  C
  C2204    1.0000 0.43460  0.85881  0.08240  Biso   1.000  C
  C2205    1.0000 0.10881  0.56540  0.33240  Biso   1.000  C
  C2206    1.0000 0.10881  0.18460  0.41760  Biso   1.000  C
  C2207    1.0000 0.14119  0.06540  0.41760  Biso   1.000  C
  C2208    1.0000 0.64119  0.68460  0.83240  Biso   1.000  C
  C2209    1.0000 0.60881  0.33240  0.06540  Biso   1.000  C
  C2210    1.0000 0.60881  0.41760  0.68460  Biso   1.000  C
  C2211    1.0000 0.64119  0.41760  0.56540  Biso   1.000  C
  C2212    1.0000 0.64119  0.33240  0.18460  Biso   1.000  C
  C2213    1.0000 0.66760  0.35881  0.81540  Biso   1.000  C
  C2214    1.0000 0.58240  0.35881  0.43460  Biso   1.000  C
  C2215    1.0000 0.58240  0.39119  0.31540  Biso   1.000  C
  C2216    1.0000 0.66760  0.39119  0.93460  Biso   1.000  C
  C2217    1.0000 0.33240  0.06540  0.60881  Biso   1.000  C
  C2218    1.0000 0.91760  0.68460  0.10881  Biso   1.000  C
  C2219    1.0000 0.33240  0.68460  0.14119  Biso   1.000  C
  C2220    1.0000 0.91760  0.06540  0.64119  Biso   1.000  C
  C2221    1.0000 0.93460  0.08240  0.35881  Biso   1.000  C
  C2222    1.0000 0.93460  0.66760  0.39119  Biso   1.000  C
  C2223    1.0000 0.31540  0.66760  0.85881  Biso   1.000  C
  C2224    1.0000 0.31540  0.08240  0.89119  Biso   1.000  C
  C2225    1.0000 0.06540  0.60881  0.33240  Biso   1.000  C
  C2226    1.0000 0.68460  0.10881  0.91760  Biso   1.000  C
  C2227    1.0000 0.68460  0.14119  0.33240  Biso   1.000  C
  C2228    1.0000 0.06540  0.64119  0.91760  Biso   1.000  C
  C2229    1.0000 0.39119  0.93460  0.66760  Biso   1.000  C
  C2230    1.0000 0.39119  0.31540  0.58240  Biso   1.000  C
  C2231    1.0000 0.35881  0.43460  0.58240  Biso   1.000  C
  C2232    1.0000 0.85881  0.81540  0.16760  Biso   1.000  C
  C2233    1.0000 0.60881  0.83240  0.56540  Biso   1.000  C
  C2234    1.0000 0.60881  0.91760  0.18460  Biso   1.000  C
  C2235    1.0000 0.64119  0.91760  0.06540  Biso   1.000  C
  C2236    1.0000 0.64119  0.83240  0.68460  Biso   1.000  C
  C2237    1.0000 0.66760  0.85881  0.31540  Biso   1.000  C
  C2238    1.0000 0.58240  0.85881  0.93460  Biso   1.000  C
  C2239    1.0000 0.58240  0.89119  0.81540  Biso   1.000  C
  C2240    1.0000 0.66760  0.89119  0.43460  Biso   1.000  C
  C2241    1.0000 0.33240  0.56540  0.10881  Biso   1.000  C
  C2242    1.0000 0.91760  0.18460  0.60881  Biso   1.000  C
  C2243    1.0000 0.33240  0.18460  0.64119  Biso   1.000  C
  C2244    1.0000 0.91760  0.56540  0.14119  Biso   1.000  C
  C2245    1.0000 0.93460  0.58240  0.85881  Biso   1.000  C
  C2246    1.0000 0.93460  0.16760  0.89119  Biso   1.000  C
  C2247    1.0000 0.31540  0.16760  0.35881  Biso   1.000  C
  C2248    1.0000 0.31540  0.58240  0.39119  Biso   1.000  C
  C2249    1.0000 0.06540  0.10881  0.83240  Biso   1.000  C
  C2250    1.0000 0.68460  0.60881  0.41760  Biso   1.000  C
  C2251    1.0000 0.68460  0.64119  0.83240  Biso   1.000  C
  C2252    1.0000 0.06540  0.14119  0.41760  Biso   1.000  C
  C2253    1.0000 0.39119  0.43460  0.16760  Biso   1.000  C
  C2254    1.0000 0.39119  0.81540  0.08240  Biso   1.000  C
  C2255    1.0000 0.35881  0.93460  0.08240  Biso   1.000  C
  C2256    1.0000 0.85881  0.31540  0.66760  Biso   1.000  C
  C2257    1.0000 0.10881  0.33240  0.56540  Biso   1.000  C
  C2258    1.0000 0.10881  0.41760  0.18460  Biso   1.000  C
  C2259    1.0000 0.14119  0.41760  0.06540  Biso   1.000  C
  C2260    1.0000 0.14119  0.33240  0.68460  Biso   1.000  C
  C2261    1.0000 0.16760  0.35881  0.31540  Biso   1.000  C
  C2262    1.0000 0.08240  0.35881  0.93460  Biso   1.000  C
  C2263    1.0000 0.08240  0.39119  0.81540  Biso   1.000  C
  C2264    1.0000 0.16760  0.39119  0.43460  Biso   1.000  C
  C2265    1.0000 0.83240  0.06540  0.10881  Biso   1.000  C
  C2266    1.0000 0.41760  0.68460  0.60881  Biso   1.000  C
  C2267    1.0000 0.83240  0.68460  0.64119  Biso   1.000  C
  C2268    1.0000 0.41760  0.06540  0.14119  Biso   1.000  C
  C2269    1.0000 0.43460  0.08240  0.85881  Biso   1.000  C
  C2270    1.0000 0.43460  0.66760  0.89119  Biso   1.000  C
  C2271    1.0000 0.81540  0.66760  0.35881  Biso   1.000  C
  C2272    1.0000 0.81540  0.08240  0.39119  Biso   1.000  C
  C2273    1.0000 0.56540  0.60881  0.83240  Biso   1.000  C
  C2274    1.0000 0.18460  0.10881  0.41760  Biso   1.000  C
  C2275    1.0000 0.18460  0.14119  0.83240  Biso   1.000  C
  C2276    1.0000 0.56540  0.64119  0.41760  Biso   1.000  C
  C2277    1.0000 0.89119  0.93460  0.16760  Biso   1.000  C
  C2278    1.0000 0.89119  0.31540  0.08240  Biso   1.000  C
  C2279    1.0000 0.85881  0.43460  0.08240  Biso   1.000  C
  C2280    1.0000 0.35881  0.81540  0.66760  Biso   1.000  C
  C2281    1.0000 0.10881  0.83240  0.06540  Biso   1.000  C
  C2282    1.0000 0.10881  0.91760  0.68460  Biso   1.000  C
  C2283    1.0000 0.14119  0.91760  0.56540  Biso   1.000  C
  C2284    1.0000 0.14119  0.83240  0.18460  Biso   1.000  C
  C2285    1.0000 0.16760  0.85881  0.81540  Biso   1.000  C
  C2286    1.0000 0.08240  0.85881  0.43460  Biso   1.000  C
  C2287    1.0000 0.08240  0.89119  0.31540  Biso   1.000  C
  C2288    1.0000 0.16760  0.89119  0.93460  Biso   1.000  C
  C2289    1.0000 0.83240  0.56540  0.60881  Biso   1.000  C
  C2290    1.0000 0.41760  0.18460  0.10881  Biso   1.000  C
  C2291    1.0000 0.83240  0.18460  0.14119  Biso   1.000  C
  C2292    1.0000 0.41760  0.56540  0.64119  Biso   1.000  C
  C2293    1.0000 0.43460  0.58240  0.35881  Biso   1.000  C
  C2294    1.0000 0.43460  0.16760  0.39119  Biso   1.000  C
  C2295    1.0000 0.81540  0.16760  0.85881  Biso   1.000  C
  C2296    1.0000 0.81540  0.58240  0.89119  Biso   1.000  C
  C2297    1.0000 0.56540  0.10881  0.33240  Biso   1.000  C
  C2298    1.0000 0.18460  0.60881  0.91760  Biso   1.000  C
  C2299    1.0000 0.18460  0.64119  0.33240  Biso   1.000  C
  C2300    1.0000 0.56540  0.14119  0.91760  Biso   1.000  C
  C2301    1.0000 0.89119  0.43460  0.66760  Biso   1.000  C
  C2302    1.0000 0.89119  0.81540  0.58240  Biso   1.000  C
  C2303    1.0000 0.85881  0.93460  0.58240  Biso   1.000  C
  C2304    1.0000 0.35881  0.31540  0.16760  Biso   1.000  C
  H577     1.0000 0.39140  0.67660  0.92490  Biso   1.000  H
  H578     1.0000 0.39140  0.57340  0.32510  Biso   1.000  H
  H579     1.0000 0.35860  0.57340  0.42490  Biso   1.000  H
  H580     1.0000 0.35860  0.67660  0.82510  Biso   1.000  H
  H581     1.0000 0.32340  0.64140  0.17490  Biso   1.000  H
  H582     1.0000 0.42660  0.64140  0.57510  Biso   1.000  H
  H583     1.0000 0.42660  0.60860  0.67490  Biso   1.000  H
  H584     1.0000 0.32340  0.60860  0.07510  Biso   1.000  H
  H585     1.0000 0.67660  0.92490  0.39140  Biso   1.000  H
  H586     1.0000 0.07340  0.32510  0.89140  Biso   1.000  H
  H587     1.0000 0.67660  0.32510  0.85860  Biso   1.000  H
  H588     1.0000 0.07340  0.92490  0.35860  Biso   1.000  H
  H589     1.0000 0.07510  0.92660  0.64140  Biso   1.000  H
  H590     1.0000 0.07510  0.32340  0.60860  Biso   1.000  H
  H591     1.0000 0.67490  0.32340  0.14140  Biso   1.000  H
  H592     1.0000 0.67490  0.92660  0.10860  Biso   1.000  H
  H593     1.0000 0.92490  0.39140  0.67660  Biso   1.000  H
  H594     1.0000 0.32510  0.89140  0.07340  Biso   1.000  H
  H595     1.0000 0.32510  0.85860  0.67660  Biso   1.000  H
  H596     1.0000 0.92490  0.35860  0.07340  Biso   1.000  H
  H597     1.0000 0.60860  0.07510  0.32340  Biso   1.000  H
  H598     1.0000 0.60860  0.67490  0.42660  Biso   1.000  H
  H599     1.0000 0.64140  0.57510  0.42660  Biso   1.000  H
  H600     1.0000 0.14140  0.17490  0.82340  Biso   1.000  H
  H601     1.0000 0.39140  0.17660  0.42490  Biso   1.000  H
  H602     1.0000 0.39140  0.07340  0.82510  Biso   1.000  H
  H603     1.0000 0.35860  0.07340  0.92490  Biso   1.000  H
  H604     1.0000 0.35860  0.17660  0.32510  Biso   1.000  H
  H605     1.0000 0.32340  0.14140  0.67490  Biso   1.000  H
  H606     1.0000 0.42660  0.14140  0.07510  Biso   1.000  H
  H607     1.0000 0.42660  0.10860  0.17490  Biso   1.000  H
  H608     1.0000 0.32340  0.10860  0.57510  Biso   1.000  H
  H609     1.0000 0.67660  0.42490  0.89140  Biso   1.000  H
  H610     1.0000 0.07340  0.82510  0.39140  Biso   1.000  H
  H611     1.0000 0.67660  0.82510  0.35860  Biso   1.000  H
  H612     1.0000 0.07340  0.42490  0.85860  Biso   1.000  H
  H613     1.0000 0.07510  0.42660  0.14140  Biso   1.000  H
  H614     1.0000 0.07510  0.82340  0.10860  Biso   1.000  H
  H615     1.0000 0.67490  0.82340  0.64140  Biso   1.000  H
  H616     1.0000 0.67490  0.42660  0.60860  Biso   1.000  H
  H617     1.0000 0.92490  0.89140  0.17660  Biso   1.000  H
  H618     1.0000 0.32510  0.39140  0.57340  Biso   1.000  H
  H619     1.0000 0.32510  0.35860  0.17660  Biso   1.000  H
  H620     1.0000 0.92490  0.85860  0.57340  Biso   1.000  H
  H621     1.0000 0.60860  0.57510  0.82340  Biso   1.000  H
  H622     1.0000 0.60860  0.17490  0.92660  Biso   1.000  H
  H623     1.0000 0.64140  0.07510  0.92660  Biso   1.000  H
  H624     1.0000 0.14140  0.67490  0.32340  Biso   1.000  H
  H625     1.0000 0.89140  0.67660  0.42490  Biso   1.000  H
  H626     1.0000 0.89140  0.57340  0.82510  Biso   1.000  H
  H627     1.0000 0.85860  0.57340  0.92490  Biso   1.000  H
  H628     1.0000 0.85860  0.67660  0.32510  Biso   1.000  H
  H629     1.0000 0.82340  0.64140  0.67490  Biso   1.000  H
  H630     1.0000 0.92660  0.64140  0.07510  Biso   1.000  H
  H631     1.0000 0.92660  0.60860  0.17490  Biso   1.000  H
  H632     1.0000 0.82340  0.60860  0.57510  Biso   1.000  H
  H633     1.0000 0.17660  0.92490  0.89140  Biso   1.000  H
  H634     1.0000 0.57340  0.32510  0.39140  Biso   1.000  H
  H635     1.0000 0.17660  0.32510  0.35860  Biso   1.000  H
  H636     1.0000 0.57340  0.92490  0.85860  Biso   1.000  H
  H637     1.0000 0.57510  0.92660  0.14140  Biso   1.000  H
  H638     1.0000 0.57510  0.32340  0.10860  Biso   1.000  H
  H639     1.0000 0.17490  0.32340  0.64140  Biso   1.000  H
  H640     1.0000 0.17490  0.92660  0.60860  Biso   1.000  H
  H641     1.0000 0.42490  0.39140  0.17660  Biso   1.000  H
  H642     1.0000 0.82510  0.89140  0.57340  Biso   1.000  H
  H643     1.0000 0.82510  0.85860  0.17660  Biso   1.000  H
  H644     1.0000 0.42490  0.35860  0.57340  Biso   1.000  H
  H645     1.0000 0.10860  0.07510  0.82340  Biso   1.000  H
  H646     1.0000 0.10860  0.67490  0.92660  Biso   1.000  H
  H647     1.0000 0.14140  0.57510  0.92660  Biso   1.000  H
  H648     1.0000 0.64140  0.17490  0.32340  Biso   1.000  H
  H649     1.0000 0.89140  0.17660  0.92490  Biso   1.000  H
  H650     1.0000 0.89140  0.07340  0.32510  Biso   1.000  H
  H651     1.0000 0.85860  0.07340  0.42490  Biso   1.000  H
  H652     1.0000 0.85860  0.17660  0.82510  Biso   1.000  H
  H653     1.0000 0.82340  0.14140  0.17490  Biso   1.000  H
  H654     1.0000 0.92660  0.14140  0.57510  Biso   1.000  H
  H655     1.0000 0.92660  0.10860  0.67490  Biso   1.000  H
  H656     1.0000 0.82340  0.10860  0.07510  Biso   1.000  H
  H657     1.0000 0.17660  0.42490  0.39140  Biso   1.000  H
  H658     1.0000 0.57340  0.82510  0.89140  Biso   1.000  H
  H659     1.0000 0.17660  0.82510  0.85860  Biso   1.000  H
  H660     1.0000 0.57340  0.42490  0.35860  Biso   1.000  H
  H661     1.0000 0.57510  0.42660  0.64140  Biso   1.000  H
  H662     1.0000 0.57510  0.82340  0.60860  Biso   1.000  H
  H663     1.0000 0.17490  0.82340  0.14140  Biso   1.000  H
  H664     1.0000 0.17490  0.42660  0.10860  Biso   1.000  H
  H665     1.0000 0.42490  0.89140  0.67660  Biso   1.000  H
  H666     1.0000 0.82510  0.39140  0.07340  Biso   1.000  H
  H667     1.0000 0.82510  0.35860  0.67660  Biso   1.000  H
  H668     1.0000 0.42490  0.85860  0.07340  Biso   1.000  H
  H669     1.0000 0.10860  0.57510  0.32340  Biso   1.000  H
  H670     1.0000 0.10860  0.17490  0.42660  Biso   1.000  H
  H671     1.0000 0.14140  0.07510  0.42660  Biso   1.000  H
  H672     1.0000 0.64140  0.67490  0.82340  Biso   1.000  H
  H673     1.0000 0.60860  0.32340  0.07510  Biso   1.000  H
  H674     1.0000 0.60860  0.42660  0.67490  Biso   1.000  H
  H675     1.0000 0.64140  0.42660  0.57510  Biso   1.000  H
  H676     1.0000 0.64140  0.32340  0.17490  Biso   1.000  H
  H677     1.0000 0.67660  0.35860  0.82510  Biso   1.000  H
  H678     1.0000 0.57340  0.35860  0.42490  Biso   1.000  H
  H679     1.0000 0.57340  0.39140  0.32510  Biso   1.000  H
  H680     1.0000 0.67660  0.39140  0.92490  Biso   1.000  H
  H681     1.0000 0.32340  0.07510  0.60860  Biso   1.000  H
  H682     1.0000 0.92660  0.67490  0.10860  Biso   1.000  H
  H683     1.0000 0.32340  0.67490  0.14140  Biso   1.000  H
  H684     1.0000 0.92660  0.07510  0.64140  Biso   1.000  H
  H685     1.0000 0.92490  0.07340  0.35860  Biso   1.000  H
  H686     1.0000 0.92490  0.67660  0.39140  Biso   1.000  H
  H687     1.0000 0.32510  0.67660  0.85860  Biso   1.000  H
  H688     1.0000 0.32510  0.07340  0.89140  Biso   1.000  H
  H689     1.0000 0.07510  0.60860  0.32340  Biso   1.000  H
  H690     1.0000 0.67490  0.10860  0.92660  Biso   1.000  H
  H691     1.0000 0.67490  0.14140  0.32340  Biso   1.000  H
  H692     1.0000 0.07510  0.64140  0.92660  Biso   1.000  H
  H693     1.0000 0.39140  0.92490  0.67660  Biso   1.000  H
  H694     1.0000 0.39140  0.32510  0.57340  Biso   1.000  H
  H695     1.0000 0.35860  0.42490  0.57340  Biso   1.000  H
  H696     1.0000 0.85860  0.82510  0.17660  Biso   1.000  H
  H697     1.0000 0.60860  0.82340  0.57510  Biso   1.000  H
  H698     1.0000 0.60860  0.92660  0.17490  Biso   1.000  H
  H699     1.0000 0.64140  0.92660  0.07510  Biso   1.000  H
  H700     1.0000 0.64140  0.82340  0.67490  Biso   1.000  H
  H701     1.0000 0.67660  0.85860  0.32510  Biso   1.000  H
  H702     1.0000 0.57340  0.85860  0.92490  Biso   1.000  H
  H703     1.0000 0.57340  0.89140  0.82510  Biso   1.000  H
  H704     1.0000 0.67660  0.89140  0.42490  Biso   1.000  H
  H705     1.0000 0.32340  0.57510  0.10860  Biso   1.000  H
  H706     1.0000 0.92660  0.17490  0.60860  Biso   1.000  H
  H707     1.0000 0.32340  0.17490  0.64140  Biso   1.000  H
  H708     1.0000 0.92660  0.57510  0.14140  Biso   1.000  H
  H709     1.0000 0.92490  0.57340  0.85860  Biso   1.000  H
  H710     1.0000 0.92490  0.17660  0.89140  Biso   1.000  H
  H711     1.0000 0.32510  0.17660  0.35860  Biso   1.000  H
  H712     1.0000 0.32510  0.57340  0.39140  Biso   1.000  H
  H713     1.0000 0.07510  0.10860  0.82340  Biso   1.000  H
  H714     1.0000 0.67490  0.60860  0.42660  Biso   1.000  H
  H715     1.0000 0.67490  0.64140  0.82340  Biso   1.000  H
  H716     1.0000 0.07510  0.14140  0.42660  Biso   1.000  H
  H717     1.0000 0.39140  0.42490  0.17660  Biso   1.000  H
  H718     1.0000 0.39140  0.82510  0.07340  Biso   1.000  H
  H719     1.0000 0.35860  0.92490  0.07340  Biso   1.000  H
  H720     1.0000 0.85860  0.32510  0.67660  Biso   1.000  H
  H721     1.0000 0.10860  0.32340  0.57510  Biso   1.000  H
  H722     1.0000 0.10860  0.42660  0.17490  Biso   1.000  H
  H723     1.0000 0.14140  0.42660  0.07510  Biso   1.000  H
  H724     1.0000 0.14140  0.32340  0.67490  Biso   1.000  H
  H725     1.0000 0.17660  0.35860  0.32510  Biso   1.000  H
  H726     1.0000 0.07340  0.35860  0.92490  Biso   1.000  H
  H727     1.0000 0.07340  0.39140  0.82510  Biso   1.000  H
  H728     1.0000 0.17660  0.39140  0.42490  Biso   1.000  H
  H729     1.0000 0.82340  0.07510  0.10860  Biso   1.000  H
  H730     1.0000 0.42660  0.67490  0.60860  Biso   1.000  H
  H731     1.0000 0.82340  0.67490  0.64140  Biso   1.000  H
  H732     1.0000 0.42660  0.07510  0.14140  Biso   1.000  H
  H733     1.0000 0.42490  0.07340  0.85860  Biso   1.000  H
  H734     1.0000 0.42490  0.67660  0.89140  Biso   1.000  H
  H735     1.0000 0.82510  0.67660  0.35860  Biso   1.000  H
  H736     1.0000 0.82510  0.07340  0.39140  Biso   1.000  H
  H737     1.0000 0.57510  0.60860  0.82340  Biso   1.000  H
  H738     1.0000 0.17490  0.10860  0.42660  Biso   1.000  H
  H739     1.0000 0.17490  0.14140  0.82340  Biso   1.000  H
  H740     1.0000 0.57510  0.64140  0.42660  Biso   1.000  H
  H741     1.0000 0.89140  0.92490  0.17660  Biso   1.000  H
  H742     1.0000 0.89140  0.32510  0.07340  Biso   1.000  H
  H743     1.0000 0.85860  0.42490  0.07340  Biso   1.000  H
  H744     1.0000 0.35860  0.82510  0.67660  Biso   1.000  H
  H745     1.0000 0.10860  0.82340  0.07510  Biso   1.000  H
  H746     1.0000 0.10860  0.92660  0.67490  Biso   1.000  H
  H747     1.0000 0.14140  0.92660  0.57510  Biso   1.000  H
  H748     1.0000 0.14140  0.82340  0.17490  Biso   1.000  H
  H749     1.0000 0.17660  0.85860  0.82510  Biso   1.000  H
  H750     1.0000 0.07340  0.85860  0.42490  Biso   1.000  H
  H751     1.0000 0.07340  0.89140  0.32510  Biso   1.000  H
  H752     1.0000 0.17660  0.89140  0.92490  Biso   1.000  H
  H753     1.0000 0.82340  0.57510  0.60860  Biso   1.000  H
  H754     1.0000 0.42660  0.17490  0.10860  Biso   1.000  H
  H755     1.0000 0.82340  0.17490  0.14140  Biso   1.000  H
  H756     1.0000 0.42660  0.57510  0.64140  Biso   1.000  H
  H757     1.0000 0.42490  0.57340  0.35860  Biso   1.000  H
  H758     1.0000 0.42490  0.17660  0.39140  Biso   1.000  H
  H759     1.0000 0.82510  0.17660  0.85860  Biso   1.000  H
  H760     1.0000 0.82510  0.57340  0.89140  Biso   1.000  H
  H761     1.0000 0.57510  0.10860  0.32340  Biso   1.000  H
  H762     1.0000 0.17490  0.60860  0.92660  Biso   1.000  H
  H763     1.0000 0.17490  0.64140  0.32340  Biso   1.000  H
  H764     1.0000 0.57510  0.14140  0.92660  Biso   1.000  H
  H765     1.0000 0.89140  0.42490  0.67660  Biso   1.000  H
  H766     1.0000 0.89140  0.82510  0.57340  Biso   1.000  H
  H767     1.0000 0.85860  0.92490  0.57340  Biso   1.000  H
  H768     1.0000 0.35860  0.32510  0.17660  Biso   1.000  H
  C2305    1.0000 0.38140  0.65030  0.93288  Biso   1.000  C
  C2306    1.0000 0.38140  0.59970  0.31712  Biso   1.000  C
  C2307    1.0000 0.36860  0.59970  0.43288  Biso   1.000  C
  C2308    1.0000 0.36860  0.65030  0.81712  Biso   1.000  C
  C2309    1.0000 0.34970  0.63140  0.18288  Biso   1.000  C
  C2310    1.0000 0.40030  0.63140  0.56712  Biso   1.000  C
  C2311    1.0000 0.40030  0.61860  0.68288  Biso   1.000  C
  C2312    1.0000 0.34970  0.61860  0.06712  Biso   1.000  C
  C2313    1.0000 0.65030  0.93288  0.38140  Biso   1.000  C
  C2314    1.0000 0.09970  0.31712  0.88140  Biso   1.000  C
  C2315    1.0000 0.65030  0.31712  0.86860  Biso   1.000  C
  C2316    1.0000 0.09970  0.93288  0.36860  Biso   1.000  C
  C2317    1.0000 0.06712  0.90030  0.63140  Biso   1.000  C
  C2318    1.0000 0.06712  0.34970  0.61860  Biso   1.000  C
  C2319    1.0000 0.68288  0.34970  0.13140  Biso   1.000  C
  C2320    1.0000 0.68288  0.90030  0.11860  Biso   1.000  C
  C2321    1.0000 0.93288  0.38140  0.65030  Biso   1.000  C
  C2322    1.0000 0.31712  0.88140  0.09970  Biso   1.000  C
  C2323    1.0000 0.31712  0.86860  0.65030  Biso   1.000  C
  C2324    1.0000 0.93288  0.36860  0.09970  Biso   1.000  C
  C2325    1.0000 0.61860  0.06712  0.34970  Biso   1.000  C
  C2326    1.0000 0.61860  0.68288  0.40030  Biso   1.000  C
  C2327    1.0000 0.63140  0.56712  0.40030  Biso   1.000  C
  C2328    1.0000 0.13140  0.18288  0.84970  Biso   1.000  C
  C2329    1.0000 0.38140  0.15030  0.43288  Biso   1.000  C
  C2330    1.0000 0.38140  0.09970  0.81712  Biso   1.000  C
  C2331    1.0000 0.36860  0.09970  0.93288  Biso   1.000  C
  C2332    1.0000 0.36860  0.15030  0.31712  Biso   1.000  C
  C2333    1.0000 0.34970  0.13140  0.68288  Biso   1.000  C
  C2334    1.0000 0.40030  0.13140  0.06712  Biso   1.000  C
  C2335    1.0000 0.40030  0.11860  0.18288  Biso   1.000  C
  C2336    1.0000 0.34970  0.11860  0.56712  Biso   1.000  C
  C2337    1.0000 0.65030  0.43288  0.88140  Biso   1.000  C
  C2338    1.0000 0.09970  0.81712  0.38140  Biso   1.000  C
  C2339    1.0000 0.65030  0.81712  0.36860  Biso   1.000  C
  C2340    1.0000 0.09970  0.43288  0.86860  Biso   1.000  C
  C2341    1.0000 0.06712  0.40030  0.13140  Biso   1.000  C
  C2342    1.0000 0.06712  0.84970  0.11860  Biso   1.000  C
  C2343    1.0000 0.68288  0.84970  0.63140  Biso   1.000  C
  C2344    1.0000 0.68288  0.40030  0.61860  Biso   1.000  C
  C2345    1.0000 0.93288  0.88140  0.15030  Biso   1.000  C
  C2346    1.0000 0.31712  0.38140  0.59970  Biso   1.000  C
  C2347    1.0000 0.31712  0.36860  0.15030  Biso   1.000  C
  C2348    1.0000 0.93288  0.86860  0.59970  Biso   1.000  C
  C2349    1.0000 0.61860  0.56712  0.84970  Biso   1.000  C
  C2350    1.0000 0.61860  0.18288  0.90030  Biso   1.000  C
  C2351    1.0000 0.63140  0.06712  0.90030  Biso   1.000  C
  C2352    1.0000 0.13140  0.68288  0.34970  Biso   1.000  C
  C2353    1.0000 0.88140  0.65030  0.43288  Biso   1.000  C
  C2354    1.0000 0.88140  0.59970  0.81712  Biso   1.000  C
  C2355    1.0000 0.86860  0.59970  0.93288  Biso   1.000  C
  C2356    1.0000 0.86860  0.65030  0.31712  Biso   1.000  C
  C2357    1.0000 0.84970  0.63140  0.68288  Biso   1.000  C
  C2358    1.0000 0.90030  0.63140  0.06712  Biso   1.000  C
  C2359    1.0000 0.90030  0.61860  0.18288  Biso   1.000  C
  C2360    1.0000 0.84970  0.61860  0.56712  Biso   1.000  C
  C2361    1.0000 0.15030  0.93288  0.88140  Biso   1.000  C
  C2362    1.0000 0.59970  0.31712  0.38140  Biso   1.000  C
  C2363    1.0000 0.15030  0.31712  0.36860  Biso   1.000  C
  C2364    1.0000 0.59970  0.93288  0.86860  Biso   1.000  C
  C2365    1.0000 0.56712  0.90030  0.13140  Biso   1.000  C
  C2366    1.0000 0.56712  0.34970  0.11860  Biso   1.000  C
  C2367    1.0000 0.18288  0.34970  0.63140  Biso   1.000  C
  C2368    1.0000 0.18288  0.90030  0.61860  Biso   1.000  C
  C2369    1.0000 0.43288  0.38140  0.15030  Biso   1.000  C
  C2370    1.0000 0.81712  0.88140  0.59970  Biso   1.000  C
  C2371    1.0000 0.81712  0.86860  0.15030  Biso   1.000  C
  C2372    1.0000 0.43288  0.36860  0.59970  Biso   1.000  C
  C2373    1.0000 0.11860  0.06712  0.84970  Biso   1.000  C
  C2374    1.0000 0.11860  0.68288  0.90030  Biso   1.000  C
  C2375    1.0000 0.13140  0.56712  0.90030  Biso   1.000  C
  C2376    1.0000 0.63140  0.18288  0.34970  Biso   1.000  C
  C2377    1.0000 0.88140  0.15030  0.93288  Biso   1.000  C
  C2378    1.0000 0.88140  0.09970  0.31712  Biso   1.000  C
  C2379    1.0000 0.86860  0.09970  0.43288  Biso   1.000  C
  C2380    1.0000 0.86860  0.15030  0.81712  Biso   1.000  C
  C2381    1.0000 0.84970  0.13140  0.18288  Biso   1.000  C
  C2382    1.0000 0.90030  0.13140  0.56712  Biso   1.000  C
  C2383    1.0000 0.90030  0.11860  0.68288  Biso   1.000  C
  C2384    1.0000 0.84970  0.11860  0.06712  Biso   1.000  C
  C2385    1.0000 0.15030  0.43288  0.38140  Biso   1.000  C
  C2386    1.0000 0.59970  0.81712  0.88140  Biso   1.000  C
  C2387    1.0000 0.15030  0.81712  0.86860  Biso   1.000  C
  C2388    1.0000 0.59970  0.43288  0.36860  Biso   1.000  C
  C2389    1.0000 0.56712  0.40030  0.63140  Biso   1.000  C
  C2390    1.0000 0.56712  0.84970  0.61860  Biso   1.000  C
  C2391    1.0000 0.18288  0.84970  0.13140  Biso   1.000  C
  C2392    1.0000 0.18288  0.40030  0.11860  Biso   1.000  C
  C2393    1.0000 0.43288  0.88140  0.65030  Biso   1.000  C
  C2394    1.0000 0.81712  0.38140  0.09970  Biso   1.000  C
  C2395    1.0000 0.81712  0.36860  0.65030  Biso   1.000  C
  C2396    1.0000 0.43288  0.86860  0.09970  Biso   1.000  C
  C2397    1.0000 0.11860  0.56712  0.34970  Biso   1.000  C
  C2398    1.0000 0.11860  0.18288  0.40030  Biso   1.000  C
  C2399    1.0000 0.13140  0.06712  0.40030  Biso   1.000  C
  C2400    1.0000 0.63140  0.68288  0.84970  Biso   1.000  C
  C2401    1.0000 0.61860  0.34970  0.06712  Biso   1.000  C
  C2402    1.0000 0.61860  0.40030  0.68288  Biso   1.000  C
  C2403    1.0000 0.63140  0.40030  0.56712  Biso   1.000  C
  C2404    1.0000 0.63140  0.34970  0.18288  Biso   1.000  C
  C2405    1.0000 0.65030  0.36860  0.81712  Biso   1.000  C
  C2406    1.0000 0.59970  0.36860  0.43288  Biso   1.000  C
  C2407    1.0000 0.59970  0.38140  0.31712  Biso   1.000  C
  C2408    1.0000 0.65030  0.38140  0.93288  Biso   1.000  C
  C2409    1.0000 0.34970  0.06712  0.61860  Biso   1.000  C
  C2410    1.0000 0.90030  0.68288  0.11860  Biso   1.000  C
  C2411    1.0000 0.34970  0.68288  0.13140  Biso   1.000  C
  C2412    1.0000 0.90030  0.06712  0.63140  Biso   1.000  C
  C2413    1.0000 0.93288  0.09970  0.36860  Biso   1.000  C
  C2414    1.0000 0.93288  0.65030  0.38140  Biso   1.000  C
  C2415    1.0000 0.31712  0.65030  0.86860  Biso   1.000  C
  C2416    1.0000 0.31712  0.09970  0.88140  Biso   1.000  C
  C2417    1.0000 0.06712  0.61860  0.34970  Biso   1.000  C
  C2418    1.0000 0.68288  0.11860  0.90030  Biso   1.000  C
  C2419    1.0000 0.68288  0.13140  0.34970  Biso   1.000  C
  C2420    1.0000 0.06712  0.63140  0.90030  Biso   1.000  C
  C2421    1.0000 0.38140  0.93288  0.65030  Biso   1.000  C
  C2422    1.0000 0.38140  0.31712  0.59970  Biso   1.000  C
  C2423    1.0000 0.36860  0.43288  0.59970  Biso   1.000  C
  C2424    1.0000 0.86860  0.81712  0.15030  Biso   1.000  C
  C2425    1.0000 0.61860  0.84970  0.56712  Biso   1.000  C
  C2426    1.0000 0.61860  0.90030  0.18288  Biso   1.000  C
  C2427    1.0000 0.63140  0.90030  0.06712  Biso   1.000  C
  C2428    1.0000 0.63140  0.84970  0.68288  Biso   1.000  C
  C2429    1.0000 0.65030  0.86860  0.31712  Biso   1.000  C
  C2430    1.0000 0.59970  0.86860  0.93288  Biso   1.000  C
  C2431    1.0000 0.59970  0.88140  0.81712  Biso   1.000  C
  C2432    1.0000 0.65030  0.88140  0.43288  Biso   1.000  C
  C2433    1.0000 0.34970  0.56712  0.11860  Biso   1.000  C
  C2434    1.0000 0.90030  0.18288  0.61860  Biso   1.000  C
  C2435    1.0000 0.34970  0.18288  0.63140  Biso   1.000  C
  C2436    1.0000 0.90030  0.56712  0.13140  Biso   1.000  C
  C2437    1.0000 0.93288  0.59970  0.86860  Biso   1.000  C
  C2438    1.0000 0.93288  0.15030  0.88140  Biso   1.000  C
  C2439    1.0000 0.31712  0.15030  0.36860  Biso   1.000  C
  C2440    1.0000 0.31712  0.59970  0.38140  Biso   1.000  C
  C2441    1.0000 0.06712  0.11860  0.84970  Biso   1.000  C
  C2442    1.0000 0.68288  0.61860  0.40030  Biso   1.000  C
  C2443    1.0000 0.68288  0.63140  0.84970  Biso   1.000  C
  C2444    1.0000 0.06712  0.13140  0.40030  Biso   1.000  C
  C2445    1.0000 0.38140  0.43288  0.15030  Biso   1.000  C
  C2446    1.0000 0.38140  0.81712  0.09970  Biso   1.000  C
  C2447    1.0000 0.36860  0.93288  0.09970  Biso   1.000  C
  C2448    1.0000 0.86860  0.31712  0.65030  Biso   1.000  C
  C2449    1.0000 0.11860  0.34970  0.56712  Biso   1.000  C
  C2450    1.0000 0.11860  0.40030  0.18288  Biso   1.000  C
  C2451    1.0000 0.13140  0.40030  0.06712  Biso   1.000  C
  C2452    1.0000 0.13140  0.34970  0.68288  Biso   1.000  C
  C2453    1.0000 0.15030  0.36860  0.31712  Biso   1.000  C
  C2454    1.0000 0.09970  0.36860  0.93288  Biso   1.000  C
  C2455    1.0000 0.09970  0.38140  0.81712  Biso   1.000  C
  C2456    1.0000 0.15030  0.38140  0.43288  Biso   1.000  C
  C2457    1.0000 0.84970  0.06712  0.11860  Biso   1.000  C
  C2458    1.0000 0.40030  0.68288  0.61860  Biso   1.000  C
  C2459    1.0000 0.84970  0.68288  0.63140  Biso   1.000  C
  C2460    1.0000 0.40030  0.06712  0.13140  Biso   1.000  C
  C2461    1.0000 0.43288  0.09970  0.86860  Biso   1.000  C
  C2462    1.0000 0.43288  0.65030  0.88140  Biso   1.000  C
  C2463    1.0000 0.81712  0.65030  0.36860  Biso   1.000  C
  C2464    1.0000 0.81712  0.09970  0.38140  Biso   1.000  C
  C2465    1.0000 0.56712  0.61860  0.84970  Biso   1.000  C
  C2466    1.0000 0.18288  0.11860  0.40030  Biso   1.000  C
  C2467    1.0000 0.18288  0.13140  0.84970  Biso   1.000  C
  C2468    1.0000 0.56712  0.63140  0.40030  Biso   1.000  C
  C2469    1.0000 0.88140  0.93288  0.15030  Biso   1.000  C
  C2470    1.0000 0.88140  0.31712  0.09970  Biso   1.000  C
  C2471    1.0000 0.86860  0.43288  0.09970  Biso   1.000  C
  C2472    1.0000 0.36860  0.81712  0.65030  Biso   1.000  C
  C2473    1.0000 0.11860  0.84970  0.06712  Biso   1.000  C
  C2474    1.0000 0.11860  0.90030  0.68288  Biso   1.000  C
  C2475    1.0000 0.13140  0.90030  0.56712  Biso   1.000  C
  C2476    1.0000 0.13140  0.84970  0.18288  Biso   1.000  C
  C2477    1.0000 0.15030  0.86860  0.81712  Biso   1.000  C
  C2478    1.0000 0.09970  0.86860  0.43288  Biso   1.000  C
  C2479    1.0000 0.09970  0.88140  0.31712  Biso   1.000  C
  C2480    1.0000 0.15030  0.88140  0.93288  Biso   1.000  C
  C2481    1.0000 0.84970  0.56712  0.61860  Biso   1.000  C
  C2482    1.0000 0.40030  0.18288  0.11860  Biso   1.000  C
  C2483    1.0000 0.84970  0.18288  0.13140  Biso   1.000  C
  C2484    1.0000 0.40030  0.56712  0.63140  Biso   1.000  C
  C2485    1.0000 0.43288  0.59970  0.36860  Biso   1.000  C
  C2486    1.0000 0.43288  0.15030  0.38140  Biso   1.000  C
  C2487    1.0000 0.81712  0.15030  0.86860  Biso   1.000  C
  C2488    1.0000 0.81712  0.59970  0.88140  Biso   1.000  C
  C2489    1.0000 0.56712  0.11860  0.34970  Biso   1.000  C
  C2490    1.0000 0.18288  0.61860  0.90030  Biso   1.000  C
  C2491    1.0000 0.18288  0.63140  0.34970  Biso   1.000  C
  C2492    1.0000 0.56712  0.13140  0.90030  Biso   1.000  C
  C2493    1.0000 0.88140  0.43288  0.65030  Biso   1.000  C
  C2494    1.0000 0.88140  0.81712  0.59970  Biso   1.000  C
  C2495    1.0000 0.86860  0.93288  0.59970  Biso   1.000  C
  C2496    1.0000 0.36860  0.31712  0.15030  Biso   1.000  C
  C2497    1.0000 0.38030  0.63810  0.94753  Biso   1.000  C
  C2498    1.0000 0.38030  0.61190  0.30247  Biso   1.000  C
  C2499    1.0000 0.36970  0.61190  0.44753  Biso   1.000  C
  C2500    1.0000 0.36970  0.63810  0.80247  Biso   1.000  C
  C2501    1.0000 0.36190  0.63030  0.19753  Biso   1.000  C
  C2502    1.0000 0.38810  0.63030  0.55247  Biso   1.000  C
  C2503    1.0000 0.38810  0.61970  0.69753  Biso   1.000  C
  C2504    1.0000 0.36190  0.61970  0.05247  Biso   1.000  C
  C2505    1.0000 0.63810  0.94753  0.38030  Biso   1.000  C
  C2506    1.0000 0.11190  0.30247  0.88030  Biso   1.000  C
  C2507    1.0000 0.63810  0.30247  0.86970  Biso   1.000  C
  C2508    1.0000 0.11190  0.94753  0.36970  Biso   1.000  C
  C2509    1.0000 0.05247  0.88810  0.63030  Biso   1.000  C
  C2510    1.0000 0.05247  0.36190  0.61970  Biso   1.000  C
  C2511    1.0000 0.69753  0.36190  0.13030  Biso   1.000  C
  C2512    1.0000 0.69753  0.88810  0.11970  Biso   1.000  C
  C2513    1.0000 0.94753  0.38030  0.63810  Biso   1.000  C
  C2514    1.0000 0.30247  0.88030  0.11190  Biso   1.000  C
  C2515    1.0000 0.30247  0.86970  0.63810  Biso   1.000  C
  C2516    1.0000 0.94753  0.36970  0.11190  Biso   1.000  C
  C2517    1.0000 0.61970  0.05247  0.36190  Biso   1.000  C
  C2518    1.0000 0.61970  0.69753  0.38810  Biso   1.000  C
  C2519    1.0000 0.63030  0.55247  0.38810  Biso   1.000  C
  C2520    1.0000 0.13030  0.19753  0.86190  Biso   1.000  C
  C2521    1.0000 0.38030  0.13810  0.44753  Biso   1.000  C
  C2522    1.0000 0.38030  0.11190  0.80247  Biso   1.000  C
  C2523    1.0000 0.36970  0.11190  0.94753  Biso   1.000  C
  C2524    1.0000 0.36970  0.13810  0.30247  Biso   1.000  C
  C2525    1.0000 0.36190  0.13030  0.69753  Biso   1.000  C
  C2526    1.0000 0.38810  0.13030  0.05247  Biso   1.000  C
  C2527    1.0000 0.38810  0.11970  0.19753  Biso   1.000  C
  C2528    1.0000 0.36190  0.11970  0.55247  Biso   1.000  C
  C2529    1.0000 0.63810  0.44753  0.88030  Biso   1.000  C
  C2530    1.0000 0.11190  0.80247  0.38030  Biso   1.000  C
  C2531    1.0000 0.63810  0.80247  0.36970  Biso   1.000  C
  C2532    1.0000 0.11190  0.44753  0.86970  Biso   1.000  C
  C2533    1.0000 0.05247  0.38810  0.13030  Biso   1.000  C
  C2534    1.0000 0.05247  0.86190  0.11970  Biso   1.000  C
  C2535    1.0000 0.69753  0.86190  0.63030  Biso   1.000  C
  C2536    1.0000 0.69753  0.38810  0.61970  Biso   1.000  C
  C2537    1.0000 0.94753  0.88030  0.13810  Biso   1.000  C
  C2538    1.0000 0.30247  0.38030  0.61190  Biso   1.000  C
  C2539    1.0000 0.30247  0.36970  0.13810  Biso   1.000  C
  C2540    1.0000 0.94753  0.86970  0.61190  Biso   1.000  C
  C2541    1.0000 0.61970  0.55247  0.86190  Biso   1.000  C
  C2542    1.0000 0.61970  0.19753  0.88810  Biso   1.000  C
  C2543    1.0000 0.63030  0.05247  0.88810  Biso   1.000  C
  C2544    1.0000 0.13030  0.69753  0.36190  Biso   1.000  C
  C2545    1.0000 0.88030  0.63810  0.44753  Biso   1.000  C
  C2546    1.0000 0.88030  0.61190  0.80247  Biso   1.000  C
  C2547    1.0000 0.86970  0.61190  0.94753  Biso   1.000  C
  C2548    1.0000 0.86970  0.63810  0.30247  Biso   1.000  C
  C2549    1.0000 0.86190  0.63030  0.69753  Biso   1.000  C
  C2550    1.0000 0.88810  0.63030  0.05247  Biso   1.000  C
  C2551    1.0000 0.88810  0.61970  0.19753  Biso   1.000  C
  C2552    1.0000 0.86190  0.61970  0.55247  Biso   1.000  C
  C2553    1.0000 0.13810  0.94753  0.88030  Biso   1.000  C
  C2554    1.0000 0.61190  0.30247  0.38030  Biso   1.000  C
  C2555    1.0000 0.13810  0.30247  0.36970  Biso   1.000  C
  C2556    1.0000 0.61190  0.94753  0.86970  Biso   1.000  C
  C2557    1.0000 0.55247  0.88810  0.13030  Biso   1.000  C
  C2558    1.0000 0.55247  0.36190  0.11970  Biso   1.000  C
  C2559    1.0000 0.19753  0.36190  0.63030  Biso   1.000  C
  C2560    1.0000 0.19753  0.88810  0.61970  Biso   1.000  C
  C2561    1.0000 0.44753  0.38030  0.13810  Biso   1.000  C
  C2562    1.0000 0.80247  0.88030  0.61190  Biso   1.000  C
  C2563    1.0000 0.80247  0.86970  0.13810  Biso   1.000  C
  C2564    1.0000 0.44753  0.36970  0.61190  Biso   1.000  C
  C2565    1.0000 0.11970  0.05247  0.86190  Biso   1.000  C
  C2566    1.0000 0.11970  0.69753  0.88810  Biso   1.000  C
  C2567    1.0000 0.13030  0.55247  0.88810  Biso   1.000  C
  C2568    1.0000 0.63030  0.19753  0.36190  Biso   1.000  C
  C2569    1.0000 0.88030  0.13810  0.94753  Biso   1.000  C
  C2570    1.0000 0.88030  0.11190  0.30247  Biso   1.000  C
  C2571    1.0000 0.86970  0.11190  0.44753  Biso   1.000  C
  C2572    1.0000 0.86970  0.13810  0.80247  Biso   1.000  C
  C2573    1.0000 0.86190  0.13030  0.19753  Biso   1.000  C
  C2574    1.0000 0.88810  0.13030  0.55247  Biso   1.000  C
  C2575    1.0000 0.88810  0.11970  0.69753  Biso   1.000  C
  C2576    1.0000 0.86190  0.11970  0.05247  Biso   1.000  C
  C2577    1.0000 0.13810  0.44753  0.38030  Biso   1.000  C
  C2578    1.0000 0.61190  0.80247  0.88030  Biso   1.000  C
  C2579    1.0000 0.13810  0.80247  0.86970  Biso   1.000  C
  C2580    1.0000 0.61190  0.44753  0.36970  Biso   1.000  C
  C2581    1.0000 0.55247  0.38810  0.63030  Biso   1.000  C
  C2582    1.0000 0.55247  0.86190  0.61970  Biso   1.000  C
  C2583    1.0000 0.19753  0.86190  0.13030  Biso   1.000  C
  C2584    1.0000 0.19753  0.38810  0.11970  Biso   1.000  C
  C2585    1.0000 0.44753  0.88030  0.63810  Biso   1.000  C
  C2586    1.0000 0.80247  0.38030  0.11190  Biso   1.000  C
  C2587    1.0000 0.80247  0.36970  0.63810  Biso   1.000  C
  C2588    1.0000 0.44753  0.86970  0.11190  Biso   1.000  C
  C2589    1.0000 0.11970  0.55247  0.36190  Biso   1.000  C
  C2590    1.0000 0.11970  0.19753  0.38810  Biso   1.000  C
  C2591    1.0000 0.13030  0.05247  0.38810  Biso   1.000  C
  C2592    1.0000 0.63030  0.69753  0.86190  Biso   1.000  C
  C2593    1.0000 0.61970  0.36190  0.05247  Biso   1.000  C
  C2594    1.0000 0.61970  0.38810  0.69753  Biso   1.000  C
  C2595    1.0000 0.63030  0.38810  0.55247  Biso   1.000  C
  C2596    1.0000 0.63030  0.36190  0.19753  Biso   1.000  C
  C2597    1.0000 0.63810  0.36970  0.80247  Biso   1.000  C
  C2598    1.0000 0.61190  0.36970  0.44753  Biso   1.000  C
  C2599    1.0000 0.61190  0.38030  0.30247  Biso   1.000  C
  C2600    1.0000 0.63810  0.38030  0.94753  Biso   1.000  C
  C2601    1.0000 0.36190  0.05247  0.61970  Biso   1.000  C
  C2602    1.0000 0.88810  0.69753  0.11970  Biso   1.000  C
  C2603    1.0000 0.36190  0.69753  0.13030  Biso   1.000  C
  C2604    1.0000 0.88810  0.05247  0.63030  Biso   1.000  C
  C2605    1.0000 0.94753  0.11190  0.36970  Biso   1.000  C
  C2606    1.0000 0.94753  0.63810  0.38030  Biso   1.000  C
  C2607    1.0000 0.30247  0.63810  0.86970  Biso   1.000  C
  C2608    1.0000 0.30247  0.11190  0.88030  Biso   1.000  C
  C2609    1.0000 0.05247  0.61970  0.36190  Biso   1.000  C
  C2610    1.0000 0.69753  0.11970  0.88810  Biso   1.000  C
  C2611    1.0000 0.69753  0.13030  0.36190  Biso   1.000  C
  C2612    1.0000 0.05247  0.63030  0.88810  Biso   1.000  C
  C2613    1.0000 0.38030  0.94753  0.63810  Biso   1.000  C
  C2614    1.0000 0.38030  0.30247  0.61190  Biso   1.000  C
  C2615    1.0000 0.36970  0.44753  0.61190  Biso   1.000  C
  C2616    1.0000 0.86970  0.80247  0.13810  Biso   1.000  C
  C2617    1.0000 0.61970  0.86190  0.55247  Biso   1.000  C
  C2618    1.0000 0.61970  0.88810  0.19753  Biso   1.000  C
  C2619    1.0000 0.63030  0.88810  0.05247  Biso   1.000  C
  C2620    1.0000 0.63030  0.86190  0.69753  Biso   1.000  C
  C2621    1.0000 0.63810  0.86970  0.30247  Biso   1.000  C
  C2622    1.0000 0.61190  0.86970  0.94753  Biso   1.000  C
  C2623    1.0000 0.61190  0.88030  0.80247  Biso   1.000  C
  C2624    1.0000 0.63810  0.88030  0.44753  Biso   1.000  C
  C2625    1.0000 0.36190  0.55247  0.11970  Biso   1.000  C
  C2626    1.0000 0.88810  0.19753  0.61970  Biso   1.000  C
  C2627    1.0000 0.36190  0.19753  0.63030  Biso   1.000  C
  C2628    1.0000 0.88810  0.55247  0.13030  Biso   1.000  C
  C2629    1.0000 0.94753  0.61190  0.86970  Biso   1.000  C
  C2630    1.0000 0.94753  0.13810  0.88030  Biso   1.000  C
  C2631    1.0000 0.30247  0.13810  0.36970  Biso   1.000  C
  C2632    1.0000 0.30247  0.61190  0.38030  Biso   1.000  C
  C2633    1.0000 0.05247  0.11970  0.86190  Biso   1.000  C
  C2634    1.0000 0.69753  0.61970  0.38810  Biso   1.000  C
  C2635    1.0000 0.69753  0.63030  0.86190  Biso   1.000  C
  C2636    1.0000 0.05247  0.13030  0.38810  Biso   1.000  C
  C2637    1.0000 0.38030  0.44753  0.13810  Biso   1.000  C
  C2638    1.0000 0.38030  0.80247  0.11190  Biso   1.000  C
  C2639    1.0000 0.36970  0.94753  0.11190  Biso   1.000  C
  C2640    1.0000 0.86970  0.30247  0.63810  Biso   1.000  C
  C2641    1.0000 0.11970  0.36190  0.55247  Biso   1.000  C
  C2642    1.0000 0.11970  0.38810  0.19753  Biso   1.000  C
  C2643    1.0000 0.13030  0.38810  0.05247  Biso   1.000  C
  C2644    1.0000 0.13030  0.36190  0.69753  Biso   1.000  C
  C2645    1.0000 0.13810  0.36970  0.30247  Biso   1.000  C
  C2646    1.0000 0.11190  0.36970  0.94753  Biso   1.000  C
  C2647    1.0000 0.11190  0.38030  0.80247  Biso   1.000  C
  C2648    1.0000 0.13810  0.38030  0.44753  Biso   1.000  C
  C2649    1.0000 0.86190  0.05247  0.11970  Biso   1.000  C
  C2650    1.0000 0.38810  0.69753  0.61970  Biso   1.000  C
  C2651    1.0000 0.86190  0.69753  0.63030  Biso   1.000  C
  C2652    1.0000 0.38810  0.05247  0.13030  Biso   1.000  C
  C2653    1.0000 0.44753  0.11190  0.86970  Biso   1.000  C
  C2654    1.0000 0.44753  0.63810  0.88030  Biso   1.000  C
  C2655    1.0000 0.80247  0.63810  0.36970  Biso   1.000  C
  C2656    1.0000 0.80247  0.11190  0.38030  Biso   1.000  C
  C2657    1.0000 0.55247  0.61970  0.86190  Biso   1.000  C
  C2658    1.0000 0.19753  0.11970  0.38810  Biso   1.000  C
  C2659    1.0000 0.19753  0.13030  0.86190  Biso   1.000  C
  C2660    1.0000 0.55247  0.63030  0.38810  Biso   1.000  C
  C2661    1.0000 0.88030  0.94753  0.13810  Biso   1.000  C
  C2662    1.0000 0.88030  0.30247  0.11190  Biso   1.000  C
  C2663    1.0000 0.86970  0.44753  0.11190  Biso   1.000  C
  C2664    1.0000 0.36970  0.80247  0.63810  Biso   1.000  C
  C2665    1.0000 0.11970  0.86190  0.05247  Biso   1.000  C
  C2666    1.0000 0.11970  0.88810  0.69753  Biso   1.000  C
  C2667    1.0000 0.13030  0.88810  0.55247  Biso   1.000  C
  C2668    1.0000 0.13030  0.86190  0.19753  Biso   1.000  C
  C2669    1.0000 0.13810  0.86970  0.80247  Biso   1.000  C
  C2670    1.0000 0.11190  0.86970  0.44753  Biso   1.000  C
  C2671    1.0000 0.11190  0.88030  0.30247  Biso   1.000  C
  C2672    1.0000 0.13810  0.88030  0.94753  Biso   1.000  C
  C2673    1.0000 0.86190  0.55247  0.61970  Biso   1.000  C
  C2674    1.0000 0.38810  0.19753  0.11970  Biso   1.000  C
  C2675    1.0000 0.86190  0.19753  0.13030  Biso   1.000  C
  C2676    1.0000 0.38810  0.55247  0.63030  Biso   1.000  C
  C2677    1.0000 0.44753  0.61190  0.36970  Biso   1.000  C
  C2678    1.0000 0.44753  0.13810  0.38030  Biso   1.000  C
  C2679    1.0000 0.80247  0.13810  0.86970  Biso   1.000  C
  C2680    1.0000 0.80247  0.61190  0.88030  Biso   1.000  C
  C2681    1.0000 0.55247  0.11970  0.36190  Biso   1.000  C
  C2682    1.0000 0.19753  0.61970  0.88810  Biso   1.000  C
  C2683    1.0000 0.19753  0.63030  0.36190  Biso   1.000  C
  C2684    1.0000 0.55247  0.13030  0.88810  Biso   1.000  C
  C2685    1.0000 0.88030  0.44753  0.63810  Biso   1.000  C
  C2686    1.0000 0.88030  0.80247  0.61190  Biso   1.000  C
  C2687    1.0000 0.86970  0.94753  0.61190  Biso   1.000  C
  C2688    1.0000 0.36970  0.30247  0.13810  Biso   1.000  C
  H769     1.0000 0.37300  0.62710  0.94640  Biso   1.000  H
  H770     1.0000 0.37300  0.62290  0.30360  Biso   1.000  H
  H771     1.0000 0.37700  0.62290  0.44640  Biso   1.000  H
  H772     1.0000 0.37700  0.62710  0.80360  Biso   1.000  H
  H773     1.0000 0.37290  0.62300  0.19640  Biso   1.000  H
  H774     1.0000 0.37710  0.62300  0.55360  Biso   1.000  H
  H775     1.0000 0.37710  0.62700  0.69640  Biso   1.000  H
  H776     1.0000 0.37290  0.62700  0.05360  Biso   1.000  H
  H777     1.0000 0.62710  0.94640  0.37300  Biso   1.000  H
  H778     1.0000 0.12290  0.30360  0.87300  Biso   1.000  H
  H779     1.0000 0.62710  0.30360  0.87700  Biso   1.000  H
  H780     1.0000 0.12290  0.94640  0.37700  Biso   1.000  H
  H781     1.0000 0.05360  0.87710  0.62300  Biso   1.000  H
  H782     1.0000 0.05360  0.37290  0.62700  Biso   1.000  H
  H783     1.0000 0.69640  0.37290  0.12300  Biso   1.000  H
  H784     1.0000 0.69640  0.87710  0.12700  Biso   1.000  H
  H785     1.0000 0.94640  0.37300  0.62710  Biso   1.000  H
  H786     1.0000 0.30360  0.87300  0.12290  Biso   1.000  H
  H787     1.0000 0.30360  0.87700  0.62710  Biso   1.000  H
  H788     1.0000 0.94640  0.37700  0.12290  Biso   1.000  H
  H789     1.0000 0.62700  0.05360  0.37290  Biso   1.000  H
  H790     1.0000 0.62700  0.69640  0.37710  Biso   1.000  H
  H791     1.0000 0.62300  0.55360  0.37710  Biso   1.000  H
  H792     1.0000 0.12300  0.19640  0.87290  Biso   1.000  H
  H793     1.0000 0.37300  0.12710  0.44640  Biso   1.000  H
  H794     1.0000 0.37300  0.12290  0.80360  Biso   1.000  H
  H795     1.0000 0.37700  0.12290  0.94640  Biso   1.000  H
  H796     1.0000 0.37700  0.12710  0.30360  Biso   1.000  H
  H797     1.0000 0.37290  0.12300  0.69640  Biso   1.000  H
  H798     1.0000 0.37710  0.12300  0.05360  Biso   1.000  H
  H799     1.0000 0.37710  0.12700  0.19640  Biso   1.000  H
  H800     1.0000 0.37290  0.12700  0.55360  Biso   1.000  H
  H801     1.0000 0.62710  0.44640  0.87300  Biso   1.000  H
  H802     1.0000 0.12290  0.80360  0.37300  Biso   1.000  H
  H803     1.0000 0.62710  0.80360  0.37700  Biso   1.000  H
  H804     1.0000 0.12290  0.44640  0.87700  Biso   1.000  H
  H805     1.0000 0.05360  0.37710  0.12300  Biso   1.000  H
  H806     1.0000 0.05360  0.87290  0.12700  Biso   1.000  H
  H807     1.0000 0.69640  0.87290  0.62300  Biso   1.000  H
  H808     1.0000 0.69640  0.37710  0.62700  Biso   1.000  H
  H809     1.0000 0.94640  0.87300  0.12710  Biso   1.000  H
  H810     1.0000 0.30360  0.37300  0.62290  Biso   1.000  H
  H811     1.0000 0.30360  0.37700  0.12710  Biso   1.000  H
  H812     1.0000 0.94640  0.87700  0.62290  Biso   1.000  H
  H813     1.0000 0.62700  0.55360  0.87290  Biso   1.000  H
  H814     1.0000 0.62700  0.19640  0.87710  Biso   1.000  H
  H815     1.0000 0.62300  0.05360  0.87710  Biso   1.000  H
  H816     1.0000 0.12300  0.69640  0.37290  Biso   1.000  H
  H817     1.0000 0.87300  0.62710  0.44640  Biso   1.000  H
  H818     1.0000 0.87300  0.62290  0.80360  Biso   1.000  H
  H819     1.0000 0.87700  0.62290  0.94640  Biso   1.000  H
  H820     1.0000 0.87700  0.62710  0.30360  Biso   1.000  H
  H821     1.0000 0.87290  0.62300  0.69640  Biso   1.000  H
  H822     1.0000 0.87710  0.62300  0.05360  Biso   1.000  H
  H823     1.0000 0.87710  0.62700  0.19640  Biso   1.000  H
  H824     1.0000 0.87290  0.62700  0.55360  Biso   1.000  H
  H825     1.0000 0.12710  0.94640  0.87300  Biso   1.000  H
  H826     1.0000 0.62290  0.30360  0.37300  Biso   1.000  H
  H827     1.0000 0.12710  0.30360  0.37700  Biso   1.000  H
  H828     1.0000 0.62290  0.94640  0.87700  Biso   1.000  H
  H829     1.0000 0.55360  0.87710  0.12300  Biso   1.000  H
  H830     1.0000 0.55360  0.37290  0.12700  Biso   1.000  H
  H831     1.0000 0.19640  0.37290  0.62300  Biso   1.000  H
  H832     1.0000 0.19640  0.87710  0.62700  Biso   1.000  H
  H833     1.0000 0.44640  0.37300  0.12710  Biso   1.000  H
  H834     1.0000 0.80360  0.87300  0.62290  Biso   1.000  H
  H835     1.0000 0.80360  0.87700  0.12710  Biso   1.000  H
  H836     1.0000 0.44640  0.37700  0.62290  Biso   1.000  H
  H837     1.0000 0.12700  0.05360  0.87290  Biso   1.000  H
  H838     1.0000 0.12700  0.69640  0.87710  Biso   1.000  H
  H839     1.0000 0.12300  0.55360  0.87710  Biso   1.000  H
  H840     1.0000 0.62300  0.19640  0.37290  Biso   1.000  H
  H841     1.0000 0.87300  0.12710  0.94640  Biso   1.000  H
  H842     1.0000 0.87300  0.12290  0.30360  Biso   1.000  H
  H843     1.0000 0.87700  0.12290  0.44640  Biso   1.000  H
  H844     1.0000 0.87700  0.12710  0.80360  Biso   1.000  H
  H845     1.0000 0.87290  0.12300  0.19640  Biso   1.000  H
  H846     1.0000 0.87710  0.12300  0.55360  Biso   1.000  H
  H847     1.0000 0.87710  0.12700  0.69640  Biso   1.000  H
  H848     1.0000 0.87290  0.12700  0.05360  Biso   1.000  H
  H849     1.0000 0.12710  0.44640  0.37300  Biso   1.000  H
  H850     1.0000 0.62290  0.80360  0.87300  Biso   1.000  H
  H851     1.0000 0.12710  0.80360  0.87700  Biso   1.000  H
  H852     1.0000 0.62290  0.44640  0.37700  Biso   1.000  H
  H853     1.0000 0.55360  0.37710  0.62300  Biso   1.000  H
  H854     1.0000 0.55360  0.87290  0.62700  Biso   1.000  H
  H855     1.0000 0.19640  0.87290  0.12300  Biso   1.000  H
  H856     1.0000 0.19640  0.37710  0.12700  Biso   1.000  H
  H857     1.0000 0.44640  0.87300  0.62710  Biso   1.000  H
  H858     1.0000 0.80360  0.37300  0.12290  Biso   1.000  H
  H859     1.0000 0.80360  0.37700  0.62710  Biso   1.000  H
  H860     1.0000 0.44640  0.87700  0.12290  Biso   1.000  H
  H861     1.0000 0.12700  0.55360  0.37290  Biso   1.000  H
  H862     1.0000 0.12700  0.19640  0.37710  Biso   1.000  H
  H863     1.0000 0.12300  0.05360  0.37710  Biso   1.000  H
  H864     1.0000 0.62300  0.69640  0.87290  Biso   1.000  H
  H865     1.0000 0.62700  0.37290  0.05360  Biso   1.000  H
  H866     1.0000 0.62700  0.37710  0.69640  Biso   1.000  H
  H867     1.0000 0.62300  0.37710  0.55360  Biso   1.000  H
  H868     1.0000 0.62300  0.37290  0.19640  Biso   1.000  H
  H869     1.0000 0.62710  0.37700  0.80360  Biso   1.000  H
  H870     1.0000 0.62290  0.37700  0.44640  Biso   1.000  H
  H871     1.0000 0.62290  0.37300  0.30360  Biso   1.000  H
  H872     1.0000 0.62710  0.37300  0.94640  Biso   1.000  H
  H873     1.0000 0.37290  0.05360  0.62700  Biso   1.000  H
  H874     1.0000 0.87710  0.69640  0.12700  Biso   1.000  H
  H875     1.0000 0.37290  0.69640  0.12300  Biso   1.000  H
  H876     1.0000 0.87710  0.05360  0.62300  Biso   1.000  H
  H877     1.0000 0.94640  0.12290  0.37700  Biso   1.000  H
  H878     1.0000 0.94640  0.62710  0.37300  Biso   1.000  H
  H879     1.0000 0.30360  0.62710  0.87700  Biso   1.000  H
  H880     1.0000 0.30360  0.12290  0.87300  Biso   1.000  H
  H881     1.0000 0.05360  0.62700  0.37290  Biso   1.000  H
  H882     1.0000 0.69640  0.12700  0.87710  Biso   1.000  H
  H883     1.0000 0.69640  0.12300  0.37290  Biso   1.000  H
  H884     1.0000 0.05360  0.62300  0.87710  Biso   1.000  H
  H885     1.0000 0.37300  0.94640  0.62710  Biso   1.000  H
  H886     1.0000 0.37300  0.30360  0.62290  Biso   1.000  H
  H887     1.0000 0.37700  0.44640  0.62290  Biso   1.000  H
  H888     1.0000 0.87700  0.80360  0.12710  Biso   1.000  H
  H889     1.0000 0.62700  0.87290  0.55360  Biso   1.000  H
  H890     1.0000 0.62700  0.87710  0.19640  Biso   1.000  H
  H891     1.0000 0.62300  0.87710  0.05360  Biso   1.000  H
  H892     1.0000 0.62300  0.87290  0.69640  Biso   1.000  H
  H893     1.0000 0.62710  0.87700  0.30360  Biso   1.000  H
  H894     1.0000 0.62290  0.87700  0.94640  Biso   1.000  H
  H895     1.0000 0.62290  0.87300  0.80360  Biso   1.000  H
  H896     1.0000 0.62710  0.87300  0.44640  Biso   1.000  H
  H897     1.0000 0.37290  0.55360  0.12700  Biso   1.000  H
  H898     1.0000 0.87710  0.19640  0.62700  Biso   1.000  H
  H899     1.0000 0.37290  0.19640  0.62300  Biso   1.000  H
  H900     1.0000 0.87710  0.55360  0.12300  Biso   1.000  H
  H901     1.0000 0.94640  0.62290  0.87700  Biso   1.000  H
  H902     1.0000 0.94640  0.12710  0.87300  Biso   1.000  H
  H903     1.0000 0.30360  0.12710  0.37700  Biso   1.000  H
  H904     1.0000 0.30360  0.62290  0.37300  Biso   1.000  H
  H905     1.0000 0.05360  0.12700  0.87290  Biso   1.000  H
  H906     1.0000 0.69640  0.62700  0.37710  Biso   1.000  H
  H907     1.0000 0.69640  0.62300  0.87290  Biso   1.000  H
  H908     1.0000 0.05360  0.12300  0.37710  Biso   1.000  H
  H909     1.0000 0.37300  0.44640  0.12710  Biso   1.000  H
  H910     1.0000 0.37300  0.80360  0.12290  Biso   1.000  H
  H911     1.0000 0.37700  0.94640  0.12290  Biso   1.000  H
  H912     1.0000 0.87700  0.30360  0.62710  Biso   1.000  H
  H913     1.0000 0.12700  0.37290  0.55360  Biso   1.000  H
  H914     1.0000 0.12700  0.37710  0.19640  Biso   1.000  H
  H915     1.0000 0.12300  0.37710  0.05360  Biso   1.000  H
  H916     1.0000 0.12300  0.37290  0.69640  Biso   1.000  H
  H917     1.0000 0.12710  0.37700  0.30360  Biso   1.000  H
  H918     1.0000 0.12290  0.37700  0.94640  Biso   1.000  H
  H919     1.0000 0.12290  0.37300  0.80360  Biso   1.000  H
  H920     1.0000 0.12710  0.37300  0.44640  Biso   1.000  H
  H921     1.0000 0.87290  0.05360  0.12700  Biso   1.000  H
  H922     1.0000 0.37710  0.69640  0.62700  Biso   1.000  H
  H923     1.0000 0.87290  0.69640  0.62300  Biso   1.000  H
  H924     1.0000 0.37710  0.05360  0.12300  Biso   1.000  H
  H925     1.0000 0.44640  0.12290  0.87700  Biso   1.000  H
  H926     1.0000 0.44640  0.62710  0.87300  Biso   1.000  H
  H927     1.0000 0.80360  0.62710  0.37700  Biso   1.000  H
  H928     1.0000 0.80360  0.12290  0.37300  Biso   1.000  H
  H929     1.0000 0.55360  0.62700  0.87290  Biso   1.000  H
  H930     1.0000 0.19640  0.12700  0.37710  Biso   1.000  H
  H931     1.0000 0.19640  0.12300  0.87290  Biso   1.000  H
  H932     1.0000 0.55360  0.62300  0.37710  Biso   1.000  H
  H933     1.0000 0.87300  0.94640  0.12710  Biso   1.000  H
  H934     1.0000 0.87300  0.30360  0.12290  Biso   1.000  H
  H935     1.0000 0.87700  0.44640  0.12290  Biso   1.000  H
  H936     1.0000 0.37700  0.80360  0.62710  Biso   1.000  H
  H937     1.0000 0.12700  0.87290  0.05360  Biso   1.000  H
  H938     1.0000 0.12700  0.87710  0.69640  Biso   1.000  H
  H939     1.0000 0.12300  0.87710  0.55360  Biso   1.000  H
  H940     1.0000 0.12300  0.87290  0.19640  Biso   1.000  H
  H941     1.0000 0.12710  0.87700  0.80360  Biso   1.000  H
  H942     1.0000 0.12290  0.87700  0.44640  Biso   1.000  H
  H943     1.0000 0.12290  0.87300  0.30360  Biso   1.000  H
  H944     1.0000 0.12710  0.87300  0.94640  Biso   1.000  H
  H945     1.0000 0.87290  0.55360  0.62700  Biso   1.000  H
  H946     1.0000 0.37710  0.19640  0.12700  Biso   1.000  H
  H947     1.0000 0.87290  0.19640  0.12300  Biso   1.000  H
  H948     1.0000 0.37710  0.55360  0.62300  Biso   1.000  H
  H949     1.0000 0.44640  0.62290  0.37700  Biso   1.000  H
  H950     1.0000 0.44640  0.12710  0.37300  Biso   1.000  H
  H951     1.0000 0.80360  0.12710  0.87700  Biso   1.000  H
  H952     1.0000 0.80360  0.62290  0.87300  Biso   1.000  H
  H953     1.0000 0.55360  0.12700  0.37290  Biso   1.000  H
  H954     1.0000 0.19640  0.62700  0.87710  Biso   1.000  H
  H955     1.0000 0.19640  0.62300  0.37290  Biso   1.000  H
  H956     1.0000 0.55360  0.12300  0.87710  Biso   1.000  H
  H957     1.0000 0.87300  0.44640  0.62710  Biso   1.000  H
  H958     1.0000 0.87300  0.80360  0.62290  Biso   1.000  H
  H959     1.0000 0.87700  0.94640  0.62290  Biso   1.000  H
  H960     1.0000 0.37700  0.30360  0.12710  Biso   1.000  H
  C2689    1.0000 0.39007  0.64158  0.96419  Biso   1.000  C
  C2690    1.0000 0.39007  0.60842  0.28581  Biso   1.000  C
  C2691    1.0000 0.35993  0.60842  0.46419  Biso   1.000  C
  C2692    1.0000 0.35993  0.64158  0.78581  Biso   1.000  C
  C2693    1.0000 0.35842  0.64007  0.21419  Biso   1.000  C
  C2694    1.0000 0.39158  0.64007  0.53581  Biso   1.000  C
  C2695    1.0000 0.39158  0.60993  0.71419  Biso   1.000  C
  C2696    1.0000 0.35842  0.60993  0.03581  Biso   1.000  C
  C2697    1.0000 0.64158  0.96419  0.39007  Biso   1.000  C
  C2698    1.0000 0.10842  0.28581  0.89007  Biso   1.000  C
  C2699    1.0000 0.64158  0.28581  0.85993  Biso   1.000  C
  C2700    1.0000 0.10842  0.96419  0.35993  Biso   1.000  C
  C2701    1.0000 0.03581  0.89158  0.64007  Biso   1.000  C
  C2702    1.0000 0.03581  0.35842  0.60993  Biso   1.000  C
  C2703    1.0000 0.71419  0.35842  0.14007  Biso   1.000  C
  C2704    1.0000 0.71419  0.89158  0.10993  Biso   1.000  C
  C2705    1.0000 0.96419  0.39007  0.64158  Biso   1.000  C
  C2706    1.0000 0.28581  0.89007  0.10842  Biso   1.000  C
  C2707    1.0000 0.28581  0.85993  0.64158  Biso   1.000  C
  C2708    1.0000 0.96419  0.35993  0.10842  Biso   1.000  C
  C2709    1.0000 0.60993  0.03581  0.35842  Biso   1.000  C
  C2710    1.0000 0.60993  0.71419  0.39158  Biso   1.000  C
  C2711    1.0000 0.64007  0.53581  0.39158  Biso   1.000  C
  C2712    1.0000 0.14007  0.21419  0.85842  Biso   1.000  C
  C2713    1.0000 0.39007  0.14158  0.46419  Biso   1.000  C
  C2714    1.0000 0.39007  0.10842  0.78581  Biso   1.000  C
  C2715    1.0000 0.35993  0.10842  0.96419  Biso   1.000  C
  C2716    1.0000 0.35993  0.14158  0.28581  Biso   1.000  C
  C2717    1.0000 0.35842  0.14007  0.71419  Biso   1.000  C
  C2718    1.0000 0.39158  0.14007  0.03581  Biso   1.000  C
  C2719    1.0000 0.39158  0.10993  0.21419  Biso   1.000  C
  C2720    1.0000 0.35842  0.10993  0.53581  Biso   1.000  C
  C2721    1.0000 0.64158  0.46419  0.89007  Biso   1.000  C
  C2722    1.0000 0.10842  0.78581  0.39007  Biso   1.000  C
  C2723    1.0000 0.64158  0.78581  0.35993  Biso   1.000  C
  C2724    1.0000 0.10842  0.46419  0.85993  Biso   1.000  C
  C2725    1.0000 0.03581  0.39158  0.14007  Biso   1.000  C
  C2726    1.0000 0.03581  0.85842  0.10993  Biso   1.000  C
  C2727    1.0000 0.71419  0.85842  0.64007  Biso   1.000  C
  C2728    1.0000 0.71419  0.39158  0.60993  Biso   1.000  C
  C2729    1.0000 0.96419  0.89007  0.14158  Biso   1.000  C
  C2730    1.0000 0.28581  0.39007  0.60842  Biso   1.000  C
  C2731    1.0000 0.28581  0.35993  0.14158  Biso   1.000  C
  C2732    1.0000 0.96419  0.85993  0.60842  Biso   1.000  C
  C2733    1.0000 0.60993  0.53581  0.85842  Biso   1.000  C
  C2734    1.0000 0.60993  0.21419  0.89158  Biso   1.000  C
  C2735    1.0000 0.64007  0.03581  0.89158  Biso   1.000  C
  C2736    1.0000 0.14007  0.71419  0.35842  Biso   1.000  C
  C2737    1.0000 0.89007  0.64158  0.46419  Biso   1.000  C
  C2738    1.0000 0.89007  0.60842  0.78581  Biso   1.000  C
  C2739    1.0000 0.85993  0.60842  0.96419  Biso   1.000  C
  C2740    1.0000 0.85993  0.64158  0.28581  Biso   1.000  C
  C2741    1.0000 0.85842  0.64007  0.71419  Biso   1.000  C
  C2742    1.0000 0.89158  0.64007  0.03581  Biso   1.000  C
  C2743    1.0000 0.89158  0.60993  0.21419  Biso   1.000  C
  C2744    1.0000 0.85842  0.60993  0.53581  Biso   1.000  C
  C2745    1.0000 0.14158  0.96419  0.89007  Biso   1.000  C
  C2746    1.0000 0.60842  0.28581  0.39007  Biso   1.000  C
  C2747    1.0000 0.14158  0.28581  0.35993  Biso   1.000  C
  C2748    1.0000 0.60842  0.96419  0.85993  Biso   1.000  C
  C2749    1.0000 0.53581  0.89158  0.14007  Biso   1.000  C
  C2750    1.0000 0.53581  0.35842  0.10993  Biso   1.000  C
  C2751    1.0000 0.21419  0.35842  0.64007  Biso   1.000  C
  C2752    1.0000 0.21419  0.89158  0.60993  Biso   1.000  C
  C2753    1.0000 0.46419  0.39007  0.14158  Biso   1.000  C
  C2754    1.0000 0.78581  0.89007  0.60842  Biso   1.000  C
  C2755    1.0000 0.78581  0.85993  0.14158  Biso   1.000  C
  C2756    1.0000 0.46419  0.35993  0.60842  Biso   1.000  C
  C2757    1.0000 0.10993  0.03581  0.85842  Biso   1.000  C
  C2758    1.0000 0.10993  0.71419  0.89158  Biso   1.000  C
  C2759    1.0000 0.14007  0.53581  0.89158  Biso   1.000  C
  C2760    1.0000 0.64007  0.21419  0.35842  Biso   1.000  C
  C2761    1.0000 0.89007  0.14158  0.96419  Biso   1.000  C
  C2762    1.0000 0.89007  0.10842  0.28581  Biso   1.000  C
  C2763    1.0000 0.85993  0.10842  0.46419  Biso   1.000  C
  C2764    1.0000 0.85993  0.14158  0.78581  Biso   1.000  C
  C2765    1.0000 0.85842  0.14007  0.21419  Biso   1.000  C
  C2766    1.0000 0.89158  0.14007  0.53581  Biso   1.000  C
  C2767    1.0000 0.89158  0.10993  0.71419  Biso   1.000  C
  C2768    1.0000 0.85842  0.10993  0.03581  Biso   1.000  C
  C2769    1.0000 0.14158  0.46419  0.39007  Biso   1.000  C
  C2770    1.0000 0.60842  0.78581  0.89007  Biso   1.000  C
  C2771    1.0000 0.14158  0.78581  0.85993  Biso   1.000  C
  C2772    1.0000 0.60842  0.46419  0.35993  Biso   1.000  C
  C2773    1.0000 0.53581  0.39158  0.64007  Biso   1.000  C
  C2774    1.0000 0.53581  0.85842  0.60993  Biso   1.000  C
  C2775    1.0000 0.21419  0.85842  0.14007  Biso   1.000  C
  C2776    1.0000 0.21419  0.39158  0.10993  Biso   1.000  C
  C2777    1.0000 0.46419  0.89007  0.64158  Biso   1.000  C
  C2778    1.0000 0.78581  0.39007  0.10842  Biso   1.000  C
  C2779    1.0000 0.78581  0.35993  0.64158  Biso   1.000  C
  C2780    1.0000 0.46419  0.85993  0.10842  Biso   1.000  C
  C2781    1.0000 0.10993  0.53581  0.35842  Biso   1.000  C
  C2782    1.0000 0.10993  0.21419  0.39158  Biso   1.000  C
  C2783    1.0000 0.14007  0.03581  0.39158  Biso   1.000  C
  C2784    1.0000 0.64007  0.71419  0.85842  Biso   1.000  C
  C2785    1.0000 0.60993  0.35842  0.03581  Biso   1.000  C
  C2786    1.0000 0.60993  0.39158  0.71419  Biso   1.000  C
  C2787    1.0000 0.64007  0.39158  0.53581  Biso   1.000  C
  C2788    1.0000 0.64007  0.35842  0.21419  Biso   1.000  C
  C2789    1.0000 0.64158  0.35993  0.78581  Biso   1.000  C
  C2790    1.0000 0.60842  0.35993  0.46419  Biso   1.000  C
  C2791    1.0000 0.60842  0.39007  0.28581  Biso   1.000  C
  C2792    1.0000 0.64158  0.39007  0.96419  Biso   1.000  C
  C2793    1.0000 0.35842  0.03581  0.60993  Biso   1.000  C
  C2794    1.0000 0.89158  0.71419  0.10993  Biso   1.000  C
  C2795    1.0000 0.35842  0.71419  0.14007  Biso   1.000  C
  C2796    1.0000 0.89158  0.03581  0.64007  Biso   1.000  C
  C2797    1.0000 0.96419  0.10842  0.35993  Biso   1.000  C
  C2798    1.0000 0.96419  0.64158  0.39007  Biso   1.000  C
  C2799    1.0000 0.28581  0.64158  0.85993  Biso   1.000  C
  C2800    1.0000 0.28581  0.10842  0.89007  Biso   1.000  C
  C2801    1.0000 0.03581  0.60993  0.35842  Biso   1.000  C
  C2802    1.0000 0.71419  0.10993  0.89158  Biso   1.000  C
  C2803    1.0000 0.71419  0.14007  0.35842  Biso   1.000  C
  C2804    1.0000 0.03581  0.64007  0.89158  Biso   1.000  C
  C2805    1.0000 0.39007  0.96419  0.64158  Biso   1.000  C
  C2806    1.0000 0.39007  0.28581  0.60842  Biso   1.000  C
  C2807    1.0000 0.35993  0.46419  0.60842  Biso   1.000  C
  C2808    1.0000 0.85993  0.78581  0.14158  Biso   1.000  C
  C2809    1.0000 0.60993  0.85842  0.53581  Biso   1.000  C
  C2810    1.0000 0.60993  0.89158  0.21419  Biso   1.000  C
  C2811    1.0000 0.64007  0.89158  0.03581  Biso   1.000  C
  C2812    1.0000 0.64007  0.85842  0.71419  Biso   1.000  C
  C2813    1.0000 0.64158  0.85993  0.28581  Biso   1.000  C
  C2814    1.0000 0.60842  0.85993  0.96419  Biso   1.000  C
  C2815    1.0000 0.60842  0.89007  0.78581  Biso   1.000  C
  C2816    1.0000 0.64158  0.89007  0.46419  Biso   1.000  C
  C2817    1.0000 0.35842  0.53581  0.10993  Biso   1.000  C
  C2818    1.0000 0.89158  0.21419  0.60993  Biso   1.000  C
  C2819    1.0000 0.35842  0.21419  0.64007  Biso   1.000  C
  C2820    1.0000 0.89158  0.53581  0.14007  Biso   1.000  C
  C2821    1.0000 0.96419  0.60842  0.85993  Biso   1.000  C
  C2822    1.0000 0.96419  0.14158  0.89007  Biso   1.000  C
  C2823    1.0000 0.28581  0.14158  0.35993  Biso   1.000  C
  C2824    1.0000 0.28581  0.60842  0.39007  Biso   1.000  C
  C2825    1.0000 0.03581  0.10993  0.85842  Biso   1.000  C
  C2826    1.0000 0.71419  0.60993  0.39158  Biso   1.000  C
  C2827    1.0000 0.71419  0.64007  0.85842  Biso   1.000  C
  C2828    1.0000 0.03581  0.14007  0.39158  Biso   1.000  C
  C2829    1.0000 0.39007  0.46419  0.14158  Biso   1.000  C
  C2830    1.0000 0.39007  0.78581  0.10842  Biso   1.000  C
  C2831    1.0000 0.35993  0.96419  0.10842  Biso   1.000  C
  C2832    1.0000 0.85993  0.28581  0.64158  Biso   1.000  C
  C2833    1.0000 0.10993  0.35842  0.53581  Biso   1.000  C
  C2834    1.0000 0.10993  0.39158  0.21419  Biso   1.000  C
  C2835    1.0000 0.14007  0.39158  0.03581  Biso   1.000  C
  C2836    1.0000 0.14007  0.35842  0.71419  Biso   1.000  C
  C2837    1.0000 0.14158  0.35993  0.28581  Biso   1.000  C
  C2838    1.0000 0.10842  0.35993  0.96419  Biso   1.000  C
  C2839    1.0000 0.10842  0.39007  0.78581  Biso   1.000  C
  C2840    1.0000 0.14158  0.39007  0.46419  Biso   1.000  C
  C2841    1.0000 0.85842  0.03581  0.10993  Biso   1.000  C
  C2842    1.0000 0.39158  0.71419  0.60993  Biso   1.000  C
  C2843    1.0000 0.85842  0.71419  0.64007  Biso   1.000  C
  C2844    1.0000 0.39158  0.03581  0.14007  Biso   1.000  C
  C2845    1.0000 0.46419  0.10842  0.85993  Biso   1.000  C
  C2846    1.0000 0.46419  0.64158  0.89007  Biso   1.000  C
  C2847    1.0000 0.78581  0.64158  0.35993  Biso   1.000  C
  C2848    1.0000 0.78581  0.10842  0.39007  Biso   1.000  C
  C2849    1.0000 0.53581  0.60993  0.85842  Biso   1.000  C
  C2850    1.0000 0.21419  0.10993  0.39158  Biso   1.000  C
  C2851    1.0000 0.21419  0.14007  0.85842  Biso   1.000  C
  C2852    1.0000 0.53581  0.64007  0.39158  Biso   1.000  C
  C2853    1.0000 0.89007  0.96419  0.14158  Biso   1.000  C
  C2854    1.0000 0.89007  0.28581  0.10842  Biso   1.000  C
  C2855    1.0000 0.85993  0.46419  0.10842  Biso   1.000  C
  C2856    1.0000 0.35993  0.78581  0.64158  Biso   1.000  C
  C2857    1.0000 0.10993  0.85842  0.03581  Biso   1.000  C
  C2858    1.0000 0.10993  0.89158  0.71419  Biso   1.000  C
  C2859    1.0000 0.14007  0.89158  0.53581  Biso   1.000  C
  C2860    1.0000 0.14007  0.85842  0.21419  Biso   1.000  C
  C2861    1.0000 0.14158  0.85993  0.78581  Biso   1.000  C
  C2862    1.0000 0.10842  0.85993  0.46419  Biso   1.000  C
  C2863    1.0000 0.10842  0.89007  0.28581  Biso   1.000  C
  C2864    1.0000 0.14158  0.89007  0.96419  Biso   1.000  C
  C2865    1.0000 0.85842  0.53581  0.60993  Biso   1.000  C
  C2866    1.0000 0.39158  0.21419  0.10993  Biso   1.000  C
  C2867    1.0000 0.85842  0.21419  0.14007  Biso   1.000  C
  C2868    1.0000 0.39158  0.53581  0.64007  Biso   1.000  C
  C2869    1.0000 0.46419  0.60842  0.35993  Biso   1.000  C
  C2870    1.0000 0.46419  0.14158  0.39007  Biso   1.000  C
  C2871    1.0000 0.78581  0.14158  0.85993  Biso   1.000  C
  C2872    1.0000 0.78581  0.60842  0.89007  Biso   1.000  C
  C2873    1.0000 0.53581  0.10993  0.35842  Biso   1.000  C
  C2874    1.0000 0.21419  0.60993  0.89158  Biso   1.000  C
  C2875    1.0000 0.21419  0.64007  0.35842  Biso   1.000  C
  C2876    1.0000 0.53581  0.14007  0.89158  Biso   1.000  C
  C2877    1.0000 0.89007  0.46419  0.64158  Biso   1.000  C
  C2878    1.0000 0.89007  0.78581  0.60842  Biso   1.000  C
  C2879    1.0000 0.85993  0.96419  0.60842  Biso   1.000  C
  C2880    1.0000 0.35993  0.28581  0.14158  Biso   1.000  C
  C2881    1.0000 0.40000  0.65755  0.96625  Biso   1.000  C
  C2882    1.0000 0.40000  0.59245  0.28375  Biso   1.000  C
  C2883    1.0000 0.35000  0.59245  0.46625  Biso   1.000  C
  C2884    1.0000 0.35000  0.65755  0.78375  Biso   1.000  C
  C2885    1.0000 0.34245  0.65000  0.21625  Biso   1.000  C
  C2886    1.0000 0.40755  0.65000  0.53375  Biso   1.000  C
  C2887    1.0000 0.40755  0.60000  0.71625  Biso   1.000  C
  C2888    1.0000 0.34245  0.60000  0.03375  Biso   1.000  C
  C2889    1.0000 0.65755  0.96625  0.40000  Biso   1.000  C
  C2890    1.0000 0.09245  0.28375  0.90000  Biso   1.000  C
  C2891    1.0000 0.65755  0.28375  0.85000  Biso   1.000  C
  C2892    1.0000 0.09245  0.96625  0.35000  Biso   1.000  C
  C2893    1.0000 0.03375  0.90755  0.65000  Biso   1.000  C
  C2894    1.0000 0.03375  0.34245  0.60000  Biso   1.000  C
  C2895    1.0000 0.71625  0.34245  0.15000  Biso   1.000  C
  C2896    1.0000 0.71625  0.90755  0.10000  Biso   1.000  C
  C2897    1.0000 0.96625  0.40000  0.65755  Biso   1.000  C
  C2898    1.0000 0.28375  0.90000  0.09245  Biso   1.000  C
  C2899    1.0000 0.28375  0.85000  0.65755  Biso   1.000  C
  C2900    1.0000 0.96625  0.35000  0.09245  Biso   1.000  C
  C2901    1.0000 0.60000  0.03375  0.34245  Biso   1.000  C
  C2902    1.0000 0.60000  0.71625  0.40755  Biso   1.000  C
  C2903    1.0000 0.65000  0.53375  0.40755  Biso   1.000  C
  C2904    1.0000 0.15000  0.21625  0.84245  Biso   1.000  C
  C2905    1.0000 0.40000  0.15755  0.46625  Biso   1.000  C
  C2906    1.0000 0.40000  0.09245  0.78375  Biso   1.000  C
  C2907    1.0000 0.35000  0.09245  0.96625  Biso   1.000  C
  C2908    1.0000 0.35000  0.15755  0.28375  Biso   1.000  C
  C2909    1.0000 0.34245  0.15000  0.71625  Biso   1.000  C
  C2910    1.0000 0.40755  0.15000  0.03375  Biso   1.000  C
  C2911    1.0000 0.40755  0.10000  0.21625  Biso   1.000  C
  C2912    1.0000 0.34245  0.10000  0.53375  Biso   1.000  C
  C2913    1.0000 0.65755  0.46625  0.90000  Biso   1.000  C
  C2914    1.0000 0.09245  0.78375  0.40000  Biso   1.000  C
  C2915    1.0000 0.65755  0.78375  0.35000  Biso   1.000  C
  C2916    1.0000 0.09245  0.46625  0.85000  Biso   1.000  C
  C2917    1.0000 0.03375  0.40755  0.15000  Biso   1.000  C
  C2918    1.0000 0.03375  0.84245  0.10000  Biso   1.000  C
  C2919    1.0000 0.71625  0.84245  0.65000  Biso   1.000  C
  C2920    1.0000 0.71625  0.40755  0.60000  Biso   1.000  C
  C2921    1.0000 0.96625  0.90000  0.15755  Biso   1.000  C
  C2922    1.0000 0.28375  0.40000  0.59245  Biso   1.000  C
  C2923    1.0000 0.28375  0.35000  0.15755  Biso   1.000  C
  C2924    1.0000 0.96625  0.85000  0.59245  Biso   1.000  C
  C2925    1.0000 0.60000  0.53375  0.84245  Biso   1.000  C
  C2926    1.0000 0.60000  0.21625  0.90755  Biso   1.000  C
  C2927    1.0000 0.65000  0.03375  0.90755  Biso   1.000  C
  C2928    1.0000 0.15000  0.71625  0.34245  Biso   1.000  C
  C2929    1.0000 0.90000  0.65755  0.46625  Biso   1.000  C
  C2930    1.0000 0.90000  0.59245  0.78375  Biso   1.000  C
  C2931    1.0000 0.85000  0.59245  0.96625  Biso   1.000  C
  C2932    1.0000 0.85000  0.65755  0.28375  Biso   1.000  C
  C2933    1.0000 0.84245  0.65000  0.71625  Biso   1.000  C
  C2934    1.0000 0.90755  0.65000  0.03375  Biso   1.000  C
  C2935    1.0000 0.90755  0.60000  0.21625  Biso   1.000  C
  C2936    1.0000 0.84245  0.60000  0.53375  Biso   1.000  C
  C2937    1.0000 0.15755  0.96625  0.90000  Biso   1.000  C
  C2938    1.0000 0.59245  0.28375  0.40000  Biso   1.000  C
  C2939    1.0000 0.15755  0.28375  0.35000  Biso   1.000  C
  C2940    1.0000 0.59245  0.96625  0.85000  Biso   1.000  C
  C2941    1.0000 0.53375  0.90755  0.15000  Biso   1.000  C
  C2942    1.0000 0.53375  0.34245  0.10000  Biso   1.000  C
  C2943    1.0000 0.21625  0.34245  0.65000  Biso   1.000  C
  C2944    1.0000 0.21625  0.90755  0.60000  Biso   1.000  C
  C2945    1.0000 0.46625  0.40000  0.15755  Biso   1.000  C
  C2946    1.0000 0.78375  0.90000  0.59245  Biso   1.000  C
  C2947    1.0000 0.78375  0.85000  0.15755  Biso   1.000  C
  C2948    1.0000 0.46625  0.35000  0.59245  Biso   1.000  C
  C2949    1.0000 0.10000  0.03375  0.84245  Biso   1.000  C
  C2950    1.0000 0.10000  0.71625  0.90755  Biso   1.000  C
  C2951    1.0000 0.15000  0.53375  0.90755  Biso   1.000  C
  C2952    1.0000 0.65000  0.21625  0.34245  Biso   1.000  C
  C2953    1.0000 0.90000  0.15755  0.96625  Biso   1.000  C
  C2954    1.0000 0.90000  0.09245  0.28375  Biso   1.000  C
  C2955    1.0000 0.85000  0.09245  0.46625  Biso   1.000  C
  C2956    1.0000 0.85000  0.15755  0.78375  Biso   1.000  C
  C2957    1.0000 0.84245  0.15000  0.21625  Biso   1.000  C
  C2958    1.0000 0.90755  0.15000  0.53375  Biso   1.000  C
  C2959    1.0000 0.90755  0.10000  0.71625  Biso   1.000  C
  C2960    1.0000 0.84245  0.10000  0.03375  Biso   1.000  C
  C2961    1.0000 0.15755  0.46625  0.40000  Biso   1.000  C
  C2962    1.0000 0.59245  0.78375  0.90000  Biso   1.000  C
  C2963    1.0000 0.15755  0.78375  0.85000  Biso   1.000  C
  C2964    1.0000 0.59245  0.46625  0.35000  Biso   1.000  C
  C2965    1.0000 0.53375  0.40755  0.65000  Biso   1.000  C
  C2966    1.0000 0.53375  0.84245  0.60000  Biso   1.000  C
  C2967    1.0000 0.21625  0.84245  0.15000  Biso   1.000  C
  C2968    1.0000 0.21625  0.40755  0.10000  Biso   1.000  C
  C2969    1.0000 0.46625  0.90000  0.65755  Biso   1.000  C
  C2970    1.0000 0.78375  0.40000  0.09245  Biso   1.000  C
  C2971    1.0000 0.78375  0.35000  0.65755  Biso   1.000  C
  C2972    1.0000 0.46625  0.85000  0.09245  Biso   1.000  C
  C2973    1.0000 0.10000  0.53375  0.34245  Biso   1.000  C
  C2974    1.0000 0.10000  0.21625  0.40755  Biso   1.000  C
  C2975    1.0000 0.15000  0.03375  0.40755  Biso   1.000  C
  C2976    1.0000 0.65000  0.71625  0.84245  Biso   1.000  C
  C2977    1.0000 0.60000  0.34245  0.03375  Biso   1.000  C
  C2978    1.0000 0.60000  0.40755  0.71625  Biso   1.000  C
  C2979    1.0000 0.65000  0.40755  0.53375  Biso   1.000  C
  C2980    1.0000 0.65000  0.34245  0.21625  Biso   1.000  C
  C2981    1.0000 0.65755  0.35000  0.78375  Biso   1.000  C
  C2982    1.0000 0.59245  0.35000  0.46625  Biso   1.000  C
  C2983    1.0000 0.59245  0.40000  0.28375  Biso   1.000  C
  C2984    1.0000 0.65755  0.40000  0.96625  Biso   1.000  C
  C2985    1.0000 0.34245  0.03375  0.60000  Biso   1.000  C
  C2986    1.0000 0.90755  0.71625  0.10000  Biso   1.000  C
  C2987    1.0000 0.34245  0.71625  0.15000  Biso   1.000  C
  C2988    1.0000 0.90755  0.03375  0.65000  Biso   1.000  C
  C2989    1.0000 0.96625  0.09245  0.35000  Biso   1.000  C
  C2990    1.0000 0.96625  0.65755  0.40000  Biso   1.000  C
  C2991    1.0000 0.28375  0.65755  0.85000  Biso   1.000  C
  C2992    1.0000 0.28375  0.09245  0.90000  Biso   1.000  C
  C2993    1.0000 0.03375  0.60000  0.34245  Biso   1.000  C
  C2994    1.0000 0.71625  0.10000  0.90755  Biso   1.000  C
  C2995    1.0000 0.71625  0.15000  0.34245  Biso   1.000  C
  C2996    1.0000 0.03375  0.65000  0.90755  Biso   1.000  C
  C2997    1.0000 0.40000  0.96625  0.65755  Biso   1.000  C
  C2998    1.0000 0.40000  0.28375  0.59245  Biso   1.000  C
  C2999    1.0000 0.35000  0.46625  0.59245  Biso   1.000  C
  C3000    1.0000 0.85000  0.78375  0.15755  Biso   1.000  C
  C3001    1.0000 0.60000  0.84245  0.53375  Biso   1.000  C
  C3002    1.0000 0.60000  0.90755  0.21625  Biso   1.000  C
  C3003    1.0000 0.65000  0.90755  0.03375  Biso   1.000  C
  C3004    1.0000 0.65000  0.84245  0.71625  Biso   1.000  C
  C3005    1.0000 0.65755  0.85000  0.28375  Biso   1.000  C
  C3006    1.0000 0.59245  0.85000  0.96625  Biso   1.000  C
  C3007    1.0000 0.59245  0.90000  0.78375  Biso   1.000  C
  C3008    1.0000 0.65755  0.90000  0.46625  Biso   1.000  C
  C3009    1.0000 0.34245  0.53375  0.10000  Biso   1.000  C
  C3010    1.0000 0.90755  0.21625  0.60000  Biso   1.000  C
  C3011    1.0000 0.34245  0.21625  0.65000  Biso   1.000  C
  C3012    1.0000 0.90755  0.53375  0.15000  Biso   1.000  C
  C3013    1.0000 0.96625  0.59245  0.85000  Biso   1.000  C
  C3014    1.0000 0.96625  0.15755  0.90000  Biso   1.000  C
  C3015    1.0000 0.28375  0.15755  0.35000  Biso   1.000  C
  C3016    1.0000 0.28375  0.59245  0.40000  Biso   1.000  C
  C3017    1.0000 0.03375  0.10000  0.84245  Biso   1.000  C
  C3018    1.0000 0.71625  0.60000  0.40755  Biso   1.000  C
  C3019    1.0000 0.71625  0.65000  0.84245  Biso   1.000  C
  C3020    1.0000 0.03375  0.15000  0.40755  Biso   1.000  C
  C3021    1.0000 0.40000  0.46625  0.15755  Biso   1.000  C
  C3022    1.0000 0.40000  0.78375  0.09245  Biso   1.000  C
  C3023    1.0000 0.35000  0.96625  0.09245  Biso   1.000  C
  C3024    1.0000 0.85000  0.28375  0.65755  Biso   1.000  C
  C3025    1.0000 0.10000  0.34245  0.53375  Biso   1.000  C
  C3026    1.0000 0.10000  0.40755  0.21625  Biso   1.000  C
  C3027    1.0000 0.15000  0.40755  0.03375  Biso   1.000  C
  C3028    1.0000 0.15000  0.34245  0.71625  Biso   1.000  C
  C3029    1.0000 0.15755  0.35000  0.28375  Biso   1.000  C
  C3030    1.0000 0.09245  0.35000  0.96625  Biso   1.000  C
  C3031    1.0000 0.09245  0.40000  0.78375  Biso   1.000  C
  C3032    1.0000 0.15755  0.40000  0.46625  Biso   1.000  C
  C3033    1.0000 0.84245  0.03375  0.10000  Biso   1.000  C
  C3034    1.0000 0.40755  0.71625  0.60000  Biso   1.000  C
  C3035    1.0000 0.84245  0.71625  0.65000  Biso   1.000  C
  C3036    1.0000 0.40755  0.03375  0.15000  Biso   1.000  C
  C3037    1.0000 0.46625  0.09245  0.85000  Biso   1.000  C
  C3038    1.0000 0.46625  0.65755  0.90000  Biso   1.000  C
  C3039    1.0000 0.78375  0.65755  0.35000  Biso   1.000  C
  C3040    1.0000 0.78375  0.09245  0.40000  Biso   1.000  C
  C3041    1.0000 0.53375  0.60000  0.84245  Biso   1.000  C
  C3042    1.0000 0.21625  0.10000  0.40755  Biso   1.000  C
  C3043    1.0000 0.21625  0.15000  0.84245  Biso   1.000  C
  C3044    1.0000 0.53375  0.65000  0.40755  Biso   1.000  C
  C3045    1.0000 0.90000  0.96625  0.15755  Biso   1.000  C
  C3046    1.0000 0.90000  0.28375  0.09245  Biso   1.000  C
  C3047    1.0000 0.85000  0.46625  0.09245  Biso   1.000  C
  C3048    1.0000 0.35000  0.78375  0.65755  Biso   1.000  C
  C3049    1.0000 0.10000  0.84245  0.03375  Biso   1.000  C
  C3050    1.0000 0.10000  0.90755  0.71625  Biso   1.000  C
  C3051    1.0000 0.15000  0.90755  0.53375  Biso   1.000  C
  C3052    1.0000 0.15000  0.84245  0.21625  Biso   1.000  C
  C3053    1.0000 0.15755  0.85000  0.78375  Biso   1.000  C
  C3054    1.0000 0.09245  0.85000  0.46625  Biso   1.000  C
  C3055    1.0000 0.09245  0.90000  0.28375  Biso   1.000  C
  C3056    1.0000 0.15755  0.90000  0.96625  Biso   1.000  C
  C3057    1.0000 0.84245  0.53375  0.60000  Biso   1.000  C
  C3058    1.0000 0.40755  0.21625  0.10000  Biso   1.000  C
  C3059    1.0000 0.84245  0.21625  0.15000  Biso   1.000  C
  C3060    1.0000 0.40755  0.53375  0.65000  Biso   1.000  C
  C3061    1.0000 0.46625  0.59245  0.35000  Biso   1.000  C
  C3062    1.0000 0.46625  0.15755  0.40000  Biso   1.000  C
  C3063    1.0000 0.78375  0.15755  0.85000  Biso   1.000  C
  C3064    1.0000 0.78375  0.59245  0.90000  Biso   1.000  C
  C3065    1.0000 0.53375  0.10000  0.34245  Biso   1.000  C
  C3066    1.0000 0.21625  0.60000  0.90755  Biso   1.000  C
  C3067    1.0000 0.21625  0.65000  0.34245  Biso   1.000  C
  C3068    1.0000 0.53375  0.15000  0.90755  Biso   1.000  C
  C3069    1.0000 0.90000  0.46625  0.65755  Biso   1.000  C
  C3070    1.0000 0.90000  0.78375  0.59245  Biso   1.000  C
  C3071    1.0000 0.85000  0.96625  0.59245  Biso   1.000  C
  C3072    1.0000 0.35000  0.28375  0.15755  Biso   1.000  C
  H961     1.0000 0.40660  0.66000  0.97750  Biso   1.000  H
  H962     1.0000 0.40660  0.59000  0.27250  Biso   1.000  H
  H963     1.0000 0.34340  0.59000  0.47750  Biso   1.000  H
  H964     1.0000 0.34340  0.66000  0.77250  Biso   1.000  H
  H965     1.0000 0.34000  0.65660  0.22750  Biso   1.000  H
  H966     1.0000 0.41000  0.65660  0.52250  Biso   1.000  H
  H967     1.0000 0.41000  0.59340  0.72750  Biso   1.000  H
  H968     1.0000 0.34000  0.59340  0.02250  Biso   1.000  H
  H969     1.0000 0.66000  0.97750  0.40660  Biso   1.000  H
  H970     1.0000 0.09000  0.27250  0.90660  Biso   1.000  H
  H971     1.0000 0.66000  0.27250  0.84340  Biso   1.000  H
  H972     1.0000 0.09000  0.97750  0.34340  Biso   1.000  H
  H973     1.0000 0.02250  0.91000  0.65660  Biso   1.000  H
  H974     1.0000 0.02250  0.34000  0.59340  Biso   1.000  H
  H975     1.0000 0.72750  0.34000  0.15660  Biso   1.000  H
  H976     1.0000 0.72750  0.91000  0.09340  Biso   1.000  H
  H977     1.0000 0.97750  0.40660  0.66000  Biso   1.000  H
  H978     1.0000 0.27250  0.90660  0.09000  Biso   1.000  H
  H979     1.0000 0.27250  0.84340  0.66000  Biso   1.000  H
  H980     1.0000 0.97750  0.34340  0.09000  Biso   1.000  H
  H981     1.0000 0.59340  0.02250  0.34000  Biso   1.000  H
  H982     1.0000 0.59340  0.72750  0.41000  Biso   1.000  H
  H983     1.0000 0.65660  0.52250  0.41000  Biso   1.000  H
  H984     1.0000 0.15660  0.22750  0.84000  Biso   1.000  H
  H985     1.0000 0.40660  0.16000  0.47750  Biso   1.000  H
  H986     1.0000 0.40660  0.09000  0.77250  Biso   1.000  H
  H987     1.0000 0.34340  0.09000  0.97750  Biso   1.000  H
  H988     1.0000 0.34340  0.16000  0.27250  Biso   1.000  H
  H989     1.0000 0.34000  0.15660  0.72750  Biso   1.000  H
  H990     1.0000 0.41000  0.15660  0.02250  Biso   1.000  H
  H991     1.0000 0.41000  0.09340  0.22750  Biso   1.000  H
  H992     1.0000 0.34000  0.09340  0.52250  Biso   1.000  H
  H993     1.0000 0.66000  0.47750  0.90660  Biso   1.000  H
  H994     1.0000 0.09000  0.77250  0.40660  Biso   1.000  H
  H995     1.0000 0.66000  0.77250  0.34340  Biso   1.000  H
  H996     1.0000 0.09000  0.47750  0.84340  Biso   1.000  H
  H997     1.0000 0.02250  0.41000  0.15660  Biso   1.000  H
  H998     1.0000 0.02250  0.84000  0.09340  Biso   1.000  H
  H999     1.0000 0.72750  0.84000  0.65660  Biso   1.000  H
  H1000    1.0000 0.72750  0.41000  0.59340  Biso   1.000  H
  H1001    1.0000 0.97750  0.90660  0.16000  Biso   1.000  H
  H1002    1.0000 0.27250  0.40660  0.59000  Biso   1.000  H
  H1003    1.0000 0.27250  0.34340  0.16000  Biso   1.000  H
  H1004    1.0000 0.97750  0.84340  0.59000  Biso   1.000  H
  H1005    1.0000 0.59340  0.52250  0.84000  Biso   1.000  H
  H1006    1.0000 0.59340  0.22750  0.91000  Biso   1.000  H
  H1007    1.0000 0.65660  0.02250  0.91000  Biso   1.000  H
  H1008    1.0000 0.15660  0.72750  0.34000  Biso   1.000  H
  H1009    1.0000 0.90660  0.66000  0.47750  Biso   1.000  H
  H1010    1.0000 0.90660  0.59000  0.77250  Biso   1.000  H
  H1011    1.0000 0.84340  0.59000  0.97750  Biso   1.000  H
  H1012    1.0000 0.84340  0.66000  0.27250  Biso   1.000  H
  H1013    1.0000 0.84000  0.65660  0.72750  Biso   1.000  H
  H1014    1.0000 0.91000  0.65660  0.02250  Biso   1.000  H
  H1015    1.0000 0.91000  0.59340  0.22750  Biso   1.000  H
  H1016    1.0000 0.84000  0.59340  0.52250  Biso   1.000  H
  H1017    1.0000 0.16000  0.97750  0.90660  Biso   1.000  H
  H1018    1.0000 0.59000  0.27250  0.40660  Biso   1.000  H
  H1019    1.0000 0.16000  0.27250  0.34340  Biso   1.000  H
  H1020    1.0000 0.59000  0.97750  0.84340  Biso   1.000  H
  H1021    1.0000 0.52250  0.91000  0.15660  Biso   1.000  H
  H1022    1.0000 0.52250  0.34000  0.09340  Biso   1.000  H
  H1023    1.0000 0.22750  0.34000  0.65660  Biso   1.000  H
  H1024    1.0000 0.22750  0.91000  0.59340  Biso   1.000  H
  H1025    1.0000 0.47750  0.40660  0.16000  Biso   1.000  H
  H1026    1.0000 0.77250  0.90660  0.59000  Biso   1.000  H
  H1027    1.0000 0.77250  0.84340  0.16000  Biso   1.000  H
  H1028    1.0000 0.47750  0.34340  0.59000  Biso   1.000  H
  H1029    1.0000 0.09340  0.02250  0.84000  Biso   1.000  H
  H1030    1.0000 0.09340  0.72750  0.91000  Biso   1.000  H
  H1031    1.0000 0.15660  0.52250  0.91000  Biso   1.000  H
  H1032    1.0000 0.65660  0.22750  0.34000  Biso   1.000  H
  H1033    1.0000 0.90660  0.16000  0.97750  Biso   1.000  H
  H1034    1.0000 0.90660  0.09000  0.27250  Biso   1.000  H
  H1035    1.0000 0.84340  0.09000  0.47750  Biso   1.000  H
  H1036    1.0000 0.84340  0.16000  0.77250  Biso   1.000  H
  H1037    1.0000 0.84000  0.15660  0.22750  Biso   1.000  H
  H1038    1.0000 0.91000  0.15660  0.52250  Biso   1.000  H
  H1039    1.0000 0.91000  0.09340  0.72750  Biso   1.000  H
  H1040    1.0000 0.84000  0.09340  0.02250  Biso   1.000  H
  H1041    1.0000 0.16000  0.47750  0.40660  Biso   1.000  H
  H1042    1.0000 0.59000  0.77250  0.90660  Biso   1.000  H
  H1043    1.0000 0.16000  0.77250  0.84340  Biso   1.000  H
  H1044    1.0000 0.59000  0.47750  0.34340  Biso   1.000  H
  H1045    1.0000 0.52250  0.41000  0.65660  Biso   1.000  H
  H1046    1.0000 0.52250  0.84000  0.59340  Biso   1.000  H
  H1047    1.0000 0.22750  0.84000  0.15660  Biso   1.000  H
  H1048    1.0000 0.22750  0.41000  0.09340  Biso   1.000  H
  H1049    1.0000 0.47750  0.90660  0.66000  Biso   1.000  H
  H1050    1.0000 0.77250  0.40660  0.09000  Biso   1.000  H
  H1051    1.0000 0.77250  0.34340  0.66000  Biso   1.000  H
  H1052    1.0000 0.47750  0.84340  0.09000  Biso   1.000  H
  H1053    1.0000 0.09340  0.52250  0.34000  Biso   1.000  H
  H1054    1.0000 0.09340  0.22750  0.41000  Biso   1.000  H
  H1055    1.0000 0.15660  0.02250  0.41000  Biso   1.000  H
  H1056    1.0000 0.65660  0.72750  0.84000  Biso   1.000  H
  H1057    1.0000 0.59340  0.34000  0.02250  Biso   1.000  H
  H1058    1.0000 0.59340  0.41000  0.72750  Biso   1.000  H
  H1059    1.0000 0.65660  0.41000  0.52250  Biso   1.000  H
  H1060    1.0000 0.65660  0.34000  0.22750  Biso   1.000  H
  H1061    1.0000 0.66000  0.34340  0.77250  Biso   1.000  H
  H1062    1.0000 0.59000  0.34340  0.47750  Biso   1.000  H
  H1063    1.0000 0.59000  0.40660  0.27250  Biso   1.000  H
  H1064    1.0000 0.66000  0.40660  0.97750  Biso   1.000  H
  H1065    1.0000 0.34000  0.02250  0.59340  Biso   1.000  H
  H1066    1.0000 0.91000  0.72750  0.09340  Biso   1.000  H
  H1067    1.0000 0.34000  0.72750  0.15660  Biso   1.000  H
  H1068    1.0000 0.91000  0.02250  0.65660  Biso   1.000  H
  H1069    1.0000 0.97750  0.09000  0.34340  Biso   1.000  H
  H1070    1.0000 0.97750  0.66000  0.40660  Biso   1.000  H
  H1071    1.0000 0.27250  0.66000  0.84340  Biso   1.000  H
  H1072    1.0000 0.27250  0.09000  0.90660  Biso   1.000  H
  H1073    1.0000 0.02250  0.59340  0.34000  Biso   1.000  H
  H1074    1.0000 0.72750  0.09340  0.91000  Biso   1.000  H
  H1075    1.0000 0.72750  0.15660  0.34000  Biso   1.000  H
  H1076    1.0000 0.02250  0.65660  0.91000  Biso   1.000  H
  H1077    1.0000 0.40660  0.97750  0.66000  Biso   1.000  H
  H1078    1.0000 0.40660  0.27250  0.59000  Biso   1.000  H
  H1079    1.0000 0.34340  0.47750  0.59000  Biso   1.000  H
  H1080    1.0000 0.84340  0.77250  0.16000  Biso   1.000  H
  H1081    1.0000 0.59340  0.84000  0.52250  Biso   1.000  H
  H1082    1.0000 0.59340  0.91000  0.22750  Biso   1.000  H
  H1083    1.0000 0.65660  0.91000  0.02250  Biso   1.000  H
  H1084    1.0000 0.65660  0.84000  0.72750  Biso   1.000  H
  H1085    1.0000 0.66000  0.84340  0.27250  Biso   1.000  H
  H1086    1.0000 0.59000  0.84340  0.97750  Biso   1.000  H
  H1087    1.0000 0.59000  0.90660  0.77250  Biso   1.000  H
  H1088    1.0000 0.66000  0.90660  0.47750  Biso   1.000  H
  H1089    1.0000 0.34000  0.52250  0.09340  Biso   1.000  H
  H1090    1.0000 0.91000  0.22750  0.59340  Biso   1.000  H
  H1091    1.0000 0.34000  0.22750  0.65660  Biso   1.000  H
  H1092    1.0000 0.91000  0.52250  0.15660  Biso   1.000  H
  H1093    1.0000 0.97750  0.59000  0.84340  Biso   1.000  H
  H1094    1.0000 0.97750  0.16000  0.90660  Biso   1.000  H
  H1095    1.0000 0.27250  0.16000  0.34340  Biso   1.000  H
  H1096    1.0000 0.27250  0.59000  0.40660  Biso   1.000  H
  H1097    1.0000 0.02250  0.09340  0.84000  Biso   1.000  H
  H1098    1.0000 0.72750  0.59340  0.41000  Biso   1.000  H
  H1099    1.0000 0.72750  0.65660  0.84000  Biso   1.000  H
  H1100    1.0000 0.02250  0.15660  0.41000  Biso   1.000  H
  H1101    1.0000 0.40660  0.47750  0.16000  Biso   1.000  H
  H1102    1.0000 0.40660  0.77250  0.09000  Biso   1.000  H
  H1103    1.0000 0.34340  0.97750  0.09000  Biso   1.000  H
  H1104    1.0000 0.84340  0.27250  0.66000  Biso   1.000  H
  H1105    1.0000 0.09340  0.34000  0.52250  Biso   1.000  H
  H1106    1.0000 0.09340  0.41000  0.22750  Biso   1.000  H
  H1107    1.0000 0.15660  0.41000  0.02250  Biso   1.000  H
  H1108    1.0000 0.15660  0.34000  0.72750  Biso   1.000  H
  H1109    1.0000 0.16000  0.34340  0.27250  Biso   1.000  H
  H1110    1.0000 0.09000  0.34340  0.97750  Biso   1.000  H
  H1111    1.0000 0.09000  0.40660  0.77250  Biso   1.000  H
  H1112    1.0000 0.16000  0.40660  0.47750  Biso   1.000  H
  H1113    1.0000 0.84000  0.02250  0.09340  Biso   1.000  H
  H1114    1.0000 0.41000  0.72750  0.59340  Biso   1.000  H
  H1115    1.0000 0.84000  0.72750  0.65660  Biso   1.000  H
  H1116    1.0000 0.41000  0.02250  0.15660  Biso   1.000  H
  H1117    1.0000 0.47750  0.09000  0.84340  Biso   1.000  H
  H1118    1.0000 0.47750  0.66000  0.90660  Biso   1.000  H
  H1119    1.0000 0.77250  0.66000  0.34340  Biso   1.000  H
  H1120    1.0000 0.77250  0.09000  0.40660  Biso   1.000  H
  H1121    1.0000 0.52250  0.59340  0.84000  Biso   1.000  H
  H1122    1.0000 0.22750  0.09340  0.41000  Biso   1.000  H
  H1123    1.0000 0.22750  0.15660  0.84000  Biso   1.000  H
  H1124    1.0000 0.52250  0.65660  0.41000  Biso   1.000  H
  H1125    1.0000 0.90660  0.97750  0.16000  Biso   1.000  H
  H1126    1.0000 0.90660  0.27250  0.09000  Biso   1.000  H
  H1127    1.0000 0.84340  0.47750  0.09000  Biso   1.000  H
  H1128    1.0000 0.34340  0.77250  0.66000  Biso   1.000  H
  H1129    1.0000 0.09340  0.84000  0.02250  Biso   1.000  H
  H1130    1.0000 0.09340  0.91000  0.72750  Biso   1.000  H
  H1131    1.0000 0.15660  0.91000  0.52250  Biso   1.000  H
  H1132    1.0000 0.15660  0.84000  0.22750  Biso   1.000  H
  H1133    1.0000 0.16000  0.84340  0.77250  Biso   1.000  H
  H1134    1.0000 0.09000  0.84340  0.47750  Biso   1.000  H
  H1135    1.0000 0.09000  0.90660  0.27250  Biso   1.000  H
  H1136    1.0000 0.16000  0.90660  0.97750  Biso   1.000  H
  H1137    1.0000 0.84000  0.52250  0.59340  Biso   1.000  H
  H1138    1.0000 0.41000  0.22750  0.09340  Biso   1.000  H
  H1139    1.0000 0.84000  0.22750  0.15660  Biso   1.000  H
  H1140    1.0000 0.41000  0.52250  0.65660  Biso   1.000  H
  H1141    1.0000 0.47750  0.59000  0.34340  Biso   1.000  H
  H1142    1.0000 0.47750  0.16000  0.40660  Biso   1.000  H
  H1143    1.0000 0.77250  0.16000  0.84340  Biso   1.000  H
  H1144    1.0000 0.77250  0.59000  0.90660  Biso   1.000  H
  H1145    1.0000 0.52250  0.09340  0.34000  Biso   1.000  H
  H1146    1.0000 0.22750  0.59340  0.91000  Biso   1.000  H
  H1147    1.0000 0.22750  0.65660  0.34000  Biso   1.000  H
  H1148    1.0000 0.52250  0.15660  0.91000  Biso   1.000  H
  H1149    1.0000 0.90660  0.47750  0.66000  Biso   1.000  H
  H1150    1.0000 0.90660  0.77250  0.59000  Biso   1.000  H
  H1151    1.0000 0.84340  0.97750  0.59000  Biso   1.000  H
  H1152    1.0000 0.34340  0.27250  0.16000  Biso   1.000  H
  C3073    1.0000 0.27920  0.52109  0.02109  Biso   1.000  C
  C3074    1.0000 0.27920  0.72891  0.22891  Biso   1.000  C
  C3075    1.0000 0.47080  0.72891  0.52109  Biso   1.000  C
  C3076    1.0000 0.47080  0.52109  0.72891  Biso   1.000  C
  C3077    1.0000 0.47891  0.52920  0.27109  Biso   1.000  C
  C3078    1.0000 0.27109  0.52920  0.47891  Biso   1.000  C
  C3079    1.0000 0.27109  0.72080  0.77109  Biso   1.000  C
  C3080    1.0000 0.47891  0.72080  0.97891  Biso   1.000  C
  C3081    1.0000 0.52109  0.02109  0.27920  Biso   1.000  C
  C3082    1.0000 0.22891  0.22891  0.77920  Biso   1.000  C
  C3083    1.0000 0.52109  0.22891  0.97080  Biso   1.000  C
  C3084    1.0000 0.22891  0.02109  0.47080  Biso   1.000  C
  C3085    1.0000 0.97891  0.77109  0.52920  Biso   1.000  C
  C3086    1.0000 0.97891  0.47891  0.72080  Biso   1.000  C
  C3087    1.0000 0.77109  0.47891  0.02920  Biso   1.000  C
  C3088    1.0000 0.77109  0.77109  0.22080  Biso   1.000  C
  C3089    1.0000 0.02109  0.27920  0.52109  Biso   1.000  C
  C3090    1.0000 0.22891  0.77920  0.22891  Biso   1.000  C
  C3091    1.0000 0.22891  0.97080  0.52109  Biso   1.000  C
  C3092    1.0000 0.02109  0.47080  0.22891  Biso   1.000  C
  C3093    1.0000 0.72080  0.97891  0.47891  Biso   1.000  C
  C3094    1.0000 0.72080  0.77109  0.27109  Biso   1.000  C
  C3095    1.0000 0.52920  0.47891  0.27109  Biso   1.000  C
  C3096    1.0000 0.02920  0.27109  0.97891  Biso   1.000  C
  C3097    1.0000 0.27920  0.02109  0.52109  Biso   1.000  C
  C3098    1.0000 0.27920  0.22891  0.72891  Biso   1.000  C
  C3099    1.0000 0.47080  0.22891  0.02109  Biso   1.000  C
  C3100    1.0000 0.47080  0.02109  0.22891  Biso   1.000  C
  C3101    1.0000 0.47891  0.02920  0.77109  Biso   1.000  C
  C3102    1.0000 0.27109  0.02920  0.97891  Biso   1.000  C
  C3103    1.0000 0.27109  0.22080  0.27109  Biso   1.000  C
  C3104    1.0000 0.47891  0.22080  0.47891  Biso   1.000  C
  C3105    1.0000 0.52109  0.52109  0.77920  Biso   1.000  C
  C3106    1.0000 0.22891  0.72891  0.27920  Biso   1.000  C
  C3107    1.0000 0.52109  0.72891  0.47080  Biso   1.000  C
  C3108    1.0000 0.22891  0.52109  0.97080  Biso   1.000  C
  C3109    1.0000 0.97891  0.27109  0.02920  Biso   1.000  C
  C3110    1.0000 0.97891  0.97891  0.22080  Biso   1.000  C
  C3111    1.0000 0.77109  0.97891  0.52920  Biso   1.000  C
  C3112    1.0000 0.77109  0.27109  0.72080  Biso   1.000  C
  C3113    1.0000 0.02109  0.77920  0.02109  Biso   1.000  C
  C3114    1.0000 0.22891  0.27920  0.72891  Biso   1.000  C
  C3115    1.0000 0.22891  0.47080  0.02109  Biso   1.000  C
  C3116    1.0000 0.02109  0.97080  0.72891  Biso   1.000  C
  C3117    1.0000 0.72080  0.47891  0.97891  Biso   1.000  C
  C3118    1.0000 0.72080  0.27109  0.77109  Biso   1.000  C
  C3119    1.0000 0.52920  0.97891  0.77109  Biso   1.000  C
  C3120    1.0000 0.02920  0.77109  0.47891  Biso   1.000  C
  C3121    1.0000 0.77920  0.52109  0.52109  Biso   1.000  C
  C3122    1.0000 0.77920  0.72891  0.72891  Biso   1.000  C
  C3123    1.0000 0.97080  0.72891  0.02109  Biso   1.000  C
  C3124    1.0000 0.97080  0.52109  0.22891  Biso   1.000  C
  C3125    1.0000 0.97891  0.52920  0.77109  Biso   1.000  C
  C3126    1.0000 0.77109  0.52920  0.97891  Biso   1.000  C
  C3127    1.0000 0.77109  0.72080  0.27109  Biso   1.000  C
  C3128    1.0000 0.97891  0.72080  0.47891  Biso   1.000  C
  C3129    1.0000 0.02109  0.02109  0.77920  Biso   1.000  C
  C3130    1.0000 0.72891  0.22891  0.27920  Biso   1.000  C
  C3131    1.0000 0.02109  0.22891  0.47080  Biso   1.000  C
  C3132    1.0000 0.72891  0.02109  0.97080  Biso   1.000  C
  C3133    1.0000 0.47891  0.77109  0.02920  Biso   1.000  C
  C3134    1.0000 0.47891  0.47891  0.22080  Biso   1.000  C
  C3135    1.0000 0.27109  0.47891  0.52920  Biso   1.000  C
  C3136    1.0000 0.27109  0.77109  0.72080  Biso   1.000  C
  C3137    1.0000 0.52109  0.27920  0.02109  Biso   1.000  C
  C3138    1.0000 0.72891  0.77920  0.72891  Biso   1.000  C
  C3139    1.0000 0.72891  0.97080  0.02109  Biso   1.000  C
  C3140    1.0000 0.52109  0.47080  0.72891  Biso   1.000  C
  C3141    1.0000 0.22080  0.97891  0.97891  Biso   1.000  C
  C3142    1.0000 0.22080  0.77109  0.77109  Biso   1.000  C
  C3143    1.0000 0.02920  0.47891  0.77109  Biso   1.000  C
  C3144    1.0000 0.52920  0.27109  0.47891  Biso   1.000  C
  C3145    1.0000 0.77920  0.02109  0.02109  Biso   1.000  C
  C3146    1.0000 0.77920  0.22891  0.22891  Biso   1.000  C
  C3147    1.0000 0.97080  0.22891  0.52109  Biso   1.000  C
  C3148    1.0000 0.97080  0.02109  0.72891  Biso   1.000  C
  C3149    1.0000 0.97891  0.02920  0.27109  Biso   1.000  C
  C3150    1.0000 0.77109  0.02920  0.47891  Biso   1.000  C
  C3151    1.0000 0.77109  0.22080  0.77109  Biso   1.000  C
  C3152    1.0000 0.97891  0.22080  0.97891  Biso   1.000  C
  C3153    1.0000 0.02109  0.52109  0.27920  Biso   1.000  C
  C3154    1.0000 0.72891  0.72891  0.77920  Biso   1.000  C
  C3155    1.0000 0.02109  0.72891  0.97080  Biso   1.000  C
  C3156    1.0000 0.72891  0.52109  0.47080  Biso   1.000  C
  C3157    1.0000 0.47891  0.27109  0.52920  Biso   1.000  C
  C3158    1.0000 0.47891  0.97891  0.72080  Biso   1.000  C
  C3159    1.0000 0.27109  0.97891  0.02920  Biso   1.000  C
  C3160    1.0000 0.27109  0.27109  0.22080  Biso   1.000  C
  C3161    1.0000 0.52109  0.77920  0.52109  Biso   1.000  C
  C3162    1.0000 0.72891  0.27920  0.22891  Biso   1.000  C
  C3163    1.0000 0.72891  0.47080  0.52109  Biso   1.000  C
  C3164    1.0000 0.52109  0.97080  0.22891  Biso   1.000  C
  C3165    1.0000 0.22080  0.47891  0.47891  Biso   1.000  C
  C3166    1.0000 0.22080  0.27109  0.27109  Biso   1.000  C
  C3167    1.0000 0.02920  0.97891  0.27109  Biso   1.000  C
  C3168    1.0000 0.52920  0.77109  0.97891  Biso   1.000  C
  C3169    1.0000 0.26220  0.51136  0.01136  Biso   1.000  C
  C3170    1.0000 0.26220  0.73864  0.23864  Biso   1.000  C
  C3171    1.0000 0.48780  0.73864  0.51136  Biso   1.000  C
  C3172    1.0000 0.48780  0.51136  0.73864  Biso   1.000  C
  C3173    1.0000 0.48864  0.51220  0.26136  Biso   1.000  C
  C3174    1.0000 0.26136  0.51220  0.48864  Biso   1.000  C
  C3175    1.0000 0.26136  0.73780  0.76136  Biso   1.000  C
  C3176    1.0000 0.48864  0.73780  0.98864  Biso   1.000  C
  C3177    1.0000 0.51136  0.01136  0.26220  Biso   1.000  C
  C3178    1.0000 0.23864  0.23864  0.76220  Biso   1.000  C
  C3179    1.0000 0.51136  0.23864  0.98780  Biso   1.000  C
  C3180    1.0000 0.23864  0.01136  0.48780  Biso   1.000  C
  C3181    1.0000 0.98864  0.76136  0.51220  Biso   1.000  C
  C3182    1.0000 0.98864  0.48864  0.73780  Biso   1.000  C
  C3183    1.0000 0.76136  0.48864  0.01220  Biso   1.000  C
  C3184    1.0000 0.76136  0.76136  0.23780  Biso   1.000  C
  C3185    1.0000 0.01136  0.26220  0.51136  Biso   1.000  C
  C3186    1.0000 0.23864  0.76220  0.23864  Biso   1.000  C
  C3187    1.0000 0.23864  0.98780  0.51136  Biso   1.000  C
  C3188    1.0000 0.01136  0.48780  0.23864  Biso   1.000  C
  C3189    1.0000 0.73780  0.98864  0.48864  Biso   1.000  C
  C3190    1.0000 0.73780  0.76136  0.26136  Biso   1.000  C
  C3191    1.0000 0.51220  0.48864  0.26136  Biso   1.000  C
  C3192    1.0000 0.01220  0.26136  0.98864  Biso   1.000  C
  C3193    1.0000 0.26220  0.01136  0.51136  Biso   1.000  C
  C3194    1.0000 0.26220  0.23864  0.73864  Biso   1.000  C
  C3195    1.0000 0.48780  0.23864  0.01136  Biso   1.000  C
  C3196    1.0000 0.48780  0.01136  0.23864  Biso   1.000  C
  C3197    1.0000 0.48864  0.01220  0.76136  Biso   1.000  C
  C3198    1.0000 0.26136  0.01220  0.98864  Biso   1.000  C
  C3199    1.0000 0.26136  0.23780  0.26136  Biso   1.000  C
  C3200    1.0000 0.48864  0.23780  0.48864  Biso   1.000  C
  C3201    1.0000 0.51136  0.51136  0.76220  Biso   1.000  C
  C3202    1.0000 0.23864  0.73864  0.26220  Biso   1.000  C
  C3203    1.0000 0.51136  0.73864  0.48780  Biso   1.000  C
  C3204    1.0000 0.23864  0.51136  0.98780  Biso   1.000  C
  C3205    1.0000 0.98864  0.26136  0.01220  Biso   1.000  C
  C3206    1.0000 0.98864  0.98864  0.23780  Biso   1.000  C
  C3207    1.0000 0.76136  0.98864  0.51220  Biso   1.000  C
  C3208    1.0000 0.76136  0.26136  0.73780  Biso   1.000  C
  C3209    1.0000 0.01136  0.76220  0.01136  Biso   1.000  C
  C3210    1.0000 0.23864  0.26220  0.73864  Biso   1.000  C
  C3211    1.0000 0.23864  0.48780  0.01136  Biso   1.000  C
  C3212    1.0000 0.01136  0.98780  0.73864  Biso   1.000  C
  C3213    1.0000 0.73780  0.48864  0.98864  Biso   1.000  C
  C3214    1.0000 0.73780  0.26136  0.76136  Biso   1.000  C
  C3215    1.0000 0.51220  0.98864  0.76136  Biso   1.000  C
  C3216    1.0000 0.01220  0.76136  0.48864  Biso   1.000  C
  C3217    1.0000 0.76220  0.51136  0.51136  Biso   1.000  C
  C3218    1.0000 0.76220  0.73864  0.73864  Biso   1.000  C
  C3219    1.0000 0.98780  0.73864  0.01136  Biso   1.000  C
  C3220    1.0000 0.98780  0.51136  0.23864  Biso   1.000  C
  C3221    1.0000 0.98864  0.51220  0.76136  Biso   1.000  C
  C3222    1.0000 0.76136  0.51220  0.98864  Biso   1.000  C
  C3223    1.0000 0.76136  0.73780  0.26136  Biso   1.000  C
  C3224    1.0000 0.98864  0.73780  0.48864  Biso   1.000  C
  C3225    1.0000 0.01136  0.01136  0.76220  Biso   1.000  C
  C3226    1.0000 0.73864  0.23864  0.26220  Biso   1.000  C
  C3227    1.0000 0.01136  0.23864  0.48780  Biso   1.000  C
  C3228    1.0000 0.73864  0.01136  0.98780  Biso   1.000  C
  C3229    1.0000 0.48864  0.76136  0.01220  Biso   1.000  C
  C3230    1.0000 0.48864  0.48864  0.23780  Biso   1.000  C
  C3231    1.0000 0.26136  0.48864  0.51220  Biso   1.000  C
  C3232    1.0000 0.26136  0.76136  0.73780  Biso   1.000  C
  C3233    1.0000 0.51136  0.26220  0.01136  Biso   1.000  C
  C3234    1.0000 0.73864  0.76220  0.73864  Biso   1.000  C
  C3235    1.0000 0.73864  0.98780  0.01136  Biso   1.000  C
  C3236    1.0000 0.51136  0.48780  0.73864  Biso   1.000  C
  C3237    1.0000 0.23780  0.98864  0.98864  Biso   1.000  C
  C3238    1.0000 0.23780  0.76136  0.76136  Biso   1.000  C
  C3239    1.0000 0.01220  0.48864  0.76136  Biso   1.000  C
  C3240    1.0000 0.51220  0.26136  0.48864  Biso   1.000  C
  C3241    1.0000 0.76220  0.01136  0.01136  Biso   1.000  C
  C3242    1.0000 0.76220  0.23864  0.23864  Biso   1.000  C
  C3243    1.0000 0.98780  0.23864  0.51136  Biso   1.000  C
  C3244    1.0000 0.98780  0.01136  0.73864  Biso   1.000  C
  C3245    1.0000 0.98864  0.01220  0.26136  Biso   1.000  C
  C3246    1.0000 0.76136  0.01220  0.48864  Biso   1.000  C
  C3247    1.0000 0.76136  0.23780  0.76136  Biso   1.000  C
  C3248    1.0000 0.98864  0.23780  0.98864  Biso   1.000  C
  C3249    1.0000 0.01136  0.51136  0.26220  Biso   1.000  C
  C3250    1.0000 0.73864  0.73864  0.76220  Biso   1.000  C
  C3251    1.0000 0.01136  0.73864  0.98780  Biso   1.000  C
  C3252    1.0000 0.73864  0.51136  0.48780  Biso   1.000  C
  C3253    1.0000 0.48864  0.26136  0.51220  Biso   1.000  C
  C3254    1.0000 0.48864  0.98864  0.73780  Biso   1.000  C
  C3255    1.0000 0.26136  0.98864  0.01220  Biso   1.000  C
  C3256    1.0000 0.26136  0.26136  0.23780  Biso   1.000  C
  C3257    1.0000 0.51136  0.76220  0.51136  Biso   1.000  C
  C3258    1.0000 0.73864  0.26220  0.23864  Biso   1.000  C
  C3259    1.0000 0.73864  0.48780  0.51136  Biso   1.000  C
  C3260    1.0000 0.51136  0.98780  0.23864  Biso   1.000  C
  C3261    1.0000 0.23780  0.48864  0.48864  Biso   1.000  C
  C3262    1.0000 0.23780  0.26136  0.26136  Biso   1.000  C
  C3263    1.0000 0.01220  0.98864  0.26136  Biso   1.000  C
  C3264    1.0000 0.51220  0.76136  0.98864  Biso   1.000  C
  C3265    1.0000 0.25450  0.51910  0.99550  Biso   1.000  C
  C3266    1.0000 0.25450  0.73090  0.25450  Biso   1.000  C
  C3267    1.0000 0.49550  0.73090  0.49550  Biso   1.000  C
  C3268    1.0000 0.49550  0.51910  0.75450  Biso   1.000  C
  C3269    1.0000 0.48090  0.50450  0.24550  Biso   1.000  C
  C3270    1.0000 0.26910  0.50450  0.50450  Biso   1.000  C
  C3271    1.0000 0.26910  0.74550  0.74550  Biso   1.000  C
  C3272    1.0000 0.48090  0.74550  0.00450  Biso   1.000  C
  C3273    1.0000 0.51910  0.99550  0.25450  Biso   1.000  C
  C3274    1.0000 0.23090  0.25450  0.75450  Biso   1.000  C
  C3275    1.0000 0.51910  0.25450  0.99550  Biso   1.000  C
  C3276    1.0000 0.23090  0.99550  0.49550  Biso   1.000  C
  C3277    1.0000 0.00450  0.76910  0.50450  Biso   1.000  C
  C3278    1.0000 0.00450  0.48090  0.74550  Biso   1.000  C
  C3279    1.0000 0.74550  0.48090  0.00450  Biso   1.000  C
  C3280    1.0000 0.74550  0.76910  0.24550  Biso   1.000  C
  C3281    1.0000 0.99550  0.25450  0.51910  Biso   1.000  C
  C3282    1.0000 0.25450  0.75450  0.23090  Biso   1.000  C
  C3283    1.0000 0.25450  0.99550  0.51910  Biso   1.000  C
  C3284    1.0000 0.99550  0.49550  0.23090  Biso   1.000  C
  C3285    1.0000 0.74550  0.00450  0.48090  Biso   1.000  C
  C3286    1.0000 0.74550  0.74550  0.26910  Biso   1.000  C
  C3287    1.0000 0.50450  0.50450  0.26910  Biso   1.000  C
  C3288    1.0000 0.00450  0.24550  0.98090  Biso   1.000  C
  C3289    1.0000 0.25450  0.01910  0.49550  Biso   1.000  C
  C3290    1.0000 0.25450  0.23090  0.75450  Biso   1.000  C
  C3291    1.0000 0.49550  0.23090  0.99550  Biso   1.000  C
  C3292    1.0000 0.49550  0.01910  0.25450  Biso   1.000  C
  C3293    1.0000 0.48090  0.00450  0.74550  Biso   1.000  C
  C3294    1.0000 0.26910  0.00450  0.00450  Biso   1.000  C
  C3295    1.0000 0.26910  0.24550  0.24550  Biso   1.000  C
  C3296    1.0000 0.48090  0.24550  0.50450  Biso   1.000  C
  C3297    1.0000 0.51910  0.49550  0.75450  Biso   1.000  C
  C3298    1.0000 0.23090  0.75450  0.25450  Biso   1.000  C
  C3299    1.0000 0.51910  0.75450  0.49550  Biso   1.000  C
  C3300    1.0000 0.23090  0.49550  0.99550  Biso   1.000  C
  C3301    1.0000 0.00450  0.26910  0.00450  Biso   1.000  C
  C3302    1.0000 0.00450  0.98090  0.24550  Biso   1.000  C
  C3303    1.0000 0.74550  0.98090  0.50450  Biso   1.000  C
  C3304    1.0000 0.74550  0.26910  0.74550  Biso   1.000  C
  C3305    1.0000 0.99550  0.75450  0.01910  Biso   1.000  C
  C3306    1.0000 0.25450  0.25450  0.73090  Biso   1.000  C
  C3307    1.0000 0.25450  0.49550  0.01910  Biso   1.000  C
  C3308    1.0000 0.99550  0.99550  0.73090  Biso   1.000  C
  C3309    1.0000 0.74550  0.50450  0.98090  Biso   1.000  C
  C3310    1.0000 0.74550  0.24550  0.76910  Biso   1.000  C
  C3311    1.0000 0.50450  0.00450  0.76910  Biso   1.000  C
  C3312    1.0000 0.00450  0.74550  0.48090  Biso   1.000  C
  C3313    1.0000 0.75450  0.51910  0.49550  Biso   1.000  C
  C3314    1.0000 0.75450  0.73090  0.75450  Biso   1.000  C
  C3315    1.0000 0.99550  0.73090  0.99550  Biso   1.000  C
  C3316    1.0000 0.99550  0.51910  0.25450  Biso   1.000  C
  C3317    1.0000 0.98090  0.50450  0.74550  Biso   1.000  C
  C3318    1.0000 0.76910  0.50450  0.00450  Biso   1.000  C
  C3319    1.0000 0.76910  0.74550  0.24550  Biso   1.000  C
  C3320    1.0000 0.98090  0.74550  0.50450  Biso   1.000  C
  C3321    1.0000 0.01910  0.99550  0.75450  Biso   1.000  C
  C3322    1.0000 0.73090  0.25450  0.25450  Biso   1.000  C
  C3323    1.0000 0.01910  0.25450  0.49550  Biso   1.000  C
  C3324    1.0000 0.73090  0.99550  0.99550  Biso   1.000  C
  C3325    1.0000 0.50450  0.76910  0.00450  Biso   1.000  C
  C3326    1.0000 0.50450  0.48090  0.24550  Biso   1.000  C
  C3327    1.0000 0.24550  0.48090  0.50450  Biso   1.000  C
  C3328    1.0000 0.24550  0.76910  0.74550  Biso   1.000  C
  C3329    1.0000 0.49550  0.25450  0.01910  Biso   1.000  C
  C3330    1.0000 0.75450  0.75450  0.73090  Biso   1.000  C
  C3331    1.0000 0.75450  0.99550  0.01910  Biso   1.000  C
  C3332    1.0000 0.49550  0.49550  0.73090  Biso   1.000  C
  C3333    1.0000 0.24550  0.00450  0.98090  Biso   1.000  C
  C3334    1.0000 0.24550  0.74550  0.76910  Biso   1.000  C
  C3335    1.0000 0.00450  0.50450  0.76910  Biso   1.000  C
  C3336    1.0000 0.50450  0.24550  0.48090  Biso   1.000  C
  C3337    1.0000 0.75450  0.01910  0.99550  Biso   1.000  C
  C3338    1.0000 0.75450  0.23090  0.25450  Biso   1.000  C
  C3339    1.0000 0.99550  0.23090  0.49550  Biso   1.000  C
  C3340    1.0000 0.99550  0.01910  0.75450  Biso   1.000  C
  C3341    1.0000 0.98090  0.00450  0.24550  Biso   1.000  C
  C3342    1.0000 0.76910  0.00450  0.50450  Biso   1.000  C
  C3343    1.0000 0.76910  0.24550  0.74550  Biso   1.000  C
  C3344    1.0000 0.98090  0.24550  0.00450  Biso   1.000  C
  C3345    1.0000 0.01910  0.49550  0.25450  Biso   1.000  C
  C3346    1.0000 0.73090  0.75450  0.75450  Biso   1.000  C
  C3347    1.0000 0.01910  0.75450  0.99550  Biso   1.000  C
  C3348    1.0000 0.73090  0.49550  0.49550  Biso   1.000  C
  C3349    1.0000 0.50450  0.26910  0.50450  Biso   1.000  C
  C3350    1.0000 0.50450  0.98090  0.74550  Biso   1.000  C
  C3351    1.0000 0.24550  0.98090  0.00450  Biso   1.000  C
  C3352    1.0000 0.24550  0.26910  0.24550  Biso   1.000  C
  C3353    1.0000 0.49550  0.75450  0.51910  Biso   1.000  C
  C3354    1.0000 0.75450  0.25450  0.23090  Biso   1.000  C
  C3355    1.0000 0.75450  0.49550  0.51910  Biso   1.000  C
  C3356    1.0000 0.49550  0.99550  0.23090  Biso   1.000  C
  C3357    1.0000 0.24550  0.50450  0.48090  Biso   1.000  C
  C3358    1.0000 0.24550  0.24550  0.26910  Biso   1.000  C
  C3359    1.0000 0.00450  0.00450  0.26910  Biso   1.000  C
  C3360    1.0000 0.50450  0.74550  0.98090  Biso   1.000  C
  H1153    1.0000 0.26010  0.52970  0.98990  Biso   1.000  H
  H1154    1.0000 0.26010  0.72030  0.26010  Biso   1.000  H
  H1155    1.0000 0.48990  0.72030  0.48990  Biso   1.000  H
  H1156    1.0000 0.48990  0.52970  0.76010  Biso   1.000  H
  H1157    1.0000 0.47030  0.51010  0.23990  Biso   1.000  H
  H1158    1.0000 0.27970  0.51010  0.51010  Biso   1.000  H
  H1159    1.0000 0.27970  0.73990  0.73990  Biso   1.000  H
  H1160    1.0000 0.47030  0.73990  0.01010  Biso   1.000  H
  H1161    1.0000 0.52970  0.98990  0.26010  Biso   1.000  H
  H1162    1.0000 0.22030  0.26010  0.76010  Biso   1.000  H
  H1163    1.0000 0.52970  0.26010  0.98990  Biso   1.000  H
  H1164    1.0000 0.22030  0.98990  0.48990  Biso   1.000  H
  H1165    1.0000 0.01010  0.77970  0.51010  Biso   1.000  H
  H1166    1.0000 0.01010  0.47030  0.73990  Biso   1.000  H
  H1167    1.0000 0.73990  0.47030  0.01010  Biso   1.000  H
  H1168    1.0000 0.73990  0.77970  0.23990  Biso   1.000  H
  H1169    1.0000 0.98990  0.26010  0.52970  Biso   1.000  H
  H1170    1.0000 0.26010  0.76010  0.22030  Biso   1.000  H
  H1171    1.0000 0.26010  0.98990  0.52970  Biso   1.000  H
  H1172    1.0000 0.98990  0.48990  0.22030  Biso   1.000  H
  H1173    1.0000 0.73990  0.01010  0.47030  Biso   1.000  H
  H1174    1.0000 0.73990  0.73990  0.27970  Biso   1.000  H
  H1175    1.0000 0.51010  0.51010  0.27970  Biso   1.000  H
  H1176    1.0000 0.01010  0.23990  0.97030  Biso   1.000  H
  H1177    1.0000 0.26010  0.02970  0.48990  Biso   1.000  H
  H1178    1.0000 0.26010  0.22030  0.76010  Biso   1.000  H
  H1179    1.0000 0.48990  0.22030  0.98990  Biso   1.000  H
  H1180    1.0000 0.48990  0.02970  0.26010  Biso   1.000  H
  H1181    1.0000 0.47030  0.01010  0.73990  Biso   1.000  H
  H1182    1.0000 0.27970  0.01010  0.01010  Biso   1.000  H
  H1183    1.0000 0.27970  0.23990  0.23990  Biso   1.000  H
  H1184    1.0000 0.47030  0.23990  0.51010  Biso   1.000  H
  H1185    1.0000 0.52970  0.48990  0.76010  Biso   1.000  H
  H1186    1.0000 0.22030  0.76010  0.26010  Biso   1.000  H
  H1187    1.0000 0.52970  0.76010  0.48990  Biso   1.000  H
  H1188    1.0000 0.22030  0.48990  0.98990  Biso   1.000  H
  H1189    1.0000 0.01010  0.27970  0.01010  Biso   1.000  H
  H1190    1.0000 0.01010  0.97030  0.23990  Biso   1.000  H
  H1191    1.0000 0.73990  0.97030  0.51010  Biso   1.000  H
  H1192    1.0000 0.73990  0.27970  0.73990  Biso   1.000  H
  H1193    1.0000 0.98990  0.76010  0.02970  Biso   1.000  H
  H1194    1.0000 0.26010  0.26010  0.72030  Biso   1.000  H
  H1195    1.0000 0.26010  0.48990  0.02970  Biso   1.000  H
  H1196    1.0000 0.98990  0.98990  0.72030  Biso   1.000  H
  H1197    1.0000 0.73990  0.51010  0.97030  Biso   1.000  H
  H1198    1.0000 0.73990  0.23990  0.77970  Biso   1.000  H
  H1199    1.0000 0.51010  0.01010  0.77970  Biso   1.000  H
  H1200    1.0000 0.01010  0.73990  0.47030  Biso   1.000  H
  H1201    1.0000 0.76010  0.52970  0.48990  Biso   1.000  H
  H1202    1.0000 0.76010  0.72030  0.76010  Biso   1.000  H
  H1203    1.0000 0.98990  0.72030  0.98990  Biso   1.000  H
  H1204    1.0000 0.98990  0.52970  0.26010  Biso   1.000  H
  H1205    1.0000 0.97030  0.51010  0.73990  Biso   1.000  H
  H1206    1.0000 0.77970  0.51010  0.01010  Biso   1.000  H
  H1207    1.0000 0.77970  0.73990  0.23990  Biso   1.000  H
  H1208    1.0000 0.97030  0.73990  0.51010  Biso   1.000  H
  H1209    1.0000 0.02970  0.98990  0.76010  Biso   1.000  H
  H1210    1.0000 0.72030  0.26010  0.26010  Biso   1.000  H
  H1211    1.0000 0.02970  0.26010  0.48990  Biso   1.000  H
  H1212    1.0000 0.72030  0.98990  0.98990  Biso   1.000  H
  H1213    1.0000 0.51010  0.77970  0.01010  Biso   1.000  H
  H1214    1.0000 0.51010  0.47030  0.23990  Biso   1.000  H
  H1215    1.0000 0.23990  0.47030  0.51010  Biso   1.000  H
  H1216    1.0000 0.23990  0.77970  0.73990  Biso   1.000  H
  H1217    1.0000 0.48990  0.26010  0.02970  Biso   1.000  H
  H1218    1.0000 0.76010  0.76010  0.72030  Biso   1.000  H
  H1219    1.0000 0.76010  0.98990  0.02970  Biso   1.000  H
  H1220    1.0000 0.48990  0.48990  0.72030  Biso   1.000  H
  H1221    1.0000 0.23990  0.01010  0.97030  Biso   1.000  H
  H1222    1.0000 0.23990  0.73990  0.77970  Biso   1.000  H
  H1223    1.0000 0.01010  0.51010  0.77970  Biso   1.000  H
  H1224    1.0000 0.51010  0.23990  0.47030  Biso   1.000  H
  H1225    1.0000 0.76010  0.02970  0.98990  Biso   1.000  H
  H1226    1.0000 0.76010  0.22030  0.26010  Biso   1.000  H
  H1227    1.0000 0.98990  0.22030  0.48990  Biso   1.000  H
  H1228    1.0000 0.98990  0.02970  0.76010  Biso   1.000  H
  H1229    1.0000 0.97030  0.01010  0.23990  Biso   1.000  H
  H1230    1.0000 0.77970  0.01010  0.51010  Biso   1.000  H
  H1231    1.0000 0.77970  0.23990  0.73990  Biso   1.000  H
  H1232    1.0000 0.97030  0.23990  0.01010  Biso   1.000  H
  H1233    1.0000 0.02970  0.48990  0.26010  Biso   1.000  H
  H1234    1.0000 0.72030  0.76010  0.76010  Biso   1.000  H
  H1235    1.0000 0.02970  0.76010  0.98990  Biso   1.000  H
  H1236    1.0000 0.72030  0.48990  0.48990  Biso   1.000  H
  H1237    1.0000 0.51010  0.27970  0.51010  Biso   1.000  H
  H1238    1.0000 0.51010  0.97030  0.73990  Biso   1.000  H
  H1239    1.0000 0.23990  0.97030  0.01010  Biso   1.000  H
  H1240    1.0000 0.23990  0.27970  0.23990  Biso   1.000  H
  H1241    1.0000 0.48990  0.76010  0.52970  Biso   1.000  H
  H1242    1.0000 0.76010  0.26010  0.22030  Biso   1.000  H
  H1243    1.0000 0.76010  0.48990  0.52970  Biso   1.000  H
  H1244    1.0000 0.48990  0.98990  0.22030  Biso   1.000  H
  H1245    1.0000 0.23990  0.51010  0.47030  Biso   1.000  H
  H1246    1.0000 0.23990  0.23990  0.27970  Biso   1.000  H
  H1247    1.0000 0.01010  0.01010  0.27970  Biso   1.000  H
  H1248    1.0000 0.51010  0.73990  0.97030  Biso   1.000  H
  C3361    1.0000 0.26506  0.57536  0.03380  Biso   1.000  C
  C3362    1.0000 0.26506  0.67464  0.21620  Biso   1.000  C
  C3363    1.0000 0.48494  0.67464  0.53380  Biso   1.000  C
  C3364    1.0000 0.48494  0.57536  0.71620  Biso   1.000  C
  C3365    1.0000 0.42464  0.51506  0.28380  Biso   1.000  C
  C3366    1.0000 0.32536  0.51506  0.46620  Biso   1.000  C
  C3367    1.0000 0.32536  0.73494  0.78380  Biso   1.000  C
  C3368    1.0000 0.42464  0.73494  0.96620  Biso   1.000  C
  C3369    1.0000 0.57536  0.03380  0.26506  Biso   1.000  C
  C3370    1.0000 0.17464  0.21620  0.76506  Biso   1.000  C
  C3371    1.0000 0.57536  0.21620  0.98494  Biso   1.000  C
  C3372    1.0000 0.17464  0.03380  0.48494  Biso   1.000  C
  C3373    1.0000 0.96620  0.82536  0.51506  Biso   1.000  C
  C3374    1.0000 0.96620  0.42464  0.73494  Biso   1.000  C
  C3375    1.0000 0.78380  0.42464  0.01506  Biso   1.000  C
  C3376    1.0000 0.78380  0.82536  0.23494  Biso   1.000  C
  C3377    1.0000 0.03380  0.26506  0.57536  Biso   1.000  C
  C3378    1.0000 0.21620  0.76506  0.17464  Biso   1.000  C
  C3379    1.0000 0.21620  0.98494  0.57536  Biso   1.000  C
  C3380    1.0000 0.03380  0.48494  0.17464  Biso   1.000  C
  C3381    1.0000 0.73494  0.96620  0.42464  Biso   1.000  C
  C3382    1.0000 0.73494  0.78380  0.32536  Biso   1.000  C
  C3383    1.0000 0.51506  0.46620  0.32536  Biso   1.000  C
  C3384    1.0000 0.01506  0.28380  0.92464  Biso   1.000  C
  C3385    1.0000 0.26506  0.07536  0.53380  Biso   1.000  C
  C3386    1.0000 0.26506  0.17464  0.71620  Biso   1.000  C
  C3387    1.0000 0.48494  0.17464  0.03380  Biso   1.000  C
  C3388    1.0000 0.48494  0.07536  0.21620  Biso   1.000  C
  C3389    1.0000 0.42464  0.01506  0.78380  Biso   1.000  C
  C3390    1.0000 0.32536  0.01506  0.96620  Biso   1.000  C
  C3391    1.0000 0.32536  0.23494  0.28380  Biso   1.000  C
  C3392    1.0000 0.42464  0.23494  0.46620  Biso   1.000  C
  C3393    1.0000 0.57536  0.53380  0.76506  Biso   1.000  C
  C3394    1.0000 0.17464  0.71620  0.26506  Biso   1.000  C
  C3395    1.0000 0.57536  0.71620  0.48494  Biso   1.000  C
  C3396    1.0000 0.17464  0.53380  0.98494  Biso   1.000  C
  C3397    1.0000 0.96620  0.32536  0.01506  Biso   1.000  C
  C3398    1.0000 0.96620  0.92464  0.23494  Biso   1.000  C
  C3399    1.0000 0.78380  0.92464  0.51506  Biso   1.000  C
  C3400    1.0000 0.78380  0.32536  0.73494  Biso   1.000  C
  C3401    1.0000 0.03380  0.76506  0.07536  Biso   1.000  C
  C3402    1.0000 0.21620  0.26506  0.67464  Biso   1.000  C
  C3403    1.0000 0.21620  0.48494  0.07536  Biso   1.000  C
  C3404    1.0000 0.03380  0.98494  0.67464  Biso   1.000  C
  C3405    1.0000 0.73494  0.46620  0.92464  Biso   1.000  C
  C3406    1.0000 0.73494  0.28380  0.82536  Biso   1.000  C
  C3407    1.0000 0.51506  0.96620  0.82536  Biso   1.000  C
  C3408    1.0000 0.01506  0.78380  0.42464  Biso   1.000  C
  C3409    1.0000 0.76506  0.57536  0.53380  Biso   1.000  C
  C3410    1.0000 0.76506  0.67464  0.71620  Biso   1.000  C
  C3411    1.0000 0.98494  0.67464  0.03380  Biso   1.000  C
  C3412    1.0000 0.98494  0.57536  0.21620  Biso   1.000  C
  C3413    1.0000 0.92464  0.51506  0.78380  Biso   1.000  C
  C3414    1.0000 0.82536  0.51506  0.96620  Biso   1.000  C
  C3415    1.0000 0.82536  0.73494  0.28380  Biso   1.000  C
  C3416    1.0000 0.92464  0.73494  0.46620  Biso   1.000  C
  C3417    1.0000 0.07536  0.03380  0.76506  Biso   1.000  C
  C3418    1.0000 0.67464  0.21620  0.26506  Biso   1.000  C
  C3419    1.0000 0.07536  0.21620  0.48494  Biso   1.000  C
  C3420    1.0000 0.67464  0.03380  0.98494  Biso   1.000  C
  C3421    1.0000 0.46620  0.82536  0.01506  Biso   1.000  C
  C3422    1.0000 0.46620  0.42464  0.23494  Biso   1.000  C
  C3423    1.0000 0.28380  0.42464  0.51506  Biso   1.000  C
  C3424    1.0000 0.28380  0.82536  0.73494  Biso   1.000  C
  C3425    1.0000 0.53380  0.26506  0.07536  Biso   1.000  C
  C3426    1.0000 0.71620  0.76506  0.67464  Biso   1.000  C
  C3427    1.0000 0.71620  0.98494  0.07536  Biso   1.000  C
  C3428    1.0000 0.53380  0.48494  0.67464  Biso   1.000  C
  C3429    1.0000 0.23494  0.96620  0.92464  Biso   1.000  C
  C3430    1.0000 0.23494  0.78380  0.82536  Biso   1.000  C
  C3431    1.0000 0.01506  0.46620  0.82536  Biso   1.000  C
  C3432    1.0000 0.51506  0.28380  0.42464  Biso   1.000  C
  C3433    1.0000 0.76506  0.07536  0.03380  Biso   1.000  C
  C3434    1.0000 0.76506  0.17464  0.21620  Biso   1.000  C
  C3435    1.0000 0.98494  0.17464  0.53380  Biso   1.000  C
  C3436    1.0000 0.98494  0.07536  0.71620  Biso   1.000  C
  C3437    1.0000 0.92464  0.01506  0.28380  Biso   1.000  C
  C3438    1.0000 0.82536  0.01506  0.46620  Biso   1.000  C
  C3439    1.0000 0.82536  0.23494  0.78380  Biso   1.000  C
  C3440    1.0000 0.92464  0.23494  0.96620  Biso   1.000  C
  C3441    1.0000 0.07536  0.53380  0.26506  Biso   1.000  C
  C3442    1.0000 0.67464  0.71620  0.76506  Biso   1.000  C
  C3443    1.0000 0.07536  0.71620  0.98494  Biso   1.000  C
  C3444    1.0000 0.67464  0.53380  0.48494  Biso   1.000  C
  C3445    1.0000 0.46620  0.32536  0.51506  Biso   1.000  C
  C3446    1.0000 0.46620  0.92464  0.73494  Biso   1.000  C
  C3447    1.0000 0.28380  0.92464  0.01506  Biso   1.000  C
  C3448    1.0000 0.28380  0.32536  0.23494  Biso   1.000  C
  C3449    1.0000 0.53380  0.76506  0.57536  Biso   1.000  C
  C3450    1.0000 0.71620  0.26506  0.17464  Biso   1.000  C
  C3451    1.0000 0.71620  0.48494  0.57536  Biso   1.000  C
  C3452    1.0000 0.53380  0.98494  0.17464  Biso   1.000  C
  C3453    1.0000 0.23494  0.46620  0.42464  Biso   1.000  C
  C3454    1.0000 0.23494  0.28380  0.32536  Biso   1.000  C
  C3455    1.0000 0.01506  0.96620  0.32536  Biso   1.000  C
  C3456    1.0000 0.51506  0.78380  0.92464  Biso   1.000  C
  C3457    1.0000 0.73494  0.42464  0.96620  Biso   1.000  C
  C3458    1.0000 0.73494  0.32536  0.78380  Biso   1.000  C
  C3459    1.0000 0.51506  0.32536  0.46620  Biso   1.000  C
  C3460    1.0000 0.51506  0.42464  0.28380  Biso   1.000  C
  C3461    1.0000 0.57536  0.48494  0.71620  Biso   1.000  C
  C3462    1.0000 0.67464  0.48494  0.53380  Biso   1.000  C
  C3463    1.0000 0.67464  0.26506  0.21620  Biso   1.000  C
  C3464    1.0000 0.57536  0.26506  0.03380  Biso   1.000  C
  C3465    1.0000 0.42464  0.96620  0.73494  Biso   1.000  C
  C3466    1.0000 0.82536  0.78380  0.23494  Biso   1.000  C
  C3467    1.0000 0.42464  0.78380  0.01506  Biso   1.000  C
  C3468    1.0000 0.82536  0.96620  0.51506  Biso   1.000  C
  C3469    1.0000 0.03380  0.17464  0.48494  Biso   1.000  C
  C3470    1.0000 0.03380  0.57536  0.26506  Biso   1.000  C
  C3471    1.0000 0.21620  0.57536  0.98494  Biso   1.000  C
  C3472    1.0000 0.21620  0.17464  0.76506  Biso   1.000  C
  C3473    1.0000 0.96620  0.73494  0.42464  Biso   1.000  C
  C3474    1.0000 0.78380  0.23494  0.82536  Biso   1.000  C
  C3475    1.0000 0.78380  0.01506  0.42464  Biso   1.000  C
  C3476    1.0000 0.96620  0.51506  0.82536  Biso   1.000  C
  C3477    1.0000 0.26506  0.03380  0.57536  Biso   1.000  C
  C3478    1.0000 0.26506  0.21620  0.67464  Biso   1.000  C
  C3479    1.0000 0.48494  0.53380  0.67464  Biso   1.000  C
  C3480    1.0000 0.98494  0.71620  0.07536  Biso   1.000  C
  C3481    1.0000 0.73494  0.92464  0.46620  Biso   1.000  C
  C3482    1.0000 0.73494  0.82536  0.28380  Biso   1.000  C
  C3483    1.0000 0.51506  0.82536  0.96620  Biso   1.000  C
  C3484    1.0000 0.51506  0.92464  0.78380  Biso   1.000  C
  C3485    1.0000 0.57536  0.98494  0.21620  Biso   1.000  C
  C3486    1.0000 0.67464  0.98494  0.03380  Biso   1.000  C
  C3487    1.0000 0.67464  0.76506  0.71620  Biso   1.000  C
  C3488    1.0000 0.57536  0.76506  0.53380  Biso   1.000  C
  C3489    1.0000 0.42464  0.46620  0.23494  Biso   1.000  C
  C3490    1.0000 0.82536  0.28380  0.73494  Biso   1.000  C
  C3491    1.0000 0.42464  0.28380  0.51506  Biso   1.000  C
  C3492    1.0000 0.82536  0.46620  0.01506  Biso   1.000  C
  C3493    1.0000 0.03380  0.67464  0.98494  Biso   1.000  C
  C3494    1.0000 0.03380  0.07536  0.76506  Biso   1.000  C
  C3495    1.0000 0.21620  0.07536  0.48494  Biso   1.000  C
  C3496    1.0000 0.21620  0.67464  0.26506  Biso   1.000  C
  C3497    1.0000 0.96620  0.23494  0.92464  Biso   1.000  C
  C3498    1.0000 0.78380  0.73494  0.32536  Biso   1.000  C
  C3499    1.0000 0.78380  0.51506  0.92464  Biso   1.000  C
  C3500    1.0000 0.96620  0.01506  0.32536  Biso   1.000  C
  C3501    1.0000 0.26506  0.53380  0.07536  Biso   1.000  C
  C3502    1.0000 0.26506  0.71620  0.17464  Biso   1.000  C
  C3503    1.0000 0.48494  0.03380  0.17464  Biso   1.000  C
  C3504    1.0000 0.98494  0.21620  0.57536  Biso   1.000  C
  C3505    1.0000 0.23494  0.42464  0.46620  Biso   1.000  C
  C3506    1.0000 0.23494  0.32536  0.28380  Biso   1.000  C
  C3507    1.0000 0.01506  0.32536  0.96620  Biso   1.000  C
  C3508    1.0000 0.01506  0.42464  0.78380  Biso   1.000  C
  C3509    1.0000 0.07536  0.48494  0.21620  Biso   1.000  C
  C3510    1.0000 0.17464  0.48494  0.03380  Biso   1.000  C
  C3511    1.0000 0.17464  0.26506  0.71620  Biso   1.000  C
  C3512    1.0000 0.07536  0.26506  0.53380  Biso   1.000  C
  C3513    1.0000 0.92464  0.96620  0.23494  Biso   1.000  C
  C3514    1.0000 0.32536  0.78380  0.73494  Biso   1.000  C
  C3515    1.0000 0.92464  0.78380  0.51506  Biso   1.000  C
  C3516    1.0000 0.32536  0.96620  0.01506  Biso   1.000  C
  C3517    1.0000 0.53380  0.17464  0.98494  Biso   1.000  C
  C3518    1.0000 0.53380  0.57536  0.76506  Biso   1.000  C
  C3519    1.0000 0.71620  0.57536  0.48494  Biso   1.000  C
  C3520    1.0000 0.71620  0.17464  0.26506  Biso   1.000  C
  C3521    1.0000 0.46620  0.73494  0.92464  Biso   1.000  C
  C3522    1.0000 0.28380  0.23494  0.32536  Biso   1.000  C
  C3523    1.0000 0.28380  0.01506  0.92464  Biso   1.000  C
  C3524    1.0000 0.46620  0.51506  0.32536  Biso   1.000  C
  C3525    1.0000 0.76506  0.03380  0.07536  Biso   1.000  C
  C3526    1.0000 0.76506  0.21620  0.17464  Biso   1.000  C
  C3527    1.0000 0.98494  0.53380  0.17464  Biso   1.000  C
  C3528    1.0000 0.48494  0.71620  0.57536  Biso   1.000  C
  C3529    1.0000 0.23494  0.92464  0.96620  Biso   1.000  C
  C3530    1.0000 0.23494  0.82536  0.78380  Biso   1.000  C
  C3531    1.0000 0.01506  0.82536  0.46620  Biso   1.000  C
  C3532    1.0000 0.01506  0.92464  0.28380  Biso   1.000  C
  C3533    1.0000 0.07536  0.98494  0.71620  Biso   1.000  C
  C3534    1.0000 0.17464  0.98494  0.53380  Biso   1.000  C
  C3535    1.0000 0.17464  0.76506  0.21620  Biso   1.000  C
  C3536    1.0000 0.07536  0.76506  0.03380  Biso   1.000  C
  C3537    1.0000 0.92464  0.46620  0.73494  Biso   1.000  C
  C3538    1.0000 0.32536  0.28380  0.23494  Biso   1.000  C
  C3539    1.0000 0.92464  0.28380  0.01506  Biso   1.000  C
  C3540    1.0000 0.32536  0.46620  0.51506  Biso   1.000  C
  C3541    1.0000 0.53380  0.67464  0.48494  Biso   1.000  C
  C3542    1.0000 0.53380  0.07536  0.26506  Biso   1.000  C
  C3543    1.0000 0.71620  0.07536  0.98494  Biso   1.000  C
  C3544    1.0000 0.71620  0.67464  0.76506  Biso   1.000  C
  C3545    1.0000 0.46620  0.23494  0.42464  Biso   1.000  C
  C3546    1.0000 0.28380  0.73494  0.82536  Biso   1.000  C
  C3547    1.0000 0.28380  0.51506  0.42464  Biso   1.000  C
  C3548    1.0000 0.46620  0.01506  0.82536  Biso   1.000  C
  C3549    1.0000 0.76506  0.53380  0.57536  Biso   1.000  C
  C3550    1.0000 0.76506  0.71620  0.67464  Biso   1.000  C
  C3551    1.0000 0.98494  0.03380  0.67464  Biso   1.000  C
  C3552    1.0000 0.48494  0.21620  0.07536  Biso   1.000  C
  C3553    1.0000 0.24612  0.58014  0.02815  Biso   1.000  C
  C3554    1.0000 0.24612  0.66986  0.22185  Biso   1.000  C
  C3555    1.0000 0.50388  0.66986  0.52815  Biso   1.000  C
  C3556    1.0000 0.50388  0.58014  0.72185  Biso   1.000  C
  C3557    1.0000 0.41986  0.49612  0.27815  Biso   1.000  C
  C3558    1.0000 0.33014  0.49612  0.47185  Biso   1.000  C
  C3559    1.0000 0.33014  0.75388  0.77815  Biso   1.000  C
  C3560    1.0000 0.41986  0.75388  0.97185  Biso   1.000  C
  C3561    1.0000 0.58014  0.02815  0.24612  Biso   1.000  C
  C3562    1.0000 0.16986  0.22185  0.74612  Biso   1.000  C
  C3563    1.0000 0.58014  0.22185  0.00388  Biso   1.000  C
  C3564    1.0000 0.16986  0.02815  0.50388  Biso   1.000  C
  C3565    1.0000 0.97185  0.83014  0.49612  Biso   1.000  C
  C3566    1.0000 0.97185  0.41986  0.75388  Biso   1.000  C
  C3567    1.0000 0.77815  0.41986  0.99612  Biso   1.000  C
  C3568    1.0000 0.77815  0.83014  0.25388  Biso   1.000  C
  C3569    1.0000 0.02815  0.24612  0.58014  Biso   1.000  C
  C3570    1.0000 0.22185  0.74612  0.16986  Biso   1.000  C
  C3571    1.0000 0.22185  0.00388  0.58014  Biso   1.000  C
  C3572    1.0000 0.02815  0.50388  0.16986  Biso   1.000  C
  C3573    1.0000 0.75388  0.97185  0.41986  Biso   1.000  C
  C3574    1.0000 0.75388  0.77815  0.33014  Biso   1.000  C
  C3575    1.0000 0.49612  0.47185  0.33014  Biso   1.000  C
  C3576    1.0000 0.99612  0.27815  0.91986  Biso   1.000  C
  C3577    1.0000 0.24612  0.08014  0.52815  Biso   1.000  C
  C3578    1.0000 0.24612  0.16986  0.72185  Biso   1.000  C
  C3579    1.0000 0.50388  0.16986  0.02815  Biso   1.000  C
  C3580    1.0000 0.50388  0.08014  0.22185  Biso   1.000  C
  C3581    1.0000 0.41986  0.99612  0.77815  Biso   1.000  C
  C3582    1.0000 0.33014  0.99612  0.97185  Biso   1.000  C
  C3583    1.0000 0.33014  0.25388  0.27815  Biso   1.000  C
  C3584    1.0000 0.41986  0.25388  0.47185  Biso   1.000  C
  C3585    1.0000 0.58014  0.52815  0.74612  Biso   1.000  C
  C3586    1.0000 0.16986  0.72185  0.24612  Biso   1.000  C
  C3587    1.0000 0.58014  0.72185  0.50388  Biso   1.000  C
  C3588    1.0000 0.16986  0.52815  0.00388  Biso   1.000  C
  C3589    1.0000 0.97185  0.33014  0.99612  Biso   1.000  C
  C3590    1.0000 0.97185  0.91986  0.25388  Biso   1.000  C
  C3591    1.0000 0.77815  0.91986  0.49612  Biso   1.000  C
  C3592    1.0000 0.77815  0.33014  0.75388  Biso   1.000  C
  C3593    1.0000 0.02815  0.74612  0.08014  Biso   1.000  C
  C3594    1.0000 0.22185  0.24612  0.66986  Biso   1.000  C
  C3595    1.0000 0.22185  0.50388  0.08014  Biso   1.000  C
  C3596    1.0000 0.02815  0.00388  0.66986  Biso   1.000  C
  C3597    1.0000 0.75388  0.47185  0.91986  Biso   1.000  C
  C3598    1.0000 0.75388  0.27815  0.83014  Biso   1.000  C
  C3599    1.0000 0.49612  0.97185  0.83014  Biso   1.000  C
  C3600    1.0000 0.99612  0.77815  0.41986  Biso   1.000  C
  C3601    1.0000 0.74612  0.58014  0.52815  Biso   1.000  C
  C3602    1.0000 0.74612  0.66986  0.72185  Biso   1.000  C
  C3603    1.0000 0.00388  0.66986  0.02815  Biso   1.000  C
  C3604    1.0000 0.00388  0.58014  0.22185  Biso   1.000  C
  C3605    1.0000 0.91986  0.49612  0.77815  Biso   1.000  C
  C3606    1.0000 0.83014  0.49612  0.97185  Biso   1.000  C
  C3607    1.0000 0.83014  0.75388  0.27815  Biso   1.000  C
  C3608    1.0000 0.91986  0.75388  0.47185  Biso   1.000  C
  C3609    1.0000 0.08014  0.02815  0.74612  Biso   1.000  C
  C3610    1.0000 0.66986  0.22185  0.24612  Biso   1.000  C
  C3611    1.0000 0.08014  0.22185  0.50388  Biso   1.000  C
  C3612    1.0000 0.66986  0.02815  0.00388  Biso   1.000  C
  C3613    1.0000 0.47185  0.83014  0.99612  Biso   1.000  C
  C3614    1.0000 0.47185  0.41986  0.25388  Biso   1.000  C
  C3615    1.0000 0.27815  0.41986  0.49612  Biso   1.000  C
  C3616    1.0000 0.27815  0.83014  0.75388  Biso   1.000  C
  C3617    1.0000 0.52815  0.24612  0.08014  Biso   1.000  C
  C3618    1.0000 0.72185  0.74612  0.66986  Biso   1.000  C
  C3619    1.0000 0.72185  0.00388  0.08014  Biso   1.000  C
  C3620    1.0000 0.52815  0.50388  0.66986  Biso   1.000  C
  C3621    1.0000 0.25388  0.97185  0.91986  Biso   1.000  C
  C3622    1.0000 0.25388  0.77815  0.83014  Biso   1.000  C
  C3623    1.0000 0.99612  0.47185  0.83014  Biso   1.000  C
  C3624    1.0000 0.49612  0.27815  0.41986  Biso   1.000  C
  C3625    1.0000 0.74612  0.08014  0.02815  Biso   1.000  C
  C3626    1.0000 0.74612  0.16986  0.22185  Biso   1.000  C
  C3627    1.0000 0.00388  0.16986  0.52815  Biso   1.000  C
  C3628    1.0000 0.00388  0.08014  0.72185  Biso   1.000  C
  C3629    1.0000 0.91986  0.99612  0.27815  Biso   1.000  C
  C3630    1.0000 0.83014  0.99612  0.47185  Biso   1.000  C
  C3631    1.0000 0.83014  0.25388  0.77815  Biso   1.000  C
  C3632    1.0000 0.91986  0.25388  0.97185  Biso   1.000  C
  C3633    1.0000 0.08014  0.52815  0.24612  Biso   1.000  C
  C3634    1.0000 0.66986  0.72185  0.74612  Biso   1.000  C
  C3635    1.0000 0.08014  0.72185  0.00388  Biso   1.000  C
  C3636    1.0000 0.66986  0.52815  0.50388  Biso   1.000  C
  C3637    1.0000 0.47185  0.33014  0.49612  Biso   1.000  C
  C3638    1.0000 0.47185  0.91986  0.75388  Biso   1.000  C
  C3639    1.0000 0.27815  0.91986  0.99612  Biso   1.000  C
  C3640    1.0000 0.27815  0.33014  0.25388  Biso   1.000  C
  C3641    1.0000 0.52815  0.74612  0.58014  Biso   1.000  C
  C3642    1.0000 0.72185  0.24612  0.16986  Biso   1.000  C
  C3643    1.0000 0.72185  0.50388  0.58014  Biso   1.000  C
  C3644    1.0000 0.52815  0.00388  0.16986  Biso   1.000  C
  C3645    1.0000 0.25388  0.47185  0.41986  Biso   1.000  C
  C3646    1.0000 0.25388  0.27815  0.33014  Biso   1.000  C
  C3647    1.0000 0.99612  0.97185  0.33014  Biso   1.000  C
  C3648    1.0000 0.49612  0.77815  0.91986  Biso   1.000  C
  C3649    1.0000 0.75388  0.41986  0.97185  Biso   1.000  C
  C3650    1.0000 0.75388  0.33014  0.77815  Biso   1.000  C
  C3651    1.0000 0.49612  0.33014  0.47185  Biso   1.000  C
  C3652    1.0000 0.49612  0.41986  0.27815  Biso   1.000  C
  C3653    1.0000 0.58014  0.50388  0.72185  Biso   1.000  C
  C3654    1.0000 0.66986  0.50388  0.52815  Biso   1.000  C
  C3655    1.0000 0.66986  0.24612  0.22185  Biso   1.000  C
  C3656    1.0000 0.58014  0.24612  0.02815  Biso   1.000  C
  C3657    1.0000 0.41986  0.97185  0.75388  Biso   1.000  C
  C3658    1.0000 0.83014  0.77815  0.25388  Biso   1.000  C
  C3659    1.0000 0.41986  0.77815  0.99612  Biso   1.000  C
  C3660    1.0000 0.83014  0.97185  0.49612  Biso   1.000  C
  C3661    1.0000 0.02815  0.16986  0.50388  Biso   1.000  C
  C3662    1.0000 0.02815  0.58014  0.24612  Biso   1.000  C
  C3663    1.0000 0.22185  0.58014  0.00388  Biso   1.000  C
  C3664    1.0000 0.22185  0.16986  0.74612  Biso   1.000  C
  C3665    1.0000 0.97185  0.75388  0.41986  Biso   1.000  C
  C3666    1.0000 0.77815  0.25388  0.83014  Biso   1.000  C
  C3667    1.0000 0.77815  0.99612  0.41986  Biso   1.000  C
  C3668    1.0000 0.97185  0.49612  0.83014  Biso   1.000  C
  C3669    1.0000 0.24612  0.02815  0.58014  Biso   1.000  C
  C3670    1.0000 0.24612  0.22185  0.66986  Biso   1.000  C
  C3671    1.0000 0.50388  0.52815  0.66986  Biso   1.000  C
  C3672    1.0000 0.00388  0.72185  0.08014  Biso   1.000  C
  C3673    1.0000 0.75388  0.91986  0.47185  Biso   1.000  C
  C3674    1.0000 0.75388  0.83014  0.27815  Biso   1.000  C
  C3675    1.0000 0.49612  0.83014  0.97185  Biso   1.000  C
  C3676    1.0000 0.49612  0.91986  0.77815  Biso   1.000  C
  C3677    1.0000 0.58014  0.00388  0.22185  Biso   1.000  C
  C3678    1.0000 0.66986  0.00388  0.02815  Biso   1.000  C
  C3679    1.0000 0.66986  0.74612  0.72185  Biso   1.000  C
  C3680    1.0000 0.58014  0.74612  0.52815  Biso   1.000  C
  C3681    1.0000 0.41986  0.47185  0.25388  Biso   1.000  C
  C3682    1.0000 0.83014  0.27815  0.75388  Biso   1.000  C
  C3683    1.0000 0.41986  0.27815  0.49612  Biso   1.000  C
  C3684    1.0000 0.83014  0.47185  0.99612  Biso   1.000  C
  C3685    1.0000 0.02815  0.66986  0.00388  Biso   1.000  C
  C3686    1.0000 0.02815  0.08014  0.74612  Biso   1.000  C
  C3687    1.0000 0.22185  0.08014  0.50388  Biso   1.000  C
  C3688    1.0000 0.22185  0.66986  0.24612  Biso   1.000  C
  C3689    1.0000 0.97185  0.25388  0.91986  Biso   1.000  C
  C3690    1.0000 0.77815  0.75388  0.33014  Biso   1.000  C
  C3691    1.0000 0.77815  0.49612  0.91986  Biso   1.000  C
  C3692    1.0000 0.97185  0.99612  0.33014  Biso   1.000  C
  C3693    1.0000 0.24612  0.52815  0.08014  Biso   1.000  C
  C3694    1.0000 0.24612  0.72185  0.16986  Biso   1.000  C
  C3695    1.0000 0.50388  0.02815  0.16986  Biso   1.000  C
  C3696    1.0000 0.00388  0.22185  0.58014  Biso   1.000  C
  C3697    1.0000 0.25388  0.41986  0.47185  Biso   1.000  C
  C3698    1.0000 0.25388  0.33014  0.27815  Biso   1.000  C
  C3699    1.0000 0.99612  0.33014  0.97185  Biso   1.000  C
  C3700    1.0000 0.99612  0.41986  0.77815  Biso   1.000  C
  C3701    1.0000 0.08014  0.50388  0.22185  Biso   1.000  C
  C3702    1.0000 0.16986  0.50388  0.02815  Biso   1.000  C
  C3703    1.0000 0.16986  0.24612  0.72185  Biso   1.000  C
  C3704    1.0000 0.08014  0.24612  0.52815  Biso   1.000  C
  C3705    1.0000 0.91986  0.97185  0.25388  Biso   1.000  C
  C3706    1.0000 0.33014  0.77815  0.75388  Biso   1.000  C
  C3707    1.0000 0.91986  0.77815  0.49612  Biso   1.000  C
  C3708    1.0000 0.33014  0.97185  0.99612  Biso   1.000  C
  C3709    1.0000 0.52815  0.16986  0.00388  Biso   1.000  C
  C3710    1.0000 0.52815  0.58014  0.74612  Biso   1.000  C
  C3711    1.0000 0.72185  0.58014  0.50388  Biso   1.000  C
  C3712    1.0000 0.72185  0.16986  0.24612  Biso   1.000  C
  C3713    1.0000 0.47185  0.75388  0.91986  Biso   1.000  C
  C3714    1.0000 0.27815  0.25388  0.33014  Biso   1.000  C
  C3715    1.0000 0.27815  0.99612  0.91986  Biso   1.000  C
  C3716    1.0000 0.47185  0.49612  0.33014  Biso   1.000  C
  C3717    1.0000 0.74612  0.02815  0.08014  Biso   1.000  C
  C3718    1.0000 0.74612  0.22185  0.16986  Biso   1.000  C
  C3719    1.0000 0.00388  0.52815  0.16986  Biso   1.000  C
  C3720    1.0000 0.50388  0.72185  0.58014  Biso   1.000  C
  C3721    1.0000 0.25388  0.91986  0.97185  Biso   1.000  C
  C3722    1.0000 0.25388  0.83014  0.77815  Biso   1.000  C
  C3723    1.0000 0.99612  0.83014  0.47185  Biso   1.000  C
  C3724    1.0000 0.99612  0.91986  0.27815  Biso   1.000  C
  C3725    1.0000 0.08014  0.00388  0.72185  Biso   1.000  C
  C3726    1.0000 0.16986  0.00388  0.52815  Biso   1.000  C
  C3727    1.0000 0.16986  0.74612  0.22185  Biso   1.000  C
  C3728    1.0000 0.08014  0.74612  0.02815  Biso   1.000  C
  C3729    1.0000 0.91986  0.47185  0.75388  Biso   1.000  C
  C3730    1.0000 0.33014  0.27815  0.25388  Biso   1.000  C
  C3731    1.0000 0.91986  0.27815  0.99612  Biso   1.000  C
  C3732    1.0000 0.33014  0.47185  0.49612  Biso   1.000  C
  C3733    1.0000 0.52815  0.66986  0.50388  Biso   1.000  C
  C3734    1.0000 0.52815  0.08014  0.24612  Biso   1.000  C
  C3735    1.0000 0.72185  0.08014  0.00388  Biso   1.000  C
  C3736    1.0000 0.72185  0.66986  0.74612  Biso   1.000  C
  C3737    1.0000 0.47185  0.25388  0.41986  Biso   1.000  C
  C3738    1.0000 0.27815  0.75388  0.83014  Biso   1.000  C
  C3739    1.0000 0.27815  0.49612  0.41986  Biso   1.000  C
  C3740    1.0000 0.47185  0.99612  0.83014  Biso   1.000  C
  C3741    1.0000 0.74612  0.52815  0.58014  Biso   1.000  C
  C3742    1.0000 0.74612  0.72185  0.66986  Biso   1.000  C
  C3743    1.0000 0.00388  0.02815  0.66986  Biso   1.000  C
  C3744    1.0000 0.50388  0.22185  0.08014  Biso   1.000  C
  C3745    1.0000 0.24067  0.57770  0.00933  Biso   1.000  C
  C3746    1.0000 0.24067  0.67230  0.24067  Biso   1.000  C
  C3747    1.0000 0.50933  0.67230  0.50933  Biso   1.000  C
  C3748    1.0000 0.50933  0.57770  0.74067  Biso   1.000  C
  C3749    1.0000 0.42230  0.49067  0.25933  Biso   1.000  C
  C3750    1.0000 0.32770  0.49067  0.49067  Biso   1.000  C
  C3751    1.0000 0.32770  0.75933  0.75933  Biso   1.000  C
  C3752    1.0000 0.42230  0.75933  0.99067  Biso   1.000  C
  C3753    1.0000 0.57770  0.00933  0.24067  Biso   1.000  C
  C3754    1.0000 0.17230  0.24067  0.74067  Biso   1.000  C
  C3755    1.0000 0.57770  0.24067  0.00933  Biso   1.000  C
  C3756    1.0000 0.17230  0.00933  0.50933  Biso   1.000  C
  C3757    1.0000 0.99067  0.82770  0.49067  Biso   1.000  C
  C3758    1.0000 0.99067  0.42230  0.75933  Biso   1.000  C
  C3759    1.0000 0.75933  0.42230  0.99067  Biso   1.000  C
  C3760    1.0000 0.75933  0.82770  0.25933  Biso   1.000  C
  C3761    1.0000 0.00933  0.24067  0.57770  Biso   1.000  C
  C3762    1.0000 0.24067  0.74067  0.17230  Biso   1.000  C
  C3763    1.0000 0.24067  0.00933  0.57770  Biso   1.000  C
  C3764    1.0000 0.00933  0.50933  0.17230  Biso   1.000  C
  C3765    1.0000 0.75933  0.99067  0.42230  Biso   1.000  C
  C3766    1.0000 0.75933  0.75933  0.32770  Biso   1.000  C
  C3767    1.0000 0.49067  0.49067  0.32770  Biso   1.000  C
  C3768    1.0000 0.99067  0.25933  0.92230  Biso   1.000  C
  C3769    1.0000 0.24067  0.07770  0.50933  Biso   1.000  C
  C3770    1.0000 0.24067  0.17230  0.74067  Biso   1.000  C
  C3771    1.0000 0.50933  0.17230  0.00933  Biso   1.000  C
  C3772    1.0000 0.50933  0.07770  0.24067  Biso   1.000  C
  C3773    1.0000 0.42230  0.99067  0.75933  Biso   1.000  C
  C3774    1.0000 0.32770  0.99067  0.99067  Biso   1.000  C
  C3775    1.0000 0.32770  0.25933  0.25933  Biso   1.000  C
  C3776    1.0000 0.42230  0.25933  0.49067  Biso   1.000  C
  C3777    1.0000 0.57770  0.50933  0.74067  Biso   1.000  C
  C3778    1.0000 0.17230  0.74067  0.24067  Biso   1.000  C
  C3779    1.0000 0.57770  0.74067  0.50933  Biso   1.000  C
  C3780    1.0000 0.17230  0.50933  0.00933  Biso   1.000  C
  C3781    1.0000 0.99067  0.32770  0.99067  Biso   1.000  C
  C3782    1.0000 0.99067  0.92230  0.25933  Biso   1.000  C
  C3783    1.0000 0.75933  0.92230  0.49067  Biso   1.000  C
  C3784    1.0000 0.75933  0.32770  0.75933  Biso   1.000  C
  C3785    1.0000 0.00933  0.74067  0.07770  Biso   1.000  C
  C3786    1.0000 0.24067  0.24067  0.67230  Biso   1.000  C
  C3787    1.0000 0.24067  0.50933  0.07770  Biso   1.000  C
  C3788    1.0000 0.00933  0.00933  0.67230  Biso   1.000  C
  C3789    1.0000 0.75933  0.49067  0.92230  Biso   1.000  C
  C3790    1.0000 0.75933  0.25933  0.82770  Biso   1.000  C
  C3791    1.0000 0.49067  0.99067  0.82770  Biso   1.000  C
  C3792    1.0000 0.99067  0.75933  0.42230  Biso   1.000  C
  C3793    1.0000 0.74067  0.57770  0.50933  Biso   1.000  C
  C3794    1.0000 0.74067  0.67230  0.74067  Biso   1.000  C
  C3795    1.0000 0.00933  0.67230  0.00933  Biso   1.000  C
  C3796    1.0000 0.00933  0.57770  0.24067  Biso   1.000  C
  C3797    1.0000 0.92230  0.49067  0.75933  Biso   1.000  C
  C3798    1.0000 0.82770  0.49067  0.99067  Biso   1.000  C
  C3799    1.0000 0.82770  0.75933  0.25933  Biso   1.000  C
  C3800    1.0000 0.92230  0.75933  0.49067  Biso   1.000  C
  C3801    1.0000 0.07770  0.00933  0.74067  Biso   1.000  C
  C3802    1.0000 0.67230  0.24067  0.24067  Biso   1.000  C
  C3803    1.0000 0.07770  0.24067  0.50933  Biso   1.000  C
  C3804    1.0000 0.67230  0.00933  0.00933  Biso   1.000  C
  C3805    1.0000 0.49067  0.82770  0.99067  Biso   1.000  C
  C3806    1.0000 0.49067  0.42230  0.25933  Biso   1.000  C
  C3807    1.0000 0.25933  0.42230  0.49067  Biso   1.000  C
  C3808    1.0000 0.25933  0.82770  0.75933  Biso   1.000  C
  C3809    1.0000 0.50933  0.24067  0.07770  Biso   1.000  C
  C3810    1.0000 0.74067  0.74067  0.67230  Biso   1.000  C
  C3811    1.0000 0.74067  0.00933  0.07770  Biso   1.000  C
  C3812    1.0000 0.50933  0.50933  0.67230  Biso   1.000  C
  C3813    1.0000 0.25933  0.99067  0.92230  Biso   1.000  C
  C3814    1.0000 0.25933  0.75933  0.82770  Biso   1.000  C
  C3815    1.0000 0.99067  0.49067  0.82770  Biso   1.000  C
  C3816    1.0000 0.49067  0.25933  0.42230  Biso   1.000  C
  C3817    1.0000 0.74067  0.07770  0.00933  Biso   1.000  C
  C3818    1.0000 0.74067  0.17230  0.24067  Biso   1.000  C
  C3819    1.0000 0.00933  0.17230  0.50933  Biso   1.000  C
  C3820    1.0000 0.00933  0.07770  0.74067  Biso   1.000  C
  C3821    1.0000 0.92230  0.99067  0.25933  Biso   1.000  C
  C3822    1.0000 0.82770  0.99067  0.49067  Biso   1.000  C
  C3823    1.0000 0.82770  0.25933  0.75933  Biso   1.000  C
  C3824    1.0000 0.92230  0.25933  0.99067  Biso   1.000  C
  C3825    1.0000 0.07770  0.50933  0.24067  Biso   1.000  C
  C3826    1.0000 0.67230  0.74067  0.74067  Biso   1.000  C
  C3827    1.0000 0.07770  0.74067  0.00933  Biso   1.000  C
  C3828    1.0000 0.67230  0.50933  0.50933  Biso   1.000  C
  C3829    1.0000 0.49067  0.32770  0.49067  Biso   1.000  C
  C3830    1.0000 0.49067  0.92230  0.75933  Biso   1.000  C
  C3831    1.0000 0.25933  0.92230  0.99067  Biso   1.000  C
  C3832    1.0000 0.25933  0.32770  0.25933  Biso   1.000  C
  C3833    1.0000 0.50933  0.74067  0.57770  Biso   1.000  C
  C3834    1.0000 0.74067  0.24067  0.17230  Biso   1.000  C
  C3835    1.0000 0.74067  0.50933  0.57770  Biso   1.000  C
  C3836    1.0000 0.50933  0.00933  0.17230  Biso   1.000  C
  C3837    1.0000 0.25933  0.49067  0.42230  Biso   1.000  C
  C3838    1.0000 0.25933  0.25933  0.32770  Biso   1.000  C
  C3839    1.0000 0.99067  0.99067  0.32770  Biso   1.000  C
  C3840    1.0000 0.49067  0.75933  0.92230  Biso   1.000  C
  H1249    1.0000 0.24980  0.57450  0.00020  Biso   1.000  H
  H1250    1.0000 0.24980  0.67550  0.24980  Biso   1.000  H
  H1251    1.0000 0.50020  0.67550  0.50020  Biso   1.000  H
  H1252    1.0000 0.50020  0.57450  0.74980  Biso   1.000  H
  H1253    1.0000 0.42550  0.49980  0.25020  Biso   1.000  H
  H1254    1.0000 0.32450  0.49980  0.49980  Biso   1.000  H
  H1255    1.0000 0.32450  0.75020  0.75020  Biso   1.000  H
  H1256    1.0000 0.42550  0.75020  0.99980  Biso   1.000  H
  H1257    1.0000 0.57450  0.00020  0.24980  Biso   1.000  H
  H1258    1.0000 0.17550  0.24980  0.74980  Biso   1.000  H
  H1259    1.0000 0.57450  0.24980  0.00020  Biso   1.000  H
  H1260    1.0000 0.17550  0.00020  0.50020  Biso   1.000  H
  H1261    1.0000 0.99980  0.82450  0.49980  Biso   1.000  H
  H1262    1.0000 0.99980  0.42550  0.75020  Biso   1.000  H
  H1263    1.0000 0.75020  0.42550  0.99980  Biso   1.000  H
  H1264    1.0000 0.75020  0.82450  0.25020  Biso   1.000  H
  H1265    1.0000 0.00020  0.24980  0.57450  Biso   1.000  H
  H1266    1.0000 0.24980  0.74980  0.17550  Biso   1.000  H
  H1267    1.0000 0.24980  0.00020  0.57450  Biso   1.000  H
  H1268    1.0000 0.00020  0.50020  0.17550  Biso   1.000  H
  H1269    1.0000 0.75020  0.99980  0.42550  Biso   1.000  H
  H1270    1.0000 0.75020  0.75020  0.32450  Biso   1.000  H
  H1271    1.0000 0.49980  0.49980  0.32450  Biso   1.000  H
  H1272    1.0000 0.99980  0.25020  0.92550  Biso   1.000  H
  H1273    1.0000 0.24980  0.07450  0.50020  Biso   1.000  H
  H1274    1.0000 0.24980  0.17550  0.74980  Biso   1.000  H
  H1275    1.0000 0.50020  0.17550  0.00020  Biso   1.000  H
  H1276    1.0000 0.50020  0.07450  0.24980  Biso   1.000  H
  H1277    1.0000 0.42550  0.99980  0.75020  Biso   1.000  H
  H1278    1.0000 0.32450  0.99980  0.99980  Biso   1.000  H
  H1279    1.0000 0.32450  0.25020  0.25020  Biso   1.000  H
  H1280    1.0000 0.42550  0.25020  0.49980  Biso   1.000  H
  H1281    1.0000 0.57450  0.50020  0.74980  Biso   1.000  H
  H1282    1.0000 0.17550  0.74980  0.24980  Biso   1.000  H
  H1283    1.0000 0.57450  0.74980  0.50020  Biso   1.000  H
  H1284    1.0000 0.17550  0.50020  0.00020  Biso   1.000  H
  H1285    1.0000 0.99980  0.32450  0.99980  Biso   1.000  H
  H1286    1.0000 0.99980  0.92550  0.25020  Biso   1.000  H
  H1287    1.0000 0.75020  0.92550  0.49980  Biso   1.000  H
  H1288    1.0000 0.75020  0.32450  0.75020  Biso   1.000  H
  H1289    1.0000 0.00020  0.74980  0.07450  Biso   1.000  H
  H1290    1.0000 0.24980  0.24980  0.67550  Biso   1.000  H
  H1291    1.0000 0.24980  0.50020  0.07450  Biso   1.000  H
  H1292    1.0000 0.00020  0.00020  0.67550  Biso   1.000  H
  H1293    1.0000 0.75020  0.49980  0.92550  Biso   1.000  H
  H1294    1.0000 0.75020  0.25020  0.82450  Biso   1.000  H
  H1295    1.0000 0.49980  0.99980  0.82450  Biso   1.000  H
  H1296    1.0000 0.99980  0.75020  0.42550  Biso   1.000  H
  H1297    1.0000 0.74980  0.57450  0.50020  Biso   1.000  H
  H1298    1.0000 0.74980  0.67550  0.74980  Biso   1.000  H
  H1299    1.0000 0.00020  0.67550  0.00020  Biso   1.000  H
  H1300    1.0000 0.00020  0.57450  0.24980  Biso   1.000  H
  H1301    1.0000 0.92550  0.49980  0.75020  Biso   1.000  H
  H1302    1.0000 0.82450  0.49980  0.99980  Biso   1.000  H
  H1303    1.0000 0.82450  0.75020  0.25020  Biso   1.000  H
  H1304    1.0000 0.92550  0.75020  0.49980  Biso   1.000  H
  H1305    1.0000 0.07450  0.00020  0.74980  Biso   1.000  H
  H1306    1.0000 0.67550  0.24980  0.24980  Biso   1.000  H
  H1307    1.0000 0.07450  0.24980  0.50020  Biso   1.000  H
  H1308    1.0000 0.67550  0.00020  0.00020  Biso   1.000  H
  H1309    1.0000 0.49980  0.82450  0.99980  Biso   1.000  H
  H1310    1.0000 0.49980  0.42550  0.25020  Biso   1.000  H
  H1311    1.0000 0.25020  0.42550  0.49980  Biso   1.000  H
  H1312    1.0000 0.25020  0.82450  0.75020  Biso   1.000  H
  H1313    1.0000 0.50020  0.24980  0.07450  Biso   1.000  H
  H1314    1.0000 0.74980  0.74980  0.67550  Biso   1.000  H
  H1315    1.0000 0.74980  0.00020  0.07450  Biso   1.000  H
  H1316    1.0000 0.50020  0.50020  0.67550  Biso   1.000  H
  H1317    1.0000 0.25020  0.99980  0.92550  Biso   1.000  H
  H1318    1.0000 0.25020  0.75020  0.82450  Biso   1.000  H
  H1319    1.0000 0.99980  0.49980  0.82450  Biso   1.000  H
  H1320    1.0000 0.49980  0.25020  0.42550  Biso   1.000  H
  H1321    1.0000 0.74980  0.07450  0.00020  Biso   1.000  H
  H1322    1.0000 0.74980  0.17550  0.24980  Biso   1.000  H
  H1323    1.0000 0.00020  0.17550  0.50020  Biso   1.000  H
  H1324    1.0000 0.00020  0.07450  0.74980  Biso   1.000  H
  H1325    1.0000 0.92550  0.99980  0.25020  Biso   1.000  H
  H1326    1.0000 0.82450  0.99980  0.49980  Biso   1.000  H
  H1327    1.0000 0.82450  0.25020  0.75020  Biso   1.000  H
  H1328    1.0000 0.92550  0.25020  0.99980  Biso   1.000  H
  H1329    1.0000 0.07450  0.50020  0.24980  Biso   1.000  H
  H1330    1.0000 0.67550  0.74980  0.74980  Biso   1.000  H
  H1331    1.0000 0.07450  0.74980  0.00020  Biso   1.000  H
  H1332    1.0000 0.67550  0.50020  0.50020  Biso   1.000  H
  H1333    1.0000 0.49980  0.32450  0.49980  Biso   1.000  H
  H1334    1.0000 0.49980  0.92550  0.75020  Biso   1.000  H
  H1335    1.0000 0.25020  0.92550  0.99980  Biso   1.000  H
  H1336    1.0000 0.25020  0.32450  0.25020  Biso   1.000  H
  H1337    1.0000 0.50020  0.74980  0.57450  Biso   1.000  H
  H1338    1.0000 0.74980  0.24980  0.17550  Biso   1.000  H
  H1339    1.0000 0.74980  0.50020  0.57450  Biso   1.000  H
  H1340    1.0000 0.50020  0.00020  0.17550  Biso   1.000  H
  H1341    1.0000 0.25020  0.49980  0.42550  Biso   1.000  H
  H1342    1.0000 0.25020  0.25020  0.32450  Biso   1.000  H
  H1343    1.0000 0.99980  0.99980  0.32450  Biso   1.000  H
  H1344    1.0000 0.49980  0.75020  0.92550  Biso   1.000  H
  C3841    1.0000 0.23222  0.58532  0.04088  Biso   1.000  C
  C3842    1.0000 0.23222  0.66468  0.20912  Biso   1.000  C
  C3843    1.0000 0.51778  0.66468  0.54088  Biso   1.000  C
  C3844    1.0000 0.51778  0.58532  0.70912  Biso   1.000  C
  C3845    1.0000 0.41468  0.48222  0.29088  Biso   1.000  C
  C3846    1.0000 0.33532  0.48222  0.45912  Biso   1.000  C
  C3847    1.0000 0.33532  0.76778  0.79088  Biso   1.000  C
  C3848    1.0000 0.41468  0.76778  0.95912  Biso   1.000  C
  C3849    1.0000 0.58532  0.04088  0.23222  Biso   1.000  C
  C3850    1.0000 0.16468  0.20912  0.73222  Biso   1.000  C
  C3851    1.0000 0.58532  0.20912  0.01778  Biso   1.000  C
  C3852    1.0000 0.16468  0.04088  0.51778  Biso   1.000  C
  C3853    1.0000 0.95912  0.83532  0.48222  Biso   1.000  C
  C3854    1.0000 0.95912  0.41468  0.76778  Biso   1.000  C
  C3855    1.0000 0.79088  0.41468  0.98222  Biso   1.000  C
  C3856    1.0000 0.79088  0.83532  0.26778  Biso   1.000  C
  C3857    1.0000 0.04088  0.23222  0.58532  Biso   1.000  C
  C3858    1.0000 0.20912  0.73222  0.16468  Biso   1.000  C
  C3859    1.0000 0.20912  0.01778  0.58532  Biso   1.000  C
  C3860    1.0000 0.04088  0.51778  0.16468  Biso   1.000  C
  C3861    1.0000 0.76778  0.95912  0.41468  Biso   1.000  C
  C3862    1.0000 0.76778  0.79088  0.33532  Biso   1.000  C
  C3863    1.0000 0.48222  0.45912  0.33532  Biso   1.000  C
  C3864    1.0000 0.98222  0.29088  0.91468  Biso   1.000  C
  C3865    1.0000 0.23222  0.08532  0.54088  Biso   1.000  C
  C3866    1.0000 0.23222  0.16468  0.70912  Biso   1.000  C
  C3867    1.0000 0.51778  0.16468  0.04088  Biso   1.000  C
  C3868    1.0000 0.51778  0.08532  0.20912  Biso   1.000  C
  C3869    1.0000 0.41468  0.98222  0.79088  Biso   1.000  C
  C3870    1.0000 0.33532  0.98222  0.95912  Biso   1.000  C
  C3871    1.0000 0.33532  0.26778  0.29088  Biso   1.000  C
  C3872    1.0000 0.41468  0.26778  0.45912  Biso   1.000  C
  C3873    1.0000 0.58532  0.54088  0.73222  Biso   1.000  C
  C3874    1.0000 0.16468  0.70912  0.23222  Biso   1.000  C
  C3875    1.0000 0.58532  0.70912  0.51778  Biso   1.000  C
  C3876    1.0000 0.16468  0.54088  0.01778  Biso   1.000  C
  C3877    1.0000 0.95912  0.33532  0.98222  Biso   1.000  C
  C3878    1.0000 0.95912  0.91468  0.26778  Biso   1.000  C
  C3879    1.0000 0.79088  0.91468  0.48222  Biso   1.000  C
  C3880    1.0000 0.79088  0.33532  0.76778  Biso   1.000  C
  C3881    1.0000 0.04088  0.73222  0.08532  Biso   1.000  C
  C3882    1.0000 0.20912  0.23222  0.66468  Biso   1.000  C
  C3883    1.0000 0.20912  0.51778  0.08532  Biso   1.000  C
  C3884    1.0000 0.04088  0.01778  0.66468  Biso   1.000  C
  C3885    1.0000 0.76778  0.45912  0.91468  Biso   1.000  C
  C3886    1.0000 0.76778  0.29088  0.83532  Biso   1.000  C
  C3887    1.0000 0.48222  0.95912  0.83532  Biso   1.000  C
  C3888    1.0000 0.98222  0.79088  0.41468  Biso   1.000  C
  C3889    1.0000 0.73222  0.58532  0.54088  Biso   1.000  C
  C3890    1.0000 0.73222  0.66468  0.70912  Biso   1.000  C
  C3891    1.0000 0.01778  0.66468  0.04088  Biso   1.000  C
  C3892    1.0000 0.01778  0.58532  0.20912  Biso   1.000  C
  C3893    1.0000 0.91468  0.48222  0.79088  Biso   1.000  C
  C3894    1.0000 0.83532  0.48222  0.95912  Biso   1.000  C
  C3895    1.0000 0.83532  0.76778  0.29088  Biso   1.000  C
  C3896    1.0000 0.91468  0.76778  0.45912  Biso   1.000  C
  C3897    1.0000 0.08532  0.04088  0.73222  Biso   1.000  C
  C3898    1.0000 0.66468  0.20912  0.23222  Biso   1.000  C
  C3899    1.0000 0.08532  0.20912  0.51778  Biso   1.000  C
  C3900    1.0000 0.66468  0.04088  0.01778  Biso   1.000  C
  C3901    1.0000 0.45912  0.83532  0.98222  Biso   1.000  C
  C3902    1.0000 0.45912  0.41468  0.26778  Biso   1.000  C
  C3903    1.0000 0.29088  0.41468  0.48222  Biso   1.000  C
  C3904    1.0000 0.29088  0.83532  0.76778  Biso   1.000  C
  C3905    1.0000 0.54088  0.23222  0.08532  Biso   1.000  C
  C3906    1.0000 0.70912  0.73222  0.66468  Biso   1.000  C
  C3907    1.0000 0.70912  0.01778  0.08532  Biso   1.000  C
  C3908    1.0000 0.54088  0.51778  0.66468  Biso   1.000  C
  C3909    1.0000 0.26778  0.95912  0.91468  Biso   1.000  C
  C3910    1.0000 0.26778  0.79088  0.83532  Biso   1.000  C
  C3911    1.0000 0.98222  0.45912  0.83532  Biso   1.000  C
  C3912    1.0000 0.48222  0.29088  0.41468  Biso   1.000  C
  C3913    1.0000 0.73222  0.08532  0.04088  Biso   1.000  C
  C3914    1.0000 0.73222  0.16468  0.20912  Biso   1.000  C
  C3915    1.0000 0.01778  0.16468  0.54088  Biso   1.000  C
  C3916    1.0000 0.01778  0.08532  0.70912  Biso   1.000  C
  C3917    1.0000 0.91468  0.98222  0.29088  Biso   1.000  C
  C3918    1.0000 0.83532  0.98222  0.45912  Biso   1.000  C
  C3919    1.0000 0.83532  0.26778  0.79088  Biso   1.000  C
  C3920    1.0000 0.91468  0.26778  0.95912  Biso   1.000  C
  C3921    1.0000 0.08532  0.54088  0.23222  Biso   1.000  C
  C3922    1.0000 0.66468  0.70912  0.73222  Biso   1.000  C
  C3923    1.0000 0.08532  0.70912  0.01778  Biso   1.000  C
  C3924    1.0000 0.66468  0.54088  0.51778  Biso   1.000  C
  C3925    1.0000 0.45912  0.33532  0.48222  Biso   1.000  C
  C3926    1.0000 0.45912  0.91468  0.76778  Biso   1.000  C
  C3927    1.0000 0.29088  0.91468  0.98222  Biso   1.000  C
  C3928    1.0000 0.29088  0.33532  0.26778  Biso   1.000  C
  C3929    1.0000 0.54088  0.73222  0.58532  Biso   1.000  C
  C3930    1.0000 0.70912  0.23222  0.16468  Biso   1.000  C
  C3931    1.0000 0.70912  0.51778  0.58532  Biso   1.000  C
  C3932    1.0000 0.54088  0.01778  0.16468  Biso   1.000  C
  C3933    1.0000 0.26778  0.45912  0.41468  Biso   1.000  C
  C3934    1.0000 0.26778  0.29088  0.33532  Biso   1.000  C
  C3935    1.0000 0.98222  0.95912  0.33532  Biso   1.000  C
  C3936    1.0000 0.48222  0.79088  0.91468  Biso   1.000  C
  C3937    1.0000 0.76778  0.41468  0.95912  Biso   1.000  C
  C3938    1.0000 0.76778  0.33532  0.79088  Biso   1.000  C
  C3939    1.0000 0.48222  0.33532  0.45912  Biso   1.000  C
  C3940    1.0000 0.48222  0.41468  0.29088  Biso   1.000  C
  C3941    1.0000 0.58532  0.51778  0.70912  Biso   1.000  C
  C3942    1.0000 0.66468  0.51778  0.54088  Biso   1.000  C
  C3943    1.0000 0.66468  0.23222  0.20912  Biso   1.000  C
  C3944    1.0000 0.58532  0.23222  0.04088  Biso   1.000  C
  C3945    1.0000 0.41468  0.95912  0.76778  Biso   1.000  C
  C3946    1.0000 0.83532  0.79088  0.26778  Biso   1.000  C
  C3947    1.0000 0.41468  0.79088  0.98222  Biso   1.000  C
  C3948    1.0000 0.83532  0.95912  0.48222  Biso   1.000  C
  C3949    1.0000 0.04088  0.16468  0.51778  Biso   1.000  C
  C3950    1.0000 0.04088  0.58532  0.23222  Biso   1.000  C
  C3951    1.0000 0.20912  0.58532  0.01778  Biso   1.000  C
  C3952    1.0000 0.20912  0.16468  0.73222  Biso   1.000  C
  C3953    1.0000 0.95912  0.76778  0.41468  Biso   1.000  C
  C3954    1.0000 0.79088  0.26778  0.83532  Biso   1.000  C
  C3955    1.0000 0.79088  0.98222  0.41468  Biso   1.000  C
  C3956    1.0000 0.95912  0.48222  0.83532  Biso   1.000  C
  C3957    1.0000 0.23222  0.04088  0.58532  Biso   1.000  C
  C3958    1.0000 0.23222  0.20912  0.66468  Biso   1.000  C
  C3959    1.0000 0.51778  0.54088  0.66468  Biso   1.000  C
  C3960    1.0000 0.01778  0.70912  0.08532  Biso   1.000  C
  C3961    1.0000 0.76778  0.91468  0.45912  Biso   1.000  C
  C3962    1.0000 0.76778  0.83532  0.29088  Biso   1.000  C
  C3963    1.0000 0.48222  0.83532  0.95912  Biso   1.000  C
  C3964    1.0000 0.48222  0.91468  0.79088  Biso   1.000  C
  C3965    1.0000 0.58532  0.01778  0.20912  Biso   1.000  C
  C3966    1.0000 0.66468  0.01778  0.04088  Biso   1.000  C
  C3967    1.0000 0.66468  0.73222  0.70912  Biso   1.000  C
  C3968    1.0000 0.58532  0.73222  0.54088  Biso   1.000  C
  C3969    1.0000 0.41468  0.45912  0.26778  Biso   1.000  C
  C3970    1.0000 0.83532  0.29088  0.76778  Biso   1.000  C
  C3971    1.0000 0.41468  0.29088  0.48222  Biso   1.000  C
  C3972    1.0000 0.83532  0.45912  0.98222  Biso   1.000  C
  C3973    1.0000 0.04088  0.66468  0.01778  Biso   1.000  C
  C3974    1.0000 0.04088  0.08532  0.73222  Biso   1.000  C
  C3975    1.0000 0.20912  0.08532  0.51778  Biso   1.000  C
  C3976    1.0000 0.20912  0.66468  0.23222  Biso   1.000  C
  C3977    1.0000 0.95912  0.26778  0.91468  Biso   1.000  C
  C3978    1.0000 0.79088  0.76778  0.33532  Biso   1.000  C
  C3979    1.0000 0.79088  0.48222  0.91468  Biso   1.000  C
  C3980    1.0000 0.95912  0.98222  0.33532  Biso   1.000  C
  C3981    1.0000 0.23222  0.54088  0.08532  Biso   1.000  C
  C3982    1.0000 0.23222  0.70912  0.16468  Biso   1.000  C
  C3983    1.0000 0.51778  0.04088  0.16468  Biso   1.000  C
  C3984    1.0000 0.01778  0.20912  0.58532  Biso   1.000  C
  C3985    1.0000 0.26778  0.41468  0.45912  Biso   1.000  C
  C3986    1.0000 0.26778  0.33532  0.29088  Biso   1.000  C
  C3987    1.0000 0.98222  0.33532  0.95912  Biso   1.000  C
  C3988    1.0000 0.98222  0.41468  0.79088  Biso   1.000  C
  C3989    1.0000 0.08532  0.51778  0.20912  Biso   1.000  C
  C3990    1.0000 0.16468  0.51778  0.04088  Biso   1.000  C
  C3991    1.0000 0.16468  0.23222  0.70912  Biso   1.000  C
  C3992    1.0000 0.08532  0.23222  0.54088  Biso   1.000  C
  C3993    1.0000 0.91468  0.95912  0.26778  Biso   1.000  C
  C3994    1.0000 0.33532  0.79088  0.76778  Biso   1.000  C
  C3995    1.0000 0.91468  0.79088  0.48222  Biso   1.000  C
  C3996    1.0000 0.33532  0.95912  0.98222  Biso   1.000  C
  C3997    1.0000 0.54088  0.16468  0.01778  Biso   1.000  C
  C3998    1.0000 0.54088  0.58532  0.73222  Biso   1.000  C
  C3999    1.0000 0.70912  0.58532  0.51778  Biso   1.000  C
  C4000    1.0000 0.70912  0.16468  0.23222  Biso   1.000  C
  C4001    1.0000 0.45912  0.76778  0.91468  Biso   1.000  C
  C4002    1.0000 0.29088  0.26778  0.33532  Biso   1.000  C
  C4003    1.0000 0.29088  0.98222  0.91468  Biso   1.000  C
  C4004    1.0000 0.45912  0.48222  0.33532  Biso   1.000  C
  C4005    1.0000 0.73222  0.04088  0.08532  Biso   1.000  C
  C4006    1.0000 0.73222  0.20912  0.16468  Biso   1.000  C
  C4007    1.0000 0.01778  0.54088  0.16468  Biso   1.000  C
  C4008    1.0000 0.51778  0.70912  0.58532  Biso   1.000  C
  C4009    1.0000 0.26778  0.91468  0.95912  Biso   1.000  C
  C4010    1.0000 0.26778  0.83532  0.79088  Biso   1.000  C
  C4011    1.0000 0.98222  0.83532  0.45912  Biso   1.000  C
  C4012    1.0000 0.98222  0.91468  0.29088  Biso   1.000  C
  C4013    1.0000 0.08532  0.01778  0.70912  Biso   1.000  C
  C4014    1.0000 0.16468  0.01778  0.54088  Biso   1.000  C
  C4015    1.0000 0.16468  0.73222  0.20912  Biso   1.000  C
  C4016    1.0000 0.08532  0.73222  0.04088  Biso   1.000  C
  C4017    1.0000 0.91468  0.45912  0.76778  Biso   1.000  C
  C4018    1.0000 0.33532  0.29088  0.26778  Biso   1.000  C
  C4019    1.0000 0.91468  0.29088  0.98222  Biso   1.000  C
  C4020    1.0000 0.33532  0.45912  0.48222  Biso   1.000  C
  C4021    1.0000 0.54088  0.66468  0.51778  Biso   1.000  C
  C4022    1.0000 0.54088  0.08532  0.23222  Biso   1.000  C
  C4023    1.0000 0.70912  0.08532  0.01778  Biso   1.000  C
  C4024    1.0000 0.70912  0.66468  0.73222  Biso   1.000  C
  C4025    1.0000 0.45912  0.26778  0.41468  Biso   1.000  C
  C4026    1.0000 0.29088  0.76778  0.83532  Biso   1.000  C
  C4027    1.0000 0.29088  0.48222  0.41468  Biso   1.000  C
  C4028    1.0000 0.45912  0.98222  0.83532  Biso   1.000  C
  C4029    1.0000 0.73222  0.54088  0.58532  Biso   1.000  C
  C4030    1.0000 0.73222  0.70912  0.66468  Biso   1.000  C
  C4031    1.0000 0.01778  0.04088  0.66468  Biso   1.000  C
  C4032    1.0000 0.51778  0.20912  0.08532  Biso   1.000  C
  H1345    1.0000 0.23550  0.58690  0.05360  Biso   1.000  H
  H1346    1.0000 0.23550  0.66310  0.19640  Biso   1.000  H
  H1347    1.0000 0.51450  0.66310  0.55360  Biso   1.000  H
  H1348    1.0000 0.51450  0.58690  0.69640  Biso   1.000  H
  H1349    1.0000 0.41310  0.48550  0.30360  Biso   1.000  H
  H1350    1.0000 0.33690  0.48550  0.44640  Biso   1.000  H
  H1351    1.0000 0.33690  0.76450  0.80360  Biso   1.000  H
  H1352    1.0000 0.41310  0.76450  0.94640  Biso   1.000  H
  H1353    1.0000 0.58690  0.05360  0.23550  Biso   1.000  H
  H1354    1.0000 0.16310  0.19640  0.73550  Biso   1.000  H
  H1355    1.0000 0.58690  0.19640  0.01450  Biso   1.000  H
  H1356    1.0000 0.16310  0.05360  0.51450  Biso   1.000  H
  H1357    1.0000 0.94640  0.83690  0.48550  Biso   1.000  H
  H1358    1.0000 0.94640  0.41310  0.76450  Biso   1.000  H
  H1359    1.0000 0.80360  0.41310  0.98550  Biso   1.000  H
  H1360    1.0000 0.80360  0.83690  0.26450  Biso   1.000  H
  H1361    1.0000 0.05360  0.23550  0.58690  Biso   1.000  H
  H1362    1.0000 0.19640  0.73550  0.16310  Biso   1.000  H
  H1363    1.0000 0.19640  0.01450  0.58690  Biso   1.000  H
  H1364    1.0000 0.05360  0.51450  0.16310  Biso   1.000  H
  H1365    1.0000 0.76450  0.94640  0.41310  Biso   1.000  H
  H1366    1.0000 0.76450  0.80360  0.33690  Biso   1.000  H
  H1367    1.0000 0.48550  0.44640  0.33690  Biso   1.000  H
  H1368    1.0000 0.98550  0.30360  0.91310  Biso   1.000  H
  H1369    1.0000 0.23550  0.08690  0.55360  Biso   1.000  H
  H1370    1.0000 0.23550  0.16310  0.69640  Biso   1.000  H
  H1371    1.0000 0.51450  0.16310  0.05360  Biso   1.000  H
  H1372    1.0000 0.51450  0.08690  0.19640  Biso   1.000  H
  H1373    1.0000 0.41310  0.98550  0.80360  Biso   1.000  H
  H1374    1.0000 0.33690  0.98550  0.94640  Biso   1.000  H
  H1375    1.0000 0.33690  0.26450  0.30360  Biso   1.000  H
  H1376    1.0000 0.41310  0.26450  0.44640  Biso   1.000  H
  H1377    1.0000 0.58690  0.55360  0.73550  Biso   1.000  H
  H1378    1.0000 0.16310  0.69640  0.23550  Biso   1.000  H
  H1379    1.0000 0.58690  0.69640  0.51450  Biso   1.000  H
  H1380    1.0000 0.16310  0.55360  0.01450  Biso   1.000  H
  H1381    1.0000 0.94640  0.33690  0.98550  Biso   1.000  H
  H1382    1.0000 0.94640  0.91310  0.26450  Biso   1.000  H
  H1383    1.0000 0.80360  0.91310  0.48550  Biso   1.000  H
  H1384    1.0000 0.80360  0.33690  0.76450  Biso   1.000  H
  H1385    1.0000 0.05360  0.73550  0.08690  Biso   1.000  H
  H1386    1.0000 0.19640  0.23550  0.66310  Biso   1.000  H
  H1387    1.0000 0.19640  0.51450  0.08690  Biso   1.000  H
  H1388    1.0000 0.05360  0.01450  0.66310  Biso   1.000  H
  H1389    1.0000 0.76450  0.44640  0.91310  Biso   1.000  H
  H1390    1.0000 0.76450  0.30360  0.83690  Biso   1.000  H
  H1391    1.0000 0.48550  0.94640  0.83690  Biso   1.000  H
  H1392    1.0000 0.98550  0.80360  0.41310  Biso   1.000  H
  H1393    1.0000 0.73550  0.58690  0.55360  Biso   1.000  H
  H1394    1.0000 0.73550  0.66310  0.69640  Biso   1.000  H
  H1395    1.0000 0.01450  0.66310  0.05360  Biso   1.000  H
  H1396    1.0000 0.01450  0.58690  0.19640  Biso   1.000  H
  H1397    1.0000 0.91310  0.48550  0.80360  Biso   1.000  H
  H1398    1.0000 0.83690  0.48550  0.94640  Biso   1.000  H
  H1399    1.0000 0.83690  0.76450  0.30360  Biso   1.000  H
  H1400    1.0000 0.91310  0.76450  0.44640  Biso   1.000  H
  H1401    1.0000 0.08690  0.05360  0.73550  Biso   1.000  H
  H1402    1.0000 0.66310  0.19640  0.23550  Biso   1.000  H
  H1403    1.0000 0.08690  0.19640  0.51450  Biso   1.000  H
  H1404    1.0000 0.66310  0.05360  0.01450  Biso   1.000  H
  H1405    1.0000 0.44640  0.83690  0.98550  Biso   1.000  H
  H1406    1.0000 0.44640  0.41310  0.26450  Biso   1.000  H
  H1407    1.0000 0.30360  0.41310  0.48550  Biso   1.000  H
  H1408    1.0000 0.30360  0.83690  0.76450  Biso   1.000  H
  H1409    1.0000 0.55360  0.23550  0.08690  Biso   1.000  H
  H1410    1.0000 0.69640  0.73550  0.66310  Biso   1.000  H
  H1411    1.0000 0.69640  0.01450  0.08690  Biso   1.000  H
  H1412    1.0000 0.55360  0.51450  0.66310  Biso   1.000  H
  H1413    1.0000 0.26450  0.94640  0.91310  Biso   1.000  H
  H1414    1.0000 0.26450  0.80360  0.83690  Biso   1.000  H
  H1415    1.0000 0.98550  0.44640  0.83690  Biso   1.000  H
  H1416    1.0000 0.48550  0.30360  0.41310  Biso   1.000  H
  H1417    1.0000 0.73550  0.08690  0.05360  Biso   1.000  H
  H1418    1.0000 0.73550  0.16310  0.19640  Biso   1.000  H
  H1419    1.0000 0.01450  0.16310  0.55360  Biso   1.000  H
  H1420    1.0000 0.01450  0.08690  0.69640  Biso   1.000  H
  H1421    1.0000 0.91310  0.98550  0.30360  Biso   1.000  H
  H1422    1.0000 0.83690  0.98550  0.44640  Biso   1.000  H
  H1423    1.0000 0.83690  0.26450  0.80360  Biso   1.000  H
  H1424    1.0000 0.91310  0.26450  0.94640  Biso   1.000  H
  H1425    1.0000 0.08690  0.55360  0.23550  Biso   1.000  H
  H1426    1.0000 0.66310  0.69640  0.73550  Biso   1.000  H
  H1427    1.0000 0.08690  0.69640  0.01450  Biso   1.000  H
  H1428    1.0000 0.66310  0.55360  0.51450  Biso   1.000  H
  H1429    1.0000 0.44640  0.33690  0.48550  Biso   1.000  H
  H1430    1.0000 0.44640  0.91310  0.76450  Biso   1.000  H
  H1431    1.0000 0.30360  0.91310  0.98550  Biso   1.000  H
  H1432    1.0000 0.30360  0.33690  0.26450  Biso   1.000  H
  H1433    1.0000 0.55360  0.73550  0.58690  Biso   1.000  H
  H1434    1.0000 0.69640  0.23550  0.16310  Biso   1.000  H
  H1435    1.0000 0.69640  0.51450  0.58690  Biso   1.000  H
  H1436    1.0000 0.55360  0.01450  0.16310  Biso   1.000  H
  H1437    1.0000 0.26450  0.44640  0.41310  Biso   1.000  H
  H1438    1.0000 0.26450  0.30360  0.33690  Biso   1.000  H
  H1439    1.0000 0.98550  0.94640  0.33690  Biso   1.000  H
  H1440    1.0000 0.48550  0.80360  0.91310  Biso   1.000  H
  H1441    1.0000 0.76450  0.41310  0.94640  Biso   1.000  H
  H1442    1.0000 0.76450  0.33690  0.80360  Biso   1.000  H
  H1443    1.0000 0.48550  0.33690  0.44640  Biso   1.000  H
  H1444    1.0000 0.48550  0.41310  0.30360  Biso   1.000  H
  H1445    1.0000 0.58690  0.51450  0.69640  Biso   1.000  H
  H1446    1.0000 0.66310  0.51450  0.55360  Biso   1.000  H
  H1447    1.0000 0.66310  0.23550  0.19640  Biso   1.000  H
  H1448    1.0000 0.58690  0.23550  0.05360  Biso   1.000  H
  H1449    1.0000 0.41310  0.94640  0.76450  Biso   1.000  H
  H1450    1.0000 0.83690  0.80360  0.26450  Biso   1.000  H
  H1451    1.0000 0.41310  0.80360  0.98550  Biso   1.000  H
  H1452    1.0000 0.83690  0.94640  0.48550  Biso   1.000  H
  H1453    1.0000 0.05360  0.16310  0.51450  Biso   1.000  H
  H1454    1.0000 0.05360  0.58690  0.23550  Biso   1.000  H
  H1455    1.0000 0.19640  0.58690  0.01450  Biso   1.000  H
  H1456    1.0000 0.19640  0.16310  0.73550  Biso   1.000  H
  H1457    1.0000 0.94640  0.76450  0.41310  Biso   1.000  H
  H1458    1.0000 0.80360  0.26450  0.83690  Biso   1.000  H
  H1459    1.0000 0.80360  0.98550  0.41310  Biso   1.000  H
  H1460    1.0000 0.94640  0.48550  0.83690  Biso   1.000  H
  H1461    1.0000 0.23550  0.05360  0.58690  Biso   1.000  H
  H1462    1.0000 0.23550  0.19640  0.66310  Biso   1.000  H
  H1463    1.0000 0.51450  0.55360  0.66310  Biso   1.000  H
  H1464    1.0000 0.01450  0.69640  0.08690  Biso   1.000  H
  H1465    1.0000 0.76450  0.91310  0.44640  Biso   1.000  H
  H1466    1.0000 0.76450  0.83690  0.30360  Biso   1.000  H
  H1467    1.0000 0.48550  0.83690  0.94640  Biso   1.000  H
  H1468    1.0000 0.48550  0.91310  0.80360  Biso   1.000  H
  H1469    1.0000 0.58690  0.01450  0.19640  Biso   1.000  H
  H1470    1.0000 0.66310  0.01450  0.05360  Biso   1.000  H
  H1471    1.0000 0.66310  0.73550  0.69640  Biso   1.000  H
  H1472    1.0000 0.58690  0.73550  0.55360  Biso   1.000  H
  H1473    1.0000 0.41310  0.44640  0.26450  Biso   1.000  H
  H1474    1.0000 0.83690  0.30360  0.76450  Biso   1.000  H
  H1475    1.0000 0.41310  0.30360  0.48550  Biso   1.000  H
  H1476    1.0000 0.83690  0.44640  0.98550  Biso   1.000  H
  H1477    1.0000 0.05360  0.66310  0.01450  Biso   1.000  H
  H1478    1.0000 0.05360  0.08690  0.73550  Biso   1.000  H
  H1479    1.0000 0.19640  0.08690  0.51450  Biso   1.000  H
  H1480    1.0000 0.19640  0.66310  0.23550  Biso   1.000  H
  H1481    1.0000 0.94640  0.26450  0.91310  Biso   1.000  H
  H1482    1.0000 0.80360  0.76450  0.33690  Biso   1.000  H
  H1483    1.0000 0.80360  0.48550  0.91310  Biso   1.000  H
  H1484    1.0000 0.94640  0.98550  0.33690  Biso   1.000  H
  H1485    1.0000 0.23550  0.55360  0.08690  Biso   1.000  H
  H1486    1.0000 0.23550  0.69640  0.16310  Biso   1.000  H
  H1487    1.0000 0.51450  0.05360  0.16310  Biso   1.000  H
  H1488    1.0000 0.01450  0.19640  0.58690  Biso   1.000  H
  H1489    1.0000 0.26450  0.41310  0.44640  Biso   1.000  H
  H1490    1.0000 0.26450  0.33690  0.30360  Biso   1.000  H
  H1491    1.0000 0.98550  0.33690  0.94640  Biso   1.000  H
  H1492    1.0000 0.98550  0.41310  0.80360  Biso   1.000  H
  H1493    1.0000 0.08690  0.51450  0.19640  Biso   1.000  H
  H1494    1.0000 0.16310  0.51450  0.05360  Biso   1.000  H
  H1495    1.0000 0.16310  0.23550  0.69640  Biso   1.000  H
  H1496    1.0000 0.08690  0.23550  0.55360  Biso   1.000  H
  H1497    1.0000 0.91310  0.94640  0.26450  Biso   1.000  H
  H1498    1.0000 0.33690  0.80360  0.76450  Biso   1.000  H
  H1499    1.0000 0.91310  0.80360  0.48550  Biso   1.000  H
  H1500    1.0000 0.33690  0.94640  0.98550  Biso   1.000  H
  H1501    1.0000 0.55360  0.16310  0.01450  Biso   1.000  H
  H1502    1.0000 0.55360  0.58690  0.73550  Biso   1.000  H
  H1503    1.0000 0.69640  0.58690  0.51450  Biso   1.000  H
  H1504    1.0000 0.69640  0.16310  0.23550  Biso   1.000  H
  H1505    1.0000 0.44640  0.76450  0.91310  Biso   1.000  H
  H1506    1.0000 0.30360  0.26450  0.33690  Biso   1.000  H
  H1507    1.0000 0.30360  0.98550  0.91310  Biso   1.000  H
  H1508    1.0000 0.44640  0.48550  0.33690  Biso   1.000  H
  H1509    1.0000 0.73550  0.05360  0.08690  Biso   1.000  H
  H1510    1.0000 0.73550  0.19640  0.16310  Biso   1.000  H
  H1511    1.0000 0.01450  0.55360  0.16310  Biso   1.000  H
  H1512    1.0000 0.51450  0.69640  0.58690  Biso   1.000  H
  H1513    1.0000 0.26450  0.91310  0.94640  Biso   1.000  H
  H1514    1.0000 0.26450  0.83690  0.80360  Biso   1.000  H
  H1515    1.0000 0.98550  0.83690  0.44640  Biso   1.000  H
  H1516    1.0000 0.98550  0.91310  0.30360  Biso   1.000  H
  H1517    1.0000 0.08690  0.01450  0.69640  Biso   1.000  H
  H1518    1.0000 0.16310  0.01450  0.55360  Biso   1.000  H
  H1519    1.0000 0.16310  0.73550  0.19640  Biso   1.000  H
  H1520    1.0000 0.08690  0.73550  0.05360  Biso   1.000  H
  H1521    1.0000 0.91310  0.44640  0.76450  Biso   1.000  H
  H1522    1.0000 0.33690  0.30360  0.26450  Biso   1.000  H
  H1523    1.0000 0.91310  0.30360  0.98550  Biso   1.000  H
  H1524    1.0000 0.33690  0.44640  0.48550  Biso   1.000  H
  H1525    1.0000 0.55360  0.66310  0.51450  Biso   1.000  H
  H1526    1.0000 0.55360  0.08690  0.23550  Biso   1.000  H
  H1527    1.0000 0.69640  0.08690  0.01450  Biso   1.000  H
  H1528    1.0000 0.69640  0.66310  0.73550  Biso   1.000  H
  H1529    1.0000 0.44640  0.26450  0.41310  Biso   1.000  H
  H1530    1.0000 0.30360  0.76450  0.83690  Biso   1.000  H
  H1531    1.0000 0.30360  0.48550  0.41310  Biso   1.000  H
  H1532    1.0000 0.44640  0.98550  0.83690  Biso   1.000  H
  H1533    1.0000 0.73550  0.55360  0.58690  Biso   1.000  H
  H1534    1.0000 0.73550  0.69640  0.66310  Biso   1.000  H
  H1535    1.0000 0.01450  0.05360  0.66310  Biso   1.000  H
  H1536    1.0000 0.51450  0.19640  0.08690  Biso   1.000  H
  C4033    1.0000 0.21428  0.58810  0.03572  Biso   1.000  C
  C4034    1.0000 0.21428  0.66190  0.21428  Biso   1.000  C
  C4035    1.0000 0.53572  0.66190  0.53572  Biso   1.000  C
  C4036    1.0000 0.53572  0.58810  0.71428  Biso   1.000  C
  C4037    1.0000 0.41190  0.46428  0.28572  Biso   1.000  C
  C4038    1.0000 0.33810  0.46428  0.46428  Biso   1.000  C
  C4039    1.0000 0.33810  0.78572  0.78572  Biso   1.000  C
  C4040    1.0000 0.41190  0.78572  0.96428  Biso   1.000  C
  C4041    1.0000 0.58810  0.03572  0.21428  Biso   1.000  C
  C4042    1.0000 0.16190  0.21428  0.71428  Biso   1.000  C
  C4043    1.0000 0.58810  0.21428  0.03572  Biso   1.000  C
  C4044    1.0000 0.16190  0.03572  0.53572  Biso   1.000  C
  C4045    1.0000 0.96428  0.83810  0.46428  Biso   1.000  C
  C4046    1.0000 0.96428  0.41190  0.78572  Biso   1.000  C
  C4047    1.0000 0.78572  0.41190  0.96428  Biso   1.000  C
  C4048    1.0000 0.78572  0.83810  0.28572  Biso   1.000  C
  C4049    1.0000 0.03572  0.21428  0.58810  Biso   1.000  C
  C4050    1.0000 0.21428  0.71428  0.16190  Biso   1.000  C
  C4051    1.0000 0.21428  0.03572  0.58810  Biso   1.000  C
  C4052    1.0000 0.03572  0.53572  0.16190  Biso   1.000  C
  C4053    1.0000 0.78572  0.96428  0.41190  Biso   1.000  C
  C4054    1.0000 0.78572  0.78572  0.33810  Biso   1.000  C
  C4055    1.0000 0.46428  0.46428  0.33810  Biso   1.000  C
  C4056    1.0000 0.96428  0.28572  0.91190  Biso   1.000  C
  C4057    1.0000 0.21428  0.08810  0.53572  Biso   1.000  C
  C4058    1.0000 0.21428  0.16190  0.71428  Biso   1.000  C
  C4059    1.0000 0.53572  0.16190  0.03572  Biso   1.000  C
  C4060    1.0000 0.53572  0.08810  0.21428  Biso   1.000  C
  C4061    1.0000 0.41190  0.96428  0.78572  Biso   1.000  C
  C4062    1.0000 0.33810  0.96428  0.96428  Biso   1.000  C
  C4063    1.0000 0.33810  0.28572  0.28572  Biso   1.000  C
  C4064    1.0000 0.41190  0.28572  0.46428  Biso   1.000  C
  C4065    1.0000 0.58810  0.53572  0.71428  Biso   1.000  C
  C4066    1.0000 0.16190  0.71428  0.21428  Biso   1.000  C
  C4067    1.0000 0.58810  0.71428  0.53572  Biso   1.000  C
  C4068    1.0000 0.16190  0.53572  0.03572  Biso   1.000  C
  C4069    1.0000 0.96428  0.33810  0.96428  Biso   1.000  C
  C4070    1.0000 0.96428  0.91190  0.28572  Biso   1.000  C
  C4071    1.0000 0.78572  0.91190  0.46428  Biso   1.000  C
  C4072    1.0000 0.78572  0.33810  0.78572  Biso   1.000  C
  C4073    1.0000 0.03572  0.71428  0.08810  Biso   1.000  C
  C4074    1.0000 0.21428  0.21428  0.66190  Biso   1.000  C
  C4075    1.0000 0.21428  0.53572  0.08810  Biso   1.000  C
  C4076    1.0000 0.03572  0.03572  0.66190  Biso   1.000  C
  C4077    1.0000 0.78572  0.46428  0.91190  Biso   1.000  C
  C4078    1.0000 0.78572  0.28572  0.83810  Biso   1.000  C
  C4079    1.0000 0.46428  0.96428  0.83810  Biso   1.000  C
  C4080    1.0000 0.96428  0.78572  0.41190  Biso   1.000  C
  C4081    1.0000 0.71428  0.58810  0.53572  Biso   1.000  C
  C4082    1.0000 0.71428  0.66190  0.71428  Biso   1.000  C
  C4083    1.0000 0.03572  0.66190  0.03572  Biso   1.000  C
  C4084    1.0000 0.03572  0.58810  0.21428  Biso   1.000  C
  C4085    1.0000 0.91190  0.46428  0.78572  Biso   1.000  C
  C4086    1.0000 0.83810  0.46428  0.96428  Biso   1.000  C
  C4087    1.0000 0.83810  0.78572  0.28572  Biso   1.000  C
  C4088    1.0000 0.91190  0.78572  0.46428  Biso   1.000  C
  C4089    1.0000 0.08810  0.03572  0.71428  Biso   1.000  C
  C4090    1.0000 0.66190  0.21428  0.21428  Biso   1.000  C
  C4091    1.0000 0.08810  0.21428  0.53572  Biso   1.000  C
  C4092    1.0000 0.66190  0.03572  0.03572  Biso   1.000  C
  C4093    1.0000 0.46428  0.83810  0.96428  Biso   1.000  C
  C4094    1.0000 0.46428  0.41190  0.28572  Biso   1.000  C
  C4095    1.0000 0.28572  0.41190  0.46428  Biso   1.000  C
  C4096    1.0000 0.28572  0.83810  0.78572  Biso   1.000  C
  C4097    1.0000 0.53572  0.21428  0.08810  Biso   1.000  C
  C4098    1.0000 0.71428  0.71428  0.66190  Biso   1.000  C
  C4099    1.0000 0.71428  0.03572  0.08810  Biso   1.000  C
  C4100    1.0000 0.53572  0.53572  0.66190  Biso   1.000  C
  C4101    1.0000 0.28572  0.96428  0.91190  Biso   1.000  C
  C4102    1.0000 0.28572  0.78572  0.83810  Biso   1.000  C
  C4103    1.0000 0.96428  0.46428  0.83810  Biso   1.000  C
  C4104    1.0000 0.46428  0.28572  0.41190  Biso   1.000  C
  C4105    1.0000 0.71428  0.08810  0.03572  Biso   1.000  C
  C4106    1.0000 0.71428  0.16190  0.21428  Biso   1.000  C
  C4107    1.0000 0.03572  0.16190  0.53572  Biso   1.000  C
  C4108    1.0000 0.03572  0.08810  0.71428  Biso   1.000  C
  C4109    1.0000 0.91190  0.96428  0.28572  Biso   1.000  C
  C4110    1.0000 0.83810  0.96428  0.46428  Biso   1.000  C
  C4111    1.0000 0.83810  0.28572  0.78572  Biso   1.000  C
  C4112    1.0000 0.91190  0.28572  0.96428  Biso   1.000  C
  C4113    1.0000 0.08810  0.53572  0.21428  Biso   1.000  C
  C4114    1.0000 0.66190  0.71428  0.71428  Biso   1.000  C
  C4115    1.0000 0.08810  0.71428  0.03572  Biso   1.000  C
  C4116    1.0000 0.66190  0.53572  0.53572  Biso   1.000  C
  C4117    1.0000 0.46428  0.33810  0.46428  Biso   1.000  C
  C4118    1.0000 0.46428  0.91190  0.78572  Biso   1.000  C
  C4119    1.0000 0.28572  0.91190  0.96428  Biso   1.000  C
  C4120    1.0000 0.28572  0.33810  0.28572  Biso   1.000  C
  C4121    1.0000 0.53572  0.71428  0.58810  Biso   1.000  C
  C4122    1.0000 0.71428  0.21428  0.16190  Biso   1.000  C
  C4123    1.0000 0.71428  0.53572  0.58810  Biso   1.000  C
  C4124    1.0000 0.53572  0.03572  0.16190  Biso   1.000  C
  C4125    1.0000 0.28572  0.46428  0.41190  Biso   1.000  C
  C4126    1.0000 0.28572  0.28572  0.33810  Biso   1.000  C
  C4127    1.0000 0.96428  0.96428  0.33810  Biso   1.000  C
  C4128    1.0000 0.46428  0.78572  0.91190  Biso   1.000  C
  C4129    1.0000 0.20008  0.59140  0.04992  Biso   1.000  C
  C4130    1.0000 0.20008  0.65860  0.20008  Biso   1.000  C
  C4131    1.0000 0.54992  0.65860  0.54992  Biso   1.000  C
  C4132    1.0000 0.54992  0.59140  0.70008  Biso   1.000  C
  C4133    1.0000 0.40860  0.45008  0.29992  Biso   1.000  C
  C4134    1.0000 0.34140  0.45008  0.45008  Biso   1.000  C
  C4135    1.0000 0.34140  0.79992  0.79992  Biso   1.000  C
  C4136    1.0000 0.40860  0.79992  0.95008  Biso   1.000  C
  C4137    1.0000 0.59140  0.04992  0.20008  Biso   1.000  C
  C4138    1.0000 0.15860  0.20008  0.70008  Biso   1.000  C
  C4139    1.0000 0.59140  0.20008  0.04992  Biso   1.000  C
  C4140    1.0000 0.15860  0.04992  0.54992  Biso   1.000  C
  C4141    1.0000 0.95008  0.84140  0.45008  Biso   1.000  C
  C4142    1.0000 0.95008  0.40860  0.79992  Biso   1.000  C
  C4143    1.0000 0.79992  0.40860  0.95008  Biso   1.000  C
  C4144    1.0000 0.79992  0.84140  0.29992  Biso   1.000  C
  C4145    1.0000 0.04992  0.20008  0.59140  Biso   1.000  C
  C4146    1.0000 0.20008  0.70008  0.15860  Biso   1.000  C
  C4147    1.0000 0.20008  0.04992  0.59140  Biso   1.000  C
  C4148    1.0000 0.04992  0.54992  0.15860  Biso   1.000  C
  C4149    1.0000 0.79992  0.95008  0.40860  Biso   1.000  C
  C4150    1.0000 0.79992  0.79992  0.34140  Biso   1.000  C
  C4151    1.0000 0.45008  0.45008  0.34140  Biso   1.000  C
  C4152    1.0000 0.95008  0.29992  0.90860  Biso   1.000  C
  C4153    1.0000 0.20008  0.09140  0.54992  Biso   1.000  C
  C4154    1.0000 0.20008  0.15860  0.70008  Biso   1.000  C
  C4155    1.0000 0.54992  0.15860  0.04992  Biso   1.000  C
  C4156    1.0000 0.54992  0.09140  0.20008  Biso   1.000  C
  C4157    1.0000 0.40860  0.95008  0.79992  Biso   1.000  C
  C4158    1.0000 0.34140  0.95008  0.95008  Biso   1.000  C
  C4159    1.0000 0.34140  0.29992  0.29992  Biso   1.000  C
  C4160    1.0000 0.40860  0.29992  0.45008  Biso   1.000  C
  C4161    1.0000 0.59140  0.54992  0.70008  Biso   1.000  C
  C4162    1.0000 0.15860  0.70008  0.20008  Biso   1.000  C
  C4163    1.0000 0.59140  0.70008  0.54992  Biso   1.000  C
  C4164    1.0000 0.15860  0.54992  0.04992  Biso   1.000  C
  C4165    1.0000 0.95008  0.34140  0.95008  Biso   1.000  C
  C4166    1.0000 0.95008  0.90860  0.29992  Biso   1.000  C
  C4167    1.0000 0.79992  0.90860  0.45008  Biso   1.000  C
  C4168    1.0000 0.79992  0.34140  0.79992  Biso   1.000  C
  C4169    1.0000 0.04992  0.70008  0.09140  Biso   1.000  C
  C4170    1.0000 0.20008  0.20008  0.65860  Biso   1.000  C
  C4171    1.0000 0.20008  0.54992  0.09140  Biso   1.000  C
  C4172    1.0000 0.04992  0.04992  0.65860  Biso   1.000  C
  C4173    1.0000 0.79992  0.45008  0.90860  Biso   1.000  C
  C4174    1.0000 0.79992  0.29992  0.84140  Biso   1.000  C
  C4175    1.0000 0.45008  0.95008  0.84140  Biso   1.000  C
  C4176    1.0000 0.95008  0.79992  0.40860  Biso   1.000  C
  C4177    1.0000 0.70008  0.59140  0.54992  Biso   1.000  C
  C4178    1.0000 0.70008  0.65860  0.70008  Biso   1.000  C
  C4179    1.0000 0.04992  0.65860  0.04992  Biso   1.000  C
  C4180    1.0000 0.04992  0.59140  0.20008  Biso   1.000  C
  C4181    1.0000 0.90860  0.45008  0.79992  Biso   1.000  C
  C4182    1.0000 0.84140  0.45008  0.95008  Biso   1.000  C
  C4183    1.0000 0.84140  0.79992  0.29992  Biso   1.000  C
  C4184    1.0000 0.90860  0.79992  0.45008  Biso   1.000  C
  C4185    1.0000 0.09140  0.04992  0.70008  Biso   1.000  C
  C4186    1.0000 0.65860  0.20008  0.20008  Biso   1.000  C
  C4187    1.0000 0.09140  0.20008  0.54992  Biso   1.000  C
  C4188    1.0000 0.65860  0.04992  0.04992  Biso   1.000  C
  C4189    1.0000 0.45008  0.84140  0.95008  Biso   1.000  C
  C4190    1.0000 0.45008  0.40860  0.29992  Biso   1.000  C
  C4191    1.0000 0.29992  0.40860  0.45008  Biso   1.000  C
  C4192    1.0000 0.29992  0.84140  0.79992  Biso   1.000  C
  C4193    1.0000 0.54992  0.20008  0.09140  Biso   1.000  C
  C4194    1.0000 0.70008  0.70008  0.65860  Biso   1.000  C
  C4195    1.0000 0.70008  0.04992  0.09140  Biso   1.000  C
  C4196    1.0000 0.54992  0.54992  0.65860  Biso   1.000  C
  C4197    1.0000 0.29992  0.95008  0.90860  Biso   1.000  C
  C4198    1.0000 0.29992  0.79992  0.84140  Biso   1.000  C
  C4199    1.0000 0.95008  0.45008  0.84140  Biso   1.000  C
  C4200    1.0000 0.45008  0.29992  0.40860  Biso   1.000  C
  C4201    1.0000 0.70008  0.09140  0.04992  Biso   1.000  C
  C4202    1.0000 0.70008  0.15860  0.20008  Biso   1.000  C
  C4203    1.0000 0.04992  0.15860  0.54992  Biso   1.000  C
  C4204    1.0000 0.04992  0.09140  0.70008  Biso   1.000  C
  C4205    1.0000 0.90860  0.95008  0.29992  Biso   1.000  C
  C4206    1.0000 0.84140  0.95008  0.45008  Biso   1.000  C
  C4207    1.0000 0.84140  0.29992  0.79992  Biso   1.000  C
  C4208    1.0000 0.90860  0.29992  0.95008  Biso   1.000  C
  C4209    1.0000 0.09140  0.54992  0.20008  Biso   1.000  C
  C4210    1.0000 0.65860  0.70008  0.70008  Biso   1.000  C
  C4211    1.0000 0.09140  0.70008  0.04992  Biso   1.000  C
  C4212    1.0000 0.65860  0.54992  0.54992  Biso   1.000  C
  C4213    1.0000 0.45008  0.34140  0.45008  Biso   1.000  C
  C4214    1.0000 0.45008  0.90860  0.79992  Biso   1.000  C
  C4215    1.0000 0.29992  0.90860  0.95008  Biso   1.000  C
  C4216    1.0000 0.29992  0.34140  0.29992  Biso   1.000  C
  C4217    1.0000 0.54992  0.70008  0.59140  Biso   1.000  C
  C4218    1.0000 0.70008  0.20008  0.15860  Biso   1.000  C
  C4219    1.0000 0.70008  0.54992  0.59140  Biso   1.000  C
  C4220    1.0000 0.54992  0.04992  0.15860  Biso   1.000  C
  C4221    1.0000 0.29992  0.45008  0.40860  Biso   1.000  C
  C4222    1.0000 0.29992  0.29992  0.34140  Biso   1.000  C
  C4223    1.0000 0.95008  0.95008  0.34140  Biso   1.000  C
  C4224    1.0000 0.45008  0.79992  0.90860  Biso   1.000  C
  C4225    1.0000 0.12890  0.58020  0.08020  Biso   1.000  C
  C4226    1.0000 0.12890  0.66980  0.16980  Biso   1.000  C
  C4227    1.0000 0.62110  0.66980  0.58020  Biso   1.000  C
  C4228    1.0000 0.62110  0.58020  0.66980  Biso   1.000  C
  C4229    1.0000 0.41980  0.37890  0.33020  Biso   1.000  C
  C4230    1.0000 0.33020  0.37890  0.41980  Biso   1.000  C
  C4231    1.0000 0.33020  0.87110  0.83020  Biso   1.000  C
  C4232    1.0000 0.41980  0.87110  0.91980  Biso   1.000  C
  C4233    1.0000 0.58020  0.08020  0.12890  Biso   1.000  C
  C4234    1.0000 0.16980  0.16980  0.62890  Biso   1.000  C
  C4235    1.0000 0.58020  0.16980  0.12110  Biso   1.000  C
  C4236    1.0000 0.16980  0.08020  0.62110  Biso   1.000  C
  C4237    1.0000 0.91980  0.83020  0.37890  Biso   1.000  C
  C4238    1.0000 0.91980  0.41980  0.87110  Biso   1.000  C
  C4239    1.0000 0.83020  0.41980  0.87890  Biso   1.000  C
  C4240    1.0000 0.83020  0.83020  0.37110  Biso   1.000  C
  C4241    1.0000 0.08020  0.12890  0.58020  Biso   1.000  C
  C4242    1.0000 0.16980  0.62890  0.16980  Biso   1.000  C
  C4243    1.0000 0.16980  0.12110  0.58020  Biso   1.000  C
  C4244    1.0000 0.08020  0.62110  0.16980  Biso   1.000  C
  C4245    1.0000 0.87110  0.91980  0.41980  Biso   1.000  C
  C4246    1.0000 0.87110  0.83020  0.33020  Biso   1.000  C
  C4247    1.0000 0.37890  0.41980  0.33020  Biso   1.000  C
  C4248    1.0000 0.87890  0.33020  0.91980  Biso   1.000  C
  C4249    1.0000 0.12890  0.08020  0.58020  Biso   1.000  C
  C4250    1.0000 0.12890  0.16980  0.66980  Biso   1.000  C
  C4251    1.0000 0.62110  0.16980  0.08020  Biso   1.000  C
  C4252    1.0000 0.62110  0.08020  0.16980  Biso   1.000  C
  C4253    1.0000 0.41980  0.87890  0.83020  Biso   1.000  C
  C4254    1.0000 0.33020  0.87890  0.91980  Biso   1.000  C
  C4255    1.0000 0.33020  0.37110  0.33020  Biso   1.000  C
  C4256    1.0000 0.41980  0.37110  0.41980  Biso   1.000  C
  C4257    1.0000 0.58020  0.58020  0.62890  Biso   1.000  C
  C4258    1.0000 0.16980  0.66980  0.12890  Biso   1.000  C
  C4259    1.0000 0.58020  0.66980  0.62110  Biso   1.000  C
  C4260    1.0000 0.16980  0.58020  0.12110  Biso   1.000  C
  C4261    1.0000 0.91980  0.33020  0.87890  Biso   1.000  C
  C4262    1.0000 0.91980  0.91980  0.37110  Biso   1.000  C
  C4263    1.0000 0.83020  0.91980  0.37890  Biso   1.000  C
  C4264    1.0000 0.83020  0.33020  0.87110  Biso   1.000  C
  C4265    1.0000 0.08020  0.62890  0.08020  Biso   1.000  C
  C4266    1.0000 0.16980  0.12890  0.66980  Biso   1.000  C
  C4267    1.0000 0.16980  0.62110  0.08020  Biso   1.000  C
  C4268    1.0000 0.08020  0.12110  0.66980  Biso   1.000  C
  C4269    1.0000 0.87110  0.41980  0.91980  Biso   1.000  C
  C4270    1.0000 0.87110  0.33020  0.83020  Biso   1.000  C
  C4271    1.0000 0.37890  0.91980  0.83020  Biso   1.000  C
  C4272    1.0000 0.87890  0.83020  0.41980  Biso   1.000  C
  C4273    1.0000 0.62890  0.58020  0.58020  Biso   1.000  C
  C4274    1.0000 0.62890  0.66980  0.66980  Biso   1.000  C
  C4275    1.0000 0.12110  0.66980  0.08020  Biso   1.000  C
  C4276    1.0000 0.12110  0.58020  0.16980  Biso   1.000  C
  C4277    1.0000 0.91980  0.37890  0.83020  Biso   1.000  C
  C4278    1.0000 0.83020  0.37890  0.91980  Biso   1.000  C
  C4279    1.0000 0.83020  0.87110  0.33020  Biso   1.000  C
  C4280    1.0000 0.91980  0.87110  0.41980  Biso   1.000  C
  C4281    1.0000 0.08020  0.08020  0.62890  Biso   1.000  C
  C4282    1.0000 0.66980  0.16980  0.12890  Biso   1.000  C
  C4283    1.0000 0.08020  0.16980  0.62110  Biso   1.000  C
  C4284    1.0000 0.66980  0.08020  0.12110  Biso   1.000  C
  C4285    1.0000 0.41980  0.83020  0.87890  Biso   1.000  C
  C4286    1.0000 0.41980  0.41980  0.37110  Biso   1.000  C
  C4287    1.0000 0.33020  0.41980  0.37890  Biso   1.000  C
  C4288    1.0000 0.33020  0.83020  0.87110  Biso   1.000  C
  C4289    1.0000 0.58020  0.12890  0.08020  Biso   1.000  C
  C4290    1.0000 0.66980  0.62890  0.66980  Biso   1.000  C
  C4291    1.0000 0.66980  0.12110  0.08020  Biso   1.000  C
  C4292    1.0000 0.58020  0.62110  0.66980  Biso   1.000  C
  C4293    1.0000 0.37110  0.91980  0.91980  Biso   1.000  C
  C4294    1.0000 0.37110  0.83020  0.83020  Biso   1.000  C
  C4295    1.0000 0.87890  0.41980  0.83020  Biso   1.000  C
  C4296    1.0000 0.37890  0.33020  0.41980  Biso   1.000  C
  C4297    1.0000 0.62890  0.08020  0.08020  Biso   1.000  C
  C4298    1.0000 0.62890  0.16980  0.16980  Biso   1.000  C
  C4299    1.0000 0.12110  0.16980  0.58020  Biso   1.000  C
  C4300    1.0000 0.12110  0.08020  0.66980  Biso   1.000  C
  C4301    1.0000 0.91980  0.87890  0.33020  Biso   1.000  C
  C4302    1.0000 0.83020  0.87890  0.41980  Biso   1.000  C
  C4303    1.0000 0.83020  0.37110  0.83020  Biso   1.000  C
  C4304    1.0000 0.91980  0.37110  0.91980  Biso   1.000  C
  C4305    1.0000 0.08020  0.58020  0.12890  Biso   1.000  C
  C4306    1.0000 0.66980  0.66980  0.62890  Biso   1.000  C
  C4307    1.0000 0.08020  0.66980  0.12110  Biso   1.000  C
  C4308    1.0000 0.66980  0.58020  0.62110  Biso   1.000  C
  C4309    1.0000 0.41980  0.33020  0.37890  Biso   1.000  C
  C4310    1.0000 0.41980  0.91980  0.87110  Biso   1.000  C
  C4311    1.0000 0.33020  0.91980  0.87890  Biso   1.000  C
  C4312    1.0000 0.33020  0.33020  0.37110  Biso   1.000  C
  C4313    1.0000 0.58020  0.62890  0.58020  Biso   1.000  C
  C4314    1.0000 0.66980  0.12890  0.16980  Biso   1.000  C
  C4315    1.0000 0.66980  0.62110  0.58020  Biso   1.000  C
  C4316    1.0000 0.58020  0.12110  0.16980  Biso   1.000  C
  C4317    1.0000 0.37110  0.41980  0.41980  Biso   1.000  C
  C4318    1.0000 0.37110  0.33020  0.33020  Biso   1.000  C
  C4319    1.0000 0.87890  0.91980  0.33020  Biso   1.000  C
  C4320    1.0000 0.37890  0.83020  0.91980  Biso   1.000  C
  C4321    1.0000 0.11070  0.58730  0.08730  Biso   1.000  C
  C4322    1.0000 0.11070  0.66270  0.16270  Biso   1.000  C
  C4323    1.0000 0.63930  0.66270  0.58730  Biso   1.000  C
  C4324    1.0000 0.63930  0.58730  0.66270  Biso   1.000  C
  C4325    1.0000 0.41270  0.36070  0.33730  Biso   1.000  C
  C4326    1.0000 0.33730  0.36070  0.41270  Biso   1.000  C
  C4327    1.0000 0.33730  0.88930  0.83730  Biso   1.000  C
  C4328    1.0000 0.41270  0.88930  0.91270  Biso   1.000  C
  C4329    1.0000 0.58730  0.08730  0.11070  Biso   1.000  C
  C4330    1.0000 0.16270  0.16270  0.61070  Biso   1.000  C
  C4331    1.0000 0.58730  0.16270  0.13930  Biso   1.000  C
  C4332    1.0000 0.16270  0.08730  0.63930  Biso   1.000  C
  C4333    1.0000 0.91270  0.83730  0.36070  Biso   1.000  C
  C4334    1.0000 0.91270  0.41270  0.88930  Biso   1.000  C
  C4335    1.0000 0.83730  0.41270  0.86070  Biso   1.000  C
  C4336    1.0000 0.83730  0.83730  0.38930  Biso   1.000  C
  C4337    1.0000 0.08730  0.11070  0.58730  Biso   1.000  C
  C4338    1.0000 0.16270  0.61070  0.16270  Biso   1.000  C
  C4339    1.0000 0.16270  0.13930  0.58730  Biso   1.000  C
  C4340    1.0000 0.08730  0.63930  0.16270  Biso   1.000  C
  C4341    1.0000 0.88930  0.91270  0.41270  Biso   1.000  C
  C4342    1.0000 0.88930  0.83730  0.33730  Biso   1.000  C
  C4343    1.0000 0.36070  0.41270  0.33730  Biso   1.000  C
  C4344    1.0000 0.86070  0.33730  0.91270  Biso   1.000  C
  C4345    1.0000 0.11070  0.08730  0.58730  Biso   1.000  C
  C4346    1.0000 0.11070  0.16270  0.66270  Biso   1.000  C
  C4347    1.0000 0.63930  0.16270  0.08730  Biso   1.000  C
  C4348    1.0000 0.63930  0.08730  0.16270  Biso   1.000  C
  C4349    1.0000 0.41270  0.86070  0.83730  Biso   1.000  C
  C4350    1.0000 0.33730  0.86070  0.91270  Biso   1.000  C
  C4351    1.0000 0.33730  0.38930  0.33730  Biso   1.000  C
  C4352    1.0000 0.41270  0.38930  0.41270  Biso   1.000  C
  C4353    1.0000 0.58730  0.58730  0.61070  Biso   1.000  C
  C4354    1.0000 0.16270  0.66270  0.11070  Biso   1.000  C
  C4355    1.0000 0.58730  0.66270  0.63930  Biso   1.000  C
  C4356    1.0000 0.16270  0.58730  0.13930  Biso   1.000  C
  C4357    1.0000 0.91270  0.33730  0.86070  Biso   1.000  C
  C4358    1.0000 0.91270  0.91270  0.38930  Biso   1.000  C
  C4359    1.0000 0.83730  0.91270  0.36070  Biso   1.000  C
  C4360    1.0000 0.83730  0.33730  0.88930  Biso   1.000  C
  C4361    1.0000 0.08730  0.61070  0.08730  Biso   1.000  C
  C4362    1.0000 0.16270  0.11070  0.66270  Biso   1.000  C
  C4363    1.0000 0.16270  0.63930  0.08730  Biso   1.000  C
  C4364    1.0000 0.08730  0.13930  0.66270  Biso   1.000  C
  C4365    1.0000 0.88930  0.41270  0.91270  Biso   1.000  C
  C4366    1.0000 0.88930  0.33730  0.83730  Biso   1.000  C
  C4367    1.0000 0.36070  0.91270  0.83730  Biso   1.000  C
  C4368    1.0000 0.86070  0.83730  0.41270  Biso   1.000  C
  C4369    1.0000 0.61070  0.58730  0.58730  Biso   1.000  C
  C4370    1.0000 0.61070  0.66270  0.66270  Biso   1.000  C
  C4371    1.0000 0.13930  0.66270  0.08730  Biso   1.000  C
  C4372    1.0000 0.13930  0.58730  0.16270  Biso   1.000  C
  C4373    1.0000 0.91270  0.36070  0.83730  Biso   1.000  C
  C4374    1.0000 0.83730  0.36070  0.91270  Biso   1.000  C
  C4375    1.0000 0.83730  0.88930  0.33730  Biso   1.000  C
  C4376    1.0000 0.91270  0.88930  0.41270  Biso   1.000  C
  C4377    1.0000 0.08730  0.08730  0.61070  Biso   1.000  C
  C4378    1.0000 0.66270  0.16270  0.11070  Biso   1.000  C
  C4379    1.0000 0.08730  0.16270  0.63930  Biso   1.000  C
  C4380    1.0000 0.66270  0.08730  0.13930  Biso   1.000  C
  C4381    1.0000 0.41270  0.83730  0.86070  Biso   1.000  C
  C4382    1.0000 0.41270  0.41270  0.38930  Biso   1.000  C
  C4383    1.0000 0.33730  0.41270  0.36070  Biso   1.000  C
  C4384    1.0000 0.33730  0.83730  0.88930  Biso   1.000  C
  C4385    1.0000 0.58730  0.11070  0.08730  Biso   1.000  C
  C4386    1.0000 0.66270  0.61070  0.66270  Biso   1.000  C
  C4387    1.0000 0.66270  0.13930  0.08730  Biso   1.000  C
  C4388    1.0000 0.58730  0.63930  0.66270  Biso   1.000  C
  C4389    1.0000 0.38930  0.91270  0.91270  Biso   1.000  C
  C4390    1.0000 0.38930  0.83730  0.83730  Biso   1.000  C
  C4391    1.0000 0.86070  0.41270  0.83730  Biso   1.000  C
  C4392    1.0000 0.36070  0.33730  0.41270  Biso   1.000  C
  C4393    1.0000 0.61070  0.08730  0.08730  Biso   1.000  C
  C4394    1.0000 0.61070  0.16270  0.16270  Biso   1.000  C
  C4395    1.0000 0.13930  0.16270  0.58730  Biso   1.000  C
  C4396    1.0000 0.13930  0.08730  0.66270  Biso   1.000  C
  C4397    1.0000 0.91270  0.86070  0.33730  Biso   1.000  C
  C4398    1.0000 0.83730  0.86070  0.41270  Biso   1.000  C
  C4399    1.0000 0.83730  0.38930  0.83730  Biso   1.000  C
  C4400    1.0000 0.91270  0.38930  0.91270  Biso   1.000  C
  C4401    1.0000 0.08730  0.58730  0.11070  Biso   1.000  C
  C4402    1.0000 0.66270  0.66270  0.61070  Biso   1.000  C
  C4403    1.0000 0.08730  0.66270  0.13930  Biso   1.000  C
  C4404    1.0000 0.66270  0.58730  0.63930  Biso   1.000  C
  C4405    1.0000 0.41270  0.33730  0.36070  Biso   1.000  C
  C4406    1.0000 0.41270  0.91270  0.88930  Biso   1.000  C
  C4407    1.0000 0.33730  0.91270  0.86070  Biso   1.000  C
  C4408    1.0000 0.33730  0.33730  0.38930  Biso   1.000  C
  C4409    1.0000 0.58730  0.61070  0.58730  Biso   1.000  C
  C4410    1.0000 0.66270  0.11070  0.16270  Biso   1.000  C
  C4411    1.0000 0.66270  0.63930  0.58730  Biso   1.000  C
  C4412    1.0000 0.58730  0.13930  0.16270  Biso   1.000  C
  C4413    1.0000 0.38930  0.41270  0.41270  Biso   1.000  C
  C4414    1.0000 0.38930  0.33730  0.33730  Biso   1.000  C
  C4415    1.0000 0.86070  0.91270  0.33730  Biso   1.000  C
  C4416    1.0000 0.36070  0.83730  0.91270  Biso   1.000  C
  C4417    1.0000 0.10308  0.57900  0.10308  Biso   1.000  C
  C4418    1.0000 0.10308  0.67100  0.14692  Biso   1.000  C
  C4419    1.0000 0.64692  0.67100  0.60308  Biso   1.000  C
  C4420    1.0000 0.64692  0.57900  0.64692  Biso   1.000  C
  C4421    1.0000 0.42100  0.35308  0.35308  Biso   1.000  C
  C4422    1.0000 0.32900  0.35308  0.39692  Biso   1.000  C
  C4423    1.0000 0.32900  0.89692  0.85308  Biso   1.000  C
  C4424    1.0000 0.42100  0.89692  0.89692  Biso   1.000  C
  C4425    1.0000 0.57900  0.10308  0.10308  Biso   1.000  C
  C4426    1.0000 0.17100  0.14692  0.60308  Biso   1.000  C
  C4427    1.0000 0.57900  0.14692  0.14692  Biso   1.000  C
  C4428    1.0000 0.17100  0.10308  0.64692  Biso   1.000  C
  C4429    1.0000 0.89692  0.82900  0.35308  Biso   1.000  C
  C4430    1.0000 0.89692  0.42100  0.89692  Biso   1.000  C
  C4431    1.0000 0.85308  0.42100  0.85308  Biso   1.000  C
  C4432    1.0000 0.85308  0.82900  0.39692  Biso   1.000  C
  C4433    1.0000 0.10308  0.10308  0.57900  Biso   1.000  C
  C4434    1.0000 0.14692  0.60308  0.17100  Biso   1.000  C
  C4435    1.0000 0.14692  0.14692  0.57900  Biso   1.000  C
  C4436    1.0000 0.10308  0.64692  0.17100  Biso   1.000  C
  C4437    1.0000 0.89692  0.89692  0.42100  Biso   1.000  C
  C4438    1.0000 0.89692  0.85308  0.32900  Biso   1.000  C
  C4439    1.0000 0.35308  0.39692  0.32900  Biso   1.000  C
  C4440    1.0000 0.85308  0.35308  0.92100  Biso   1.000  C
  C4441    1.0000 0.10308  0.07900  0.60308  Biso   1.000  C
  C4442    1.0000 0.10308  0.17100  0.64692  Biso   1.000  C
  C4443    1.0000 0.64692  0.17100  0.10308  Biso   1.000  C
  C4444    1.0000 0.64692  0.07900  0.14692  Biso   1.000  C
  C4445    1.0000 0.42100  0.85308  0.85308  Biso   1.000  C
  C4446    1.0000 0.32900  0.85308  0.89692  Biso   1.000  C
  C4447    1.0000 0.32900  0.39692  0.35308  Biso   1.000  C
  C4448    1.0000 0.42100  0.39692  0.39692  Biso   1.000  C
  C4449    1.0000 0.57900  0.60308  0.60308  Biso   1.000  C
  C4450    1.0000 0.17100  0.64692  0.10308  Biso   1.000  C
  C4451    1.0000 0.57900  0.64692  0.64692  Biso   1.000  C
  C4452    1.0000 0.17100  0.60308  0.14692  Biso   1.000  C
  C4453    1.0000 0.89692  0.32900  0.85308  Biso   1.000  C
  C4454    1.0000 0.89692  0.92100  0.39692  Biso   1.000  C
  C4455    1.0000 0.85308  0.92100  0.35308  Biso   1.000  C
  C4456    1.0000 0.85308  0.32900  0.89692  Biso   1.000  C
  C4457    1.0000 0.10308  0.60308  0.07900  Biso   1.000  C
  C4458    1.0000 0.14692  0.10308  0.67100  Biso   1.000  C
  C4459    1.0000 0.14692  0.64692  0.07900  Biso   1.000  C
  C4460    1.0000 0.10308  0.14692  0.67100  Biso   1.000  C
  C4461    1.0000 0.89692  0.39692  0.92100  Biso   1.000  C
  C4462    1.0000 0.89692  0.35308  0.82900  Biso   1.000  C
  C4463    1.0000 0.35308  0.89692  0.82900  Biso   1.000  C
  C4464    1.0000 0.85308  0.85308  0.42100  Biso   1.000  C
  C4465    1.0000 0.60308  0.57900  0.60308  Biso   1.000  C
  C4466    1.0000 0.60308  0.67100  0.64692  Biso   1.000  C
  C4467    1.0000 0.14692  0.67100  0.10308  Biso   1.000  C
  C4468    1.0000 0.14692  0.57900  0.14692  Biso   1.000  C
  C4469    1.0000 0.92100  0.35308  0.85308  Biso   1.000  C
  C4470    1.0000 0.82900  0.35308  0.89692  Biso   1.000  C
  C4471    1.0000 0.82900  0.89692  0.35308  Biso   1.000  C
  C4472    1.0000 0.92100  0.89692  0.39692  Biso   1.000  C
  C4473    1.0000 0.07900  0.10308  0.60308  Biso   1.000  C
  C4474    1.0000 0.67100  0.14692  0.10308  Biso   1.000  C
  C4475    1.0000 0.07900  0.14692  0.64692  Biso   1.000  C
  C4476    1.0000 0.67100  0.10308  0.14692  Biso   1.000  C
  C4477    1.0000 0.39692  0.82900  0.85308  Biso   1.000  C
  C4478    1.0000 0.39692  0.42100  0.39692  Biso   1.000  C
  C4479    1.0000 0.35308  0.42100  0.35308  Biso   1.000  C
  C4480    1.0000 0.35308  0.82900  0.89692  Biso   1.000  C
  C4481    1.0000 0.60308  0.10308  0.07900  Biso   1.000  C
  C4482    1.0000 0.64692  0.60308  0.67100  Biso   1.000  C
  C4483    1.0000 0.64692  0.14692  0.07900  Biso   1.000  C
  C4484    1.0000 0.60308  0.64692  0.67100  Biso   1.000  C
  C4485    1.0000 0.39692  0.89692  0.92100  Biso   1.000  C
  C4486    1.0000 0.39692  0.85308  0.82900  Biso   1.000  C
  C4487    1.0000 0.85308  0.39692  0.82900  Biso   1.000  C
  C4488    1.0000 0.35308  0.35308  0.42100  Biso   1.000  C
  C4489    1.0000 0.60308  0.07900  0.10308  Biso   1.000  C
  C4490    1.0000 0.60308  0.17100  0.14692  Biso   1.000  C
  C4491    1.0000 0.14692  0.17100  0.60308  Biso   1.000  C
  C4492    1.0000 0.14692  0.07900  0.64692  Biso   1.000  C
  C4493    1.0000 0.92100  0.85308  0.35308  Biso   1.000  C
  C4494    1.0000 0.82900  0.85308  0.39692  Biso   1.000  C
  C4495    1.0000 0.82900  0.39692  0.85308  Biso   1.000  C
  C4496    1.0000 0.92100  0.39692  0.89692  Biso   1.000  C
  C4497    1.0000 0.07900  0.60308  0.10308  Biso   1.000  C
  C4498    1.0000 0.67100  0.64692  0.60308  Biso   1.000  C
  C4499    1.0000 0.07900  0.64692  0.14692  Biso   1.000  C
  C4500    1.0000 0.67100  0.60308  0.64692  Biso   1.000  C
  C4501    1.0000 0.39692  0.32900  0.35308  Biso   1.000  C
  C4502    1.0000 0.39692  0.92100  0.89692  Biso   1.000  C
  C4503    1.0000 0.35308  0.92100  0.85308  Biso   1.000  C
  C4504    1.0000 0.35308  0.32900  0.39692  Biso   1.000  C
  C4505    1.0000 0.60308  0.60308  0.57900  Biso   1.000  C
  C4506    1.0000 0.64692  0.10308  0.17100  Biso   1.000  C
  C4507    1.0000 0.64692  0.64692  0.57900  Biso   1.000  C
  C4508    1.0000 0.60308  0.14692  0.17100  Biso   1.000  C
  C4509    1.0000 0.39692  0.39692  0.42100  Biso   1.000  C
  C4510    1.0000 0.39692  0.35308  0.32900  Biso   1.000  C
  C4511    1.0000 0.85308  0.89692  0.32900  Biso   1.000  C
  C4512    1.0000 0.35308  0.85308  0.92100  Biso   1.000  C
  H1537    1.0000 0.10840  0.56810  0.10840  Biso   1.000  H
  H1538    1.0000 0.10840  0.68190  0.14160  Biso   1.000  H
  H1539    1.0000 0.64160  0.68190  0.60840  Biso   1.000  H
  H1540    1.0000 0.64160  0.56810  0.64160  Biso   1.000  H
  H1541    1.0000 0.43190  0.35840  0.35840  Biso   1.000  H
  H1542    1.0000 0.31810  0.35840  0.39160  Biso   1.000  H
  H1543    1.0000 0.31810  0.89160  0.85840  Biso   1.000  H
  H1544    1.0000 0.43190  0.89160  0.89160  Biso   1.000  H
  H1545    1.0000 0.56810  0.10840  0.10840  Biso   1.000  H
  H1546    1.0000 0.18190  0.14160  0.60840  Biso   1.000  H
  H1547    1.0000 0.56810  0.14160  0.14160  Biso   1.000  H
  H1548    1.0000 0.18190  0.10840  0.64160  Biso   1.000  H
  H1549    1.0000 0.89160  0.81810  0.35840  Biso   1.000  H
  H1550    1.0000 0.89160  0.43190  0.89160  Biso   1.000  H
  H1551    1.0000 0.85840  0.43190  0.85840  Biso   1.000  H
  H1552    1.0000 0.85840  0.81810  0.39160  Biso   1.000  H
  H1553    1.0000 0.10840  0.10840  0.56810  Biso   1.000  H
  H1554    1.0000 0.14160  0.60840  0.18190  Biso   1.000  H
  H1555    1.0000 0.14160  0.14160  0.56810  Biso   1.000  H
  H1556    1.0000 0.10840  0.64160  0.18190  Biso   1.000  H
  H1557    1.0000 0.89160  0.89160  0.43190  Biso   1.000  H
  H1558    1.0000 0.89160  0.85840  0.31810  Biso   1.000  H
  H1559    1.0000 0.35840  0.39160  0.31810  Biso   1.000  H
  H1560    1.0000 0.85840  0.35840  0.93190  Biso   1.000  H
  H1561    1.0000 0.10840  0.06810  0.60840  Biso   1.000  H
  H1562    1.0000 0.10840  0.18190  0.64160  Biso   1.000  H
  H1563    1.0000 0.64160  0.18190  0.10840  Biso   1.000  H
  H1564    1.0000 0.64160  0.06810  0.14160  Biso   1.000  H
  H1565    1.0000 0.43190  0.85840  0.85840  Biso   1.000  H
  H1566    1.0000 0.31810  0.85840  0.89160  Biso   1.000  H
  H1567    1.0000 0.31810  0.39160  0.35840  Biso   1.000  H
  H1568    1.0000 0.43190  0.39160  0.39160  Biso   1.000  H
  H1569    1.0000 0.56810  0.60840  0.60840  Biso   1.000  H
  H1570    1.0000 0.18190  0.64160  0.10840  Biso   1.000  H
  H1571    1.0000 0.56810  0.64160  0.64160  Biso   1.000  H
  H1572    1.0000 0.18190  0.60840  0.14160  Biso   1.000  H
  H1573    1.0000 0.89160  0.31810  0.85840  Biso   1.000  H
  H1574    1.0000 0.89160  0.93190  0.39160  Biso   1.000  H
  H1575    1.0000 0.85840  0.93190  0.35840  Biso   1.000  H
  H1576    1.0000 0.85840  0.31810  0.89160  Biso   1.000  H
  H1577    1.0000 0.10840  0.60840  0.06810  Biso   1.000  H
  H1578    1.0000 0.14160  0.10840  0.68190  Biso   1.000  H
  H1579    1.0000 0.14160  0.64160  0.06810  Biso   1.000  H
  H1580    1.0000 0.10840  0.14160  0.68190  Biso   1.000  H
  H1581    1.0000 0.89160  0.39160  0.93190  Biso   1.000  H
  H1582    1.0000 0.89160  0.35840  0.81810  Biso   1.000  H
  H1583    1.0000 0.35840  0.89160  0.81810  Biso   1.000  H
  H1584    1.0000 0.85840  0.85840  0.43190  Biso   1.000  H
  H1585    1.0000 0.60840  0.56810  0.60840  Biso   1.000  H
  H1586    1.0000 0.60840  0.68190  0.64160  Biso   1.000  H
  H1587    1.0000 0.14160  0.68190  0.10840  Biso   1.000  H
  H1588    1.0000 0.14160  0.56810  0.14160  Biso   1.000  H
  H1589    1.0000 0.93190  0.35840  0.85840  Biso   1.000  H
  H1590    1.0000 0.81810  0.35840  0.89160  Biso   1.000  H
  H1591    1.0000 0.81810  0.89160  0.35840  Biso   1.000  H
  H1592    1.0000 0.93190  0.89160  0.39160  Biso   1.000  H
  H1593    1.0000 0.06810  0.10840  0.60840  Biso   1.000  H
  H1594    1.0000 0.68190  0.14160  0.10840  Biso   1.000  H
  H1595    1.0000 0.06810  0.14160  0.64160  Biso   1.000  H
  H1596    1.0000 0.68190  0.10840  0.14160  Biso   1.000  H
  H1597    1.0000 0.39160  0.81810  0.85840  Biso   1.000  H
  H1598    1.0000 0.39160  0.43190  0.39160  Biso   1.000  H
  H1599    1.0000 0.35840  0.43190  0.35840  Biso   1.000  H
  H1600    1.0000 0.35840  0.81810  0.89160  Biso   1.000  H
  H1601    1.0000 0.60840  0.10840  0.06810  Biso   1.000  H
  H1602    1.0000 0.64160  0.60840  0.68190  Biso   1.000  H
  H1603    1.0000 0.64160  0.14160  0.06810  Biso   1.000  H
  H1604    1.0000 0.60840  0.64160  0.68190  Biso   1.000  H
  H1605    1.0000 0.39160  0.89160  0.93190  Biso   1.000  H
  H1606    1.0000 0.39160  0.85840  0.81810  Biso   1.000  H
  H1607    1.0000 0.85840  0.39160  0.81810  Biso   1.000  H
  H1608    1.0000 0.35840  0.35840  0.43190  Biso   1.000  H
  H1609    1.0000 0.60840  0.06810  0.10840  Biso   1.000  H
  H1610    1.0000 0.60840  0.18190  0.14160  Biso   1.000  H
  H1611    1.0000 0.14160  0.18190  0.60840  Biso   1.000  H
  H1612    1.0000 0.14160  0.06810  0.64160  Biso   1.000  H
  H1613    1.0000 0.93190  0.85840  0.35840  Biso   1.000  H
  H1614    1.0000 0.81810  0.85840  0.39160  Biso   1.000  H
  H1615    1.0000 0.81810  0.39160  0.85840  Biso   1.000  H
  H1616    1.0000 0.93190  0.39160  0.89160  Biso   1.000  H
  H1617    1.0000 0.06810  0.60840  0.10840  Biso   1.000  H
  H1618    1.0000 0.68190  0.64160  0.60840  Biso   1.000  H
  H1619    1.0000 0.06810  0.64160  0.14160  Biso   1.000  H
  H1620    1.0000 0.68190  0.60840  0.64160  Biso   1.000  H
  H1621    1.0000 0.39160  0.31810  0.35840  Biso   1.000  H
  H1622    1.0000 0.39160  0.93190  0.89160  Biso   1.000  H
  H1623    1.0000 0.35840  0.93190  0.85840  Biso   1.000  H
  H1624    1.0000 0.35840  0.31810  0.39160  Biso   1.000  H
  H1625    1.0000 0.60840  0.60840  0.56810  Biso   1.000  H
  H1626    1.0000 0.64160  0.10840  0.18190  Biso   1.000  H
  H1627    1.0000 0.64160  0.64160  0.56810  Biso   1.000  H
  H1628    1.0000 0.60840  0.14160  0.18190  Biso   1.000  H
  H1629    1.0000 0.39160  0.39160  0.43190  Biso   1.000  H
  H1630    1.0000 0.39160  0.35840  0.31810  Biso   1.000  H
  H1631    1.0000 0.85840  0.89160  0.31810  Biso   1.000  H
  H1632    1.0000 0.35840  0.85840  0.93190  Biso   1.000  H
  C4513    1.0000 0.39250  0.62780  0.97910  Biso   1.000  C
  C4514    1.0000 0.39250  0.62220  0.27090  Biso   1.000  C
  C4515    1.0000 0.35750  0.62220  0.47910  Biso   1.000  C
  C4516    1.0000 0.35750  0.62780  0.77090  Biso   1.000  C
  C4517    1.0000 0.37220  0.64250  0.22910  Biso   1.000  C
  C4518    1.0000 0.37780  0.64250  0.52090  Biso   1.000  C
  C4519    1.0000 0.37780  0.60750  0.72910  Biso   1.000  C
  C4520    1.0000 0.37220  0.60750  0.02090  Biso   1.000  C
  C4521    1.0000 0.62780  0.97910  0.39250  Biso   1.000  C
  C4522    1.0000 0.12220  0.27090  0.89250  Biso   1.000  C
  C4523    1.0000 0.62780  0.27090  0.85750  Biso   1.000  C
  C4524    1.0000 0.12220  0.97910  0.35750  Biso   1.000  C
  C4525    1.0000 0.02090  0.87780  0.64250  Biso   1.000  C
  C4526    1.0000 0.02090  0.37220  0.60750  Biso   1.000  C
  C4527    1.0000 0.72910  0.37220  0.14250  Biso   1.000  C
  C4528    1.0000 0.72910  0.87780  0.10750  Biso   1.000  C
  C4529    1.0000 0.97910  0.39250  0.62780  Biso   1.000  C
  C4530    1.0000 0.27090  0.89250  0.12220  Biso   1.000  C
  C4531    1.0000 0.27090  0.85750  0.62780  Biso   1.000  C
  C4532    1.0000 0.97910  0.35750  0.12220  Biso   1.000  C
  C4533    1.0000 0.60750  0.02090  0.37220  Biso   1.000  C
  C4534    1.0000 0.60750  0.72910  0.37780  Biso   1.000  C
  C4535    1.0000 0.64250  0.52090  0.37780  Biso   1.000  C
  C4536    1.0000 0.14250  0.22910  0.87220  Biso   1.000  C
  C4537    1.0000 0.39250  0.12780  0.47910  Biso   1.000  C
  C4538    1.0000 0.39250  0.12220  0.77090  Biso   1.000  C
  C4539    1.0000 0.35750  0.12220  0.97910  Biso   1.000  C
  C4540    1.0000 0.35750  0.12780  0.27090  Biso   1.000  C
  C4541    1.0000 0.37220  0.14250  0.72910  Biso   1.000  C
  C4542    1.0000 0.37780  0.14250  0.02090  Biso   1.000  C
  C4543    1.0000 0.37780  0.10750  0.22910  Biso   1.000  C
  C4544    1.0000 0.37220  0.10750  0.52090  Biso   1.000  C
  C4545    1.0000 0.62780  0.47910  0.89250  Biso   1.000  C
  C4546    1.0000 0.12220  0.77090  0.39250  Biso   1.000  C
  C4547    1.0000 0.62780  0.77090  0.35750  Biso   1.000  C
  C4548    1.0000 0.12220  0.47910  0.85750  Biso   1.000  C
  C4549    1.0000 0.02090  0.37780  0.14250  Biso   1.000  C
  C4550    1.0000 0.02090  0.87220  0.10750  Biso   1.000  C
  C4551    1.0000 0.72910  0.87220  0.64250  Biso   1.000  C
  C4552    1.0000 0.72910  0.37780  0.60750  Biso   1.000  C
  C4553    1.0000 0.97910  0.89250  0.12780  Biso   1.000  C
  C4554    1.0000 0.27090  0.39250  0.62220  Biso   1.000  C
  C4555    1.0000 0.27090  0.35750  0.12780  Biso   1.000  C
  C4556    1.0000 0.97910  0.85750  0.62220  Biso   1.000  C
  C4557    1.0000 0.60750  0.52090  0.87220  Biso   1.000  C
  C4558    1.0000 0.60750  0.22910  0.87780  Biso   1.000  C
  C4559    1.0000 0.64250  0.02090  0.87780  Biso   1.000  C
  C4560    1.0000 0.14250  0.72910  0.37220  Biso   1.000  C
  C4561    1.0000 0.89250  0.62780  0.47910  Biso   1.000  C
  C4562    1.0000 0.89250  0.62220  0.77090  Biso   1.000  C
  C4563    1.0000 0.85750  0.62220  0.97910  Biso   1.000  C
  C4564    1.0000 0.85750  0.62780  0.27090  Biso   1.000  C
  C4565    1.0000 0.87220  0.64250  0.72910  Biso   1.000  C
  C4566    1.0000 0.87780  0.64250  0.02090  Biso   1.000  C
  C4567    1.0000 0.87780  0.60750  0.22910  Biso   1.000  C
  C4568    1.0000 0.87220  0.60750  0.52090  Biso   1.000  C
  C4569    1.0000 0.12780  0.97910  0.89250  Biso   1.000  C
  C4570    1.0000 0.62220  0.27090  0.39250  Biso   1.000  C
  C4571    1.0000 0.12780  0.27090  0.35750  Biso   1.000  C
  C4572    1.0000 0.62220  0.97910  0.85750  Biso   1.000  C
  C4573    1.0000 0.52090  0.87780  0.14250  Biso   1.000  C
  C4574    1.0000 0.52090  0.37220  0.10750  Biso   1.000  C
  C4575    1.0000 0.22910  0.37220  0.64250  Biso   1.000  C
  C4576    1.0000 0.22910  0.87780  0.60750  Biso   1.000  C
  C4577    1.0000 0.47910  0.39250  0.12780  Biso   1.000  C
  C4578    1.0000 0.77090  0.89250  0.62220  Biso   1.000  C
  C4579    1.0000 0.77090  0.85750  0.12780  Biso   1.000  C
  C4580    1.0000 0.47910  0.35750  0.62220  Biso   1.000  C
  C4581    1.0000 0.10750  0.02090  0.87220  Biso   1.000  C
  C4582    1.0000 0.10750  0.72910  0.87780  Biso   1.000  C
  C4583    1.0000 0.14250  0.52090  0.87780  Biso   1.000  C
  C4584    1.0000 0.64250  0.22910  0.37220  Biso   1.000  C
  C4585    1.0000 0.89250  0.12780  0.97910  Biso   1.000  C
  C4586    1.0000 0.89250  0.12220  0.27090  Biso   1.000  C
  C4587    1.0000 0.85750  0.12220  0.47910  Biso   1.000  C
  C4588    1.0000 0.85750  0.12780  0.77090  Biso   1.000  C
  C4589    1.0000 0.87220  0.14250  0.22910  Biso   1.000  C
  C4590    1.0000 0.87780  0.14250  0.52090  Biso   1.000  C
  C4591    1.0000 0.87780  0.10750  0.72910  Biso   1.000  C
  C4592    1.0000 0.87220  0.10750  0.02090  Biso   1.000  C
  C4593    1.0000 0.12780  0.47910  0.39250  Biso   1.000  C
  C4594    1.0000 0.62220  0.77090  0.89250  Biso   1.000  C
  C4595    1.0000 0.12780  0.77090  0.85750  Biso   1.000  C
  C4596    1.0000 0.62220  0.47910  0.35750  Biso   1.000  C
  C4597    1.0000 0.52090  0.37780  0.64250  Biso   1.000  C
  C4598    1.0000 0.52090  0.87220  0.60750  Biso   1.000  C
  C4599    1.0000 0.22910  0.87220  0.14250  Biso   1.000  C
  C4600    1.0000 0.22910  0.37780  0.10750  Biso   1.000  C
  C4601    1.0000 0.47910  0.89250  0.62780  Biso   1.000  C
  C4602    1.0000 0.77090  0.39250  0.12220  Biso   1.000  C
  C4603    1.0000 0.77090  0.35750  0.62780  Biso   1.000  C
  C4604    1.0000 0.47910  0.85750  0.12220  Biso   1.000  C
  C4605    1.0000 0.10750  0.52090  0.37220  Biso   1.000  C
  C4606    1.0000 0.10750  0.22910  0.37780  Biso   1.000  C
  C4607    1.0000 0.14250  0.02090  0.37780  Biso   1.000  C
  C4608    1.0000 0.64250  0.72910  0.87220  Biso   1.000  C
  C4609    1.0000 0.60750  0.37220  0.02090  Biso   1.000  C
  C4610    1.0000 0.60750  0.37780  0.72910  Biso   1.000  C
  C4611    1.0000 0.64250  0.37780  0.52090  Biso   1.000  C
  C4612    1.0000 0.64250  0.37220  0.22910  Biso   1.000  C
  C4613    1.0000 0.62780  0.35750  0.77090  Biso   1.000  C
  C4614    1.0000 0.62220  0.35750  0.47910  Biso   1.000  C
  C4615    1.0000 0.62220  0.39250  0.27090  Biso   1.000  C
  C4616    1.0000 0.62780  0.39250  0.97910  Biso   1.000  C
  C4617    1.0000 0.37220  0.02090  0.60750  Biso   1.000  C
  C4618    1.0000 0.87780  0.72910  0.10750  Biso   1.000  C
  C4619    1.0000 0.37220  0.72910  0.14250  Biso   1.000  C
  C4620    1.0000 0.87780  0.02090  0.64250  Biso   1.000  C
  C4621    1.0000 0.97910  0.12220  0.35750  Biso   1.000  C
  C4622    1.0000 0.97910  0.62780  0.39250  Biso   1.000  C
  C4623    1.0000 0.27090  0.62780  0.85750  Biso   1.000  C
  C4624    1.0000 0.27090  0.12220  0.89250  Biso   1.000  C
  C4625    1.0000 0.02090  0.60750  0.37220  Biso   1.000  C
  C4626    1.0000 0.72910  0.10750  0.87780  Biso   1.000  C
  C4627    1.0000 0.72910  0.14250  0.37220  Biso   1.000  C
  C4628    1.0000 0.02090  0.64250  0.87780  Biso   1.000  C
  C4629    1.0000 0.39250  0.97910  0.62780  Biso   1.000  C
  C4630    1.0000 0.39250  0.27090  0.62220  Biso   1.000  C
  C4631    1.0000 0.35750  0.47910  0.62220  Biso   1.000  C
  C4632    1.0000 0.85750  0.77090  0.12780  Biso   1.000  C
  C4633    1.0000 0.60750  0.87220  0.52090  Biso   1.000  C
  C4634    1.0000 0.60750  0.87780  0.22910  Biso   1.000  C
  C4635    1.0000 0.64250  0.87780  0.02090  Biso   1.000  C
  C4636    1.0000 0.64250  0.87220  0.72910  Biso   1.000  C
  C4637    1.0000 0.62780  0.85750  0.27090  Biso   1.000  C
  C4638    1.0000 0.62220  0.85750  0.97910  Biso   1.000  C
  C4639    1.0000 0.62220  0.89250  0.77090  Biso   1.000  C
  C4640    1.0000 0.62780  0.89250  0.47910  Biso   1.000  C
  C4641    1.0000 0.37220  0.52090  0.10750  Biso   1.000  C
  C4642    1.0000 0.87780  0.22910  0.60750  Biso   1.000  C
  C4643    1.0000 0.37220  0.22910  0.64250  Biso   1.000  C
  C4644    1.0000 0.87780  0.52090  0.14250  Biso   1.000  C
  C4645    1.0000 0.97910  0.62220  0.85750  Biso   1.000  C
  C4646    1.0000 0.97910  0.12780  0.89250  Biso   1.000  C
  C4647    1.0000 0.27090  0.12780  0.35750  Biso   1.000  C
  C4648    1.0000 0.27090  0.62220  0.39250  Biso   1.000  C
  C4649    1.0000 0.02090  0.10750  0.87220  Biso   1.000  C
  C4650    1.0000 0.72910  0.60750  0.37780  Biso   1.000  C
  C4651    1.0000 0.72910  0.64250  0.87220  Biso   1.000  C
  C4652    1.0000 0.02090  0.14250  0.37780  Biso   1.000  C
  C4653    1.0000 0.39250  0.47910  0.12780  Biso   1.000  C
  C4654    1.0000 0.39250  0.77090  0.12220  Biso   1.000  C
  C4655    1.0000 0.35750  0.97910  0.12220  Biso   1.000  C
  C4656    1.0000 0.85750  0.27090  0.62780  Biso   1.000  C
  C4657    1.0000 0.10750  0.37220  0.52090  Biso   1.000  C
  C4658    1.0000 0.10750  0.37780  0.22910  Biso   1.000  C
  C4659    1.0000 0.14250  0.37780  0.02090  Biso   1.000  C
  C4660    1.0000 0.14250  0.37220  0.72910  Biso   1.000  C
  C4661    1.0000 0.12780  0.35750  0.27090  Biso   1.000  C
  C4662    1.0000 0.12220  0.35750  0.97910  Biso   1.000  C
  C4663    1.0000 0.12220  0.39250  0.77090  Biso   1.000  C
  C4664    1.0000 0.12780  0.39250  0.47910  Biso   1.000  C
  C4665    1.0000 0.87220  0.02090  0.10750  Biso   1.000  C
  C4666    1.0000 0.37780  0.72910  0.60750  Biso   1.000  C
  C4667    1.0000 0.87220  0.72910  0.64250  Biso   1.000  C
  C4668    1.0000 0.37780  0.02090  0.14250  Biso   1.000  C
  C4669    1.0000 0.47910  0.12220  0.85750  Biso   1.000  C
  C4670    1.0000 0.47910  0.62780  0.89250  Biso   1.000  C
  C4671    1.0000 0.77090  0.62780  0.35750  Biso   1.000  C
  C4672    1.0000 0.77090  0.12220  0.39250  Biso   1.000  C
  C4673    1.0000 0.52090  0.60750  0.87220  Biso   1.000  C
  C4674    1.0000 0.22910  0.10750  0.37780  Biso   1.000  C
  C4675    1.0000 0.22910  0.14250  0.87220  Biso   1.000  C
  C4676    1.0000 0.52090  0.64250  0.37780  Biso   1.000  C
  C4677    1.0000 0.89250  0.97910  0.12780  Biso   1.000  C
  C4678    1.0000 0.89250  0.27090  0.12220  Biso   1.000  C
  C4679    1.0000 0.85750  0.47910  0.12220  Biso   1.000  C
  C4680    1.0000 0.35750  0.77090  0.62780  Biso   1.000  C
  C4681    1.0000 0.10750  0.87220  0.02090  Biso   1.000  C
  C4682    1.0000 0.10750  0.87780  0.72910  Biso   1.000  C
  C4683    1.0000 0.14250  0.87780  0.52090  Biso   1.000  C
  C4684    1.0000 0.14250  0.87220  0.22910  Biso   1.000  C
  C4685    1.0000 0.12780  0.85750  0.77090  Biso   1.000  C
  C4686    1.0000 0.12220  0.85750  0.47910  Biso   1.000  C
  C4687    1.0000 0.12220  0.89250  0.27090  Biso   1.000  C
  C4688    1.0000 0.12780  0.89250  0.97910  Biso   1.000  C
  C4689    1.0000 0.87220  0.52090  0.60750  Biso   1.000  C
  C4690    1.0000 0.37780  0.22910  0.10750  Biso   1.000  C
  C4691    1.0000 0.87220  0.22910  0.14250  Biso   1.000  C
  C4692    1.0000 0.37780  0.52090  0.64250  Biso   1.000  C
  C4693    1.0000 0.47910  0.62220  0.35750  Biso   1.000  C
  C4694    1.0000 0.47910  0.12780  0.39250  Biso   1.000  C
  C4695    1.0000 0.77090  0.12780  0.85750  Biso   1.000  C
  C4696    1.0000 0.77090  0.62220  0.89250  Biso   1.000  C
  C4697    1.0000 0.52090  0.10750  0.37220  Biso   1.000  C
  C4698    1.0000 0.22910  0.60750  0.87780  Biso   1.000  C
  C4699    1.0000 0.22910  0.64250  0.37220  Biso   1.000  C
  C4700    1.0000 0.52090  0.14250  0.87780  Biso   1.000  C
  C4701    1.0000 0.89250  0.47910  0.62780  Biso   1.000  C
  C4702    1.0000 0.89250  0.77090  0.62220  Biso   1.000  C
  C4703    1.0000 0.85750  0.97910  0.62220  Biso   1.000  C
  C4704    1.0000 0.35750  0.27090  0.12780  Biso   1.000  C
  C4705    1.0000 0.37311  0.64560  0.91370  Biso   1.000  C
  C4706    1.0000 0.37311  0.60440  0.33630  Biso   1.000  C
  C4707    1.0000 0.37689  0.60440  0.41370  Biso   1.000  C
  C4708    1.0000 0.37689  0.64560  0.83630  Biso   1.000  C
  C4709    1.0000 0.35440  0.62311  0.16370  Biso   1.000  C
  C4710    1.0000 0.39560  0.62311  0.58630  Biso   1.000  C
  C4711    1.0000 0.39560  0.62689  0.66370  Biso   1.000  C
  C4712    1.0000 0.35440  0.62689  0.08630  Biso   1.000  C
  C4713    1.0000 0.64560  0.91370  0.37311  Biso   1.000  C
  C4714    1.0000 0.10440  0.33630  0.87311  Biso   1.000  C
  C4715    1.0000 0.64560  0.33630  0.87689  Biso   1.000  C
  C4716    1.0000 0.10440  0.91370  0.37689  Biso   1.000  C
  C4717    1.0000 0.08630  0.89560  0.62311  Biso   1.000  C
  C4718    1.0000 0.08630  0.35440  0.62689  Biso   1.000  C
  C4719    1.0000 0.66370  0.35440  0.12311  Biso   1.000  C
  C4720    1.0000 0.66370  0.89560  0.12689  Biso   1.000  C
  C4721    1.0000 0.91370  0.37311  0.64560  Biso   1.000  C
  C4722    1.0000 0.33630  0.87311  0.10440  Biso   1.000  C
  C4723    1.0000 0.33630  0.87689  0.64560  Biso   1.000  C
  C4724    1.0000 0.91370  0.37689  0.10440  Biso   1.000  C
  C4725    1.0000 0.62689  0.08630  0.35440  Biso   1.000  C
  C4726    1.0000 0.62689  0.66370  0.39560  Biso   1.000  C
  C4727    1.0000 0.62311  0.58630  0.39560  Biso   1.000  C
  C4728    1.0000 0.12311  0.16370  0.85440  Biso   1.000  C
  C4729    1.0000 0.37311  0.14560  0.41370  Biso   1.000  C
  C4730    1.0000 0.37311  0.10440  0.83630  Biso   1.000  C
  C4731    1.0000 0.37689  0.10440  0.91370  Biso   1.000  C
  C4732    1.0000 0.37689  0.14560  0.33630  Biso   1.000  C
  C4733    1.0000 0.35440  0.12311  0.66370  Biso   1.000  C
  C4734    1.0000 0.39560  0.12311  0.08630  Biso   1.000  C
  C4735    1.0000 0.39560  0.12689  0.16370  Biso   1.000  C
  C4736    1.0000 0.35440  0.12689  0.58630  Biso   1.000  C
  C4737    1.0000 0.64560  0.41370  0.87311  Biso   1.000  C
  C4738    1.0000 0.10440  0.83630  0.37311  Biso   1.000  C
  C4739    1.0000 0.64560  0.83630  0.37689  Biso   1.000  C
  C4740    1.0000 0.10440  0.41370  0.87689  Biso   1.000  C
  C4741    1.0000 0.08630  0.39560  0.12311  Biso   1.000  C
  C4742    1.0000 0.08630  0.85440  0.12689  Biso   1.000  C
  C4743    1.0000 0.66370  0.85440  0.62311  Biso   1.000  C
  C4744    1.0000 0.66370  0.39560  0.62689  Biso   1.000  C
  C4745    1.0000 0.91370  0.87311  0.14560  Biso   1.000  C
  C4746    1.0000 0.33630  0.37311  0.60440  Biso   1.000  C
  C4747    1.0000 0.33630  0.37689  0.14560  Biso   1.000  C
  C4748    1.0000 0.91370  0.87689  0.60440  Biso   1.000  C
  C4749    1.0000 0.62689  0.58630  0.85440  Biso   1.000  C
  C4750    1.0000 0.62689  0.16370  0.89560  Biso   1.000  C
  C4751    1.0000 0.62311  0.08630  0.89560  Biso   1.000  C
  C4752    1.0000 0.12311  0.66370  0.35440  Biso   1.000  C
  C4753    1.0000 0.87311  0.64560  0.41370  Biso   1.000  C
  C4754    1.0000 0.87311  0.60440  0.83630  Biso   1.000  C
  C4755    1.0000 0.87689  0.60440  0.91370  Biso   1.000  C
  C4756    1.0000 0.87689  0.64560  0.33630  Biso   1.000  C
  C4757    1.0000 0.85440  0.62311  0.66370  Biso   1.000  C
  C4758    1.0000 0.89560  0.62311  0.08630  Biso   1.000  C
  C4759    1.0000 0.89560  0.62689  0.16370  Biso   1.000  C
  C4760    1.0000 0.85440  0.62689  0.58630  Biso   1.000  C
  C4761    1.0000 0.14560  0.91370  0.87311  Biso   1.000  C
  C4762    1.0000 0.60440  0.33630  0.37311  Biso   1.000  C
  C4763    1.0000 0.14560  0.33630  0.37689  Biso   1.000  C
  C4764    1.0000 0.60440  0.91370  0.87689  Biso   1.000  C
  C4765    1.0000 0.58630  0.89560  0.12311  Biso   1.000  C
  C4766    1.0000 0.58630  0.35440  0.12689  Biso   1.000  C
  C4767    1.0000 0.16370  0.35440  0.62311  Biso   1.000  C
  C4768    1.0000 0.16370  0.89560  0.62689  Biso   1.000  C
  C4769    1.0000 0.41370  0.37311  0.14560  Biso   1.000  C
  C4770    1.0000 0.83630  0.87311  0.60440  Biso   1.000  C
  C4771    1.0000 0.83630  0.87689  0.14560  Biso   1.000  C
  C4772    1.0000 0.41370  0.37689  0.60440  Biso   1.000  C
  C4773    1.0000 0.12689  0.08630  0.85440  Biso   1.000  C
  C4774    1.0000 0.12689  0.66370  0.89560  Biso   1.000  C
  C4775    1.0000 0.12311  0.58630  0.89560  Biso   1.000  C
  C4776    1.0000 0.62311  0.16370  0.35440  Biso   1.000  C
  C4777    1.0000 0.87311  0.14560  0.91370  Biso   1.000  C
  C4778    1.0000 0.87311  0.10440  0.33630  Biso   1.000  C
  C4779    1.0000 0.87689  0.10440  0.41370  Biso   1.000  C
  C4780    1.0000 0.87689  0.14560  0.83630  Biso   1.000  C
  C4781    1.0000 0.85440  0.12311  0.16370  Biso   1.000  C
  C4782    1.0000 0.89560  0.12311  0.58630  Biso   1.000  C
  C4783    1.0000 0.89560  0.12689  0.66370  Biso   1.000  C
  C4784    1.0000 0.85440  0.12689  0.08630  Biso   1.000  C
  C4785    1.0000 0.14560  0.41370  0.37311  Biso   1.000  C
  C4786    1.0000 0.60440  0.83630  0.87311  Biso   1.000  C
  C4787    1.0000 0.14560  0.83630  0.87689  Biso   1.000  C
  C4788    1.0000 0.60440  0.41370  0.37689  Biso   1.000  C
  C4789    1.0000 0.58630  0.39560  0.62311  Biso   1.000  C
  C4790    1.0000 0.58630  0.85440  0.62689  Biso   1.000  C
  C4791    1.0000 0.16370  0.85440  0.12311  Biso   1.000  C
  C4792    1.0000 0.16370  0.39560  0.12689  Biso   1.000  C
  C4793    1.0000 0.41370  0.87311  0.64560  Biso   1.000  C
  C4794    1.0000 0.83630  0.37311  0.10440  Biso   1.000  C
  C4795    1.0000 0.83630  0.37689  0.64560  Biso   1.000  C
  C4796    1.0000 0.41370  0.87689  0.10440  Biso   1.000  C
  C4797    1.0000 0.12689  0.58630  0.35440  Biso   1.000  C
  C4798    1.0000 0.12689  0.16370  0.39560  Biso   1.000  C
  C4799    1.0000 0.12311  0.08630  0.39560  Biso   1.000  C
  C4800    1.0000 0.62311  0.66370  0.85440  Biso   1.000  C
  C4801    1.0000 0.62689  0.35440  0.08630  Biso   1.000  C
  C4802    1.0000 0.62689  0.39560  0.66370  Biso   1.000  C
  C4803    1.0000 0.62311  0.39560  0.58630  Biso   1.000  C
  C4804    1.0000 0.62311  0.35440  0.16370  Biso   1.000  C
  C4805    1.0000 0.64560  0.37689  0.83630  Biso   1.000  C
  C4806    1.0000 0.60440  0.37689  0.41370  Biso   1.000  C
  C4807    1.0000 0.60440  0.37311  0.33630  Biso   1.000  C
  C4808    1.0000 0.64560  0.37311  0.91370  Biso   1.000  C
  C4809    1.0000 0.35440  0.08630  0.62689  Biso   1.000  C
  C4810    1.0000 0.89560  0.66370  0.12689  Biso   1.000  C
  C4811    1.0000 0.35440  0.66370  0.12311  Biso   1.000  C
  C4812    1.0000 0.89560  0.08630  0.62311  Biso   1.000  C
  C4813    1.0000 0.91370  0.10440  0.37689  Biso   1.000  C
  C4814    1.0000 0.91370  0.64560  0.37311  Biso   1.000  C
  C4815    1.0000 0.33630  0.64560  0.87689  Biso   1.000  C
  C4816    1.0000 0.33630  0.10440  0.87311  Biso   1.000  C
  C4817    1.0000 0.08630  0.62689  0.35440  Biso   1.000  C
  C4818    1.0000 0.66370  0.12689  0.89560  Biso   1.000  C
  C4819    1.0000 0.66370  0.12311  0.35440  Biso   1.000  C
  C4820    1.0000 0.08630  0.62311  0.89560  Biso   1.000  C
  C4821    1.0000 0.37311  0.91370  0.64560  Biso   1.000  C
  C4822    1.0000 0.37311  0.33630  0.60440  Biso   1.000  C
  C4823    1.0000 0.37689  0.41370  0.60440  Biso   1.000  C
  C4824    1.0000 0.87689  0.83630  0.14560  Biso   1.000  C
  C4825    1.0000 0.62689  0.85440  0.58630  Biso   1.000  C
  C4826    1.0000 0.62689  0.89560  0.16370  Biso   1.000  C
  C4827    1.0000 0.62311  0.89560  0.08630  Biso   1.000  C
  C4828    1.0000 0.62311  0.85440  0.66370  Biso   1.000  C
  C4829    1.0000 0.64560  0.87689  0.33630  Biso   1.000  C
  C4830    1.0000 0.60440  0.87689  0.91370  Biso   1.000  C
  C4831    1.0000 0.60440  0.87311  0.83630  Biso   1.000  C
  C4832    1.0000 0.64560  0.87311  0.41370  Biso   1.000  C
  C4833    1.0000 0.35440  0.58630  0.12689  Biso   1.000  C
  C4834    1.0000 0.89560  0.16370  0.62689  Biso   1.000  C
  C4835    1.0000 0.35440  0.16370  0.62311  Biso   1.000  C
  C4836    1.0000 0.89560  0.58630  0.12311  Biso   1.000  C
  C4837    1.0000 0.91370  0.60440  0.87689  Biso   1.000  C
  C4838    1.0000 0.91370  0.14560  0.87311  Biso   1.000  C
  C4839    1.0000 0.33630  0.14560  0.37689  Biso   1.000  C
  C4840    1.0000 0.33630  0.60440  0.37311  Biso   1.000  C
  C4841    1.0000 0.08630  0.12689  0.85440  Biso   1.000  C
  C4842    1.0000 0.66370  0.62689  0.39560  Biso   1.000  C
  C4843    1.0000 0.66370  0.62311  0.85440  Biso   1.000  C
  C4844    1.0000 0.08630  0.12311  0.39560  Biso   1.000  C
  C4845    1.0000 0.37311  0.41370  0.14560  Biso   1.000  C
  C4846    1.0000 0.37311  0.83630  0.10440  Biso   1.000  C
  C4847    1.0000 0.37689  0.91370  0.10440  Biso   1.000  C
  C4848    1.0000 0.87689  0.33630  0.64560  Biso   1.000  C
  C4849    1.0000 0.12689  0.35440  0.58630  Biso   1.000  C
  C4850    1.0000 0.12689  0.39560  0.16370  Biso   1.000  C
  C4851    1.0000 0.12311  0.39560  0.08630  Biso   1.000  C
  C4852    1.0000 0.12311  0.35440  0.66370  Biso   1.000  C
  C4853    1.0000 0.14560  0.37689  0.33630  Biso   1.000  C
  C4854    1.0000 0.10440  0.37689  0.91370  Biso   1.000  C
  C4855    1.0000 0.10440  0.37311  0.83630  Biso   1.000  C
  C4856    1.0000 0.14560  0.37311  0.41370  Biso   1.000  C
  C4857    1.0000 0.85440  0.08630  0.12689  Biso   1.000  C
  C4858    1.0000 0.39560  0.66370  0.62689  Biso   1.000  C
  C4859    1.0000 0.85440  0.66370  0.62311  Biso   1.000  C
  C4860    1.0000 0.39560  0.08630  0.12311  Biso   1.000  C
  C4861    1.0000 0.41370  0.10440  0.87689  Biso   1.000  C
  C4862    1.0000 0.41370  0.64560  0.87311  Biso   1.000  C
  C4863    1.0000 0.83630  0.64560  0.37689  Biso   1.000  C
  C4864    1.0000 0.83630  0.10440  0.37311  Biso   1.000  C
  C4865    1.0000 0.58630  0.62689  0.85440  Biso   1.000  C
  C4866    1.0000 0.16370  0.12689  0.39560  Biso   1.000  C
  C4867    1.0000 0.16370  0.12311  0.85440  Biso   1.000  C
  C4868    1.0000 0.58630  0.62311  0.39560  Biso   1.000  C
  C4869    1.0000 0.87311  0.91370  0.14560  Biso   1.000  C
  C4870    1.0000 0.87311  0.33630  0.10440  Biso   1.000  C
  C4871    1.0000 0.87689  0.41370  0.10440  Biso   1.000  C
  C4872    1.0000 0.37689  0.83630  0.64560  Biso   1.000  C
  C4873    1.0000 0.12689  0.85440  0.08630  Biso   1.000  C
  C4874    1.0000 0.12689  0.89560  0.66370  Biso   1.000  C
  C4875    1.0000 0.12311  0.89560  0.58630  Biso   1.000  C
  C4876    1.0000 0.12311  0.85440  0.16370  Biso   1.000  C
  C4877    1.0000 0.14560  0.87689  0.83630  Biso   1.000  C
  C4878    1.0000 0.10440  0.87689  0.41370  Biso   1.000  C
  C4879    1.0000 0.10440  0.87311  0.33630  Biso   1.000  C
  C4880    1.0000 0.14560  0.87311  0.91370  Biso   1.000  C
  C4881    1.0000 0.85440  0.58630  0.62689  Biso   1.000  C
  C4882    1.0000 0.39560  0.16370  0.12689  Biso   1.000  C
  C4883    1.0000 0.85440  0.16370  0.12311  Biso   1.000  C
  C4884    1.0000 0.39560  0.58630  0.62311  Biso   1.000  C
  C4885    1.0000 0.41370  0.60440  0.37689  Biso   1.000  C
  C4886    1.0000 0.41370  0.14560  0.37311  Biso   1.000  C
  C4887    1.0000 0.83630  0.14560  0.87689  Biso   1.000  C
  C4888    1.0000 0.83630  0.60440  0.87311  Biso   1.000  C
  C4889    1.0000 0.58630  0.12689  0.35440  Biso   1.000  C
  C4890    1.0000 0.16370  0.62689  0.89560  Biso   1.000  C
  C4891    1.0000 0.16370  0.62311  0.35440  Biso   1.000  C
  C4892    1.0000 0.58630  0.12311  0.89560  Biso   1.000  C
  C4893    1.0000 0.87311  0.41370  0.64560  Biso   1.000  C
  C4894    1.0000 0.87311  0.83630  0.60440  Biso   1.000  C
  C4895    1.0000 0.87689  0.91370  0.60440  Biso   1.000  C
  C4896    1.0000 0.37689  0.33630  0.14560  Biso   1.000  C
  Al1      1.0000 0.16073  0.58927  0.05788  Biso   1.000  Al
  Al2      1.0000 0.16073  0.66073  0.19212  Biso   1.000  Al
  Al3      1.0000 0.58927  0.66073  0.55788  Biso   1.000  Al
  Al4      1.0000 0.58927  0.58927  0.69212  Biso   1.000  Al
  Al5      1.0000 0.41073  0.41073  0.30788  Biso   1.000  Al
  Al6      1.0000 0.33927  0.41073  0.44212  Biso   1.000  Al
  Al7      1.0000 0.33927  0.83927  0.80788  Biso   1.000  Al
  Al8      1.0000 0.41073  0.83927  0.94212  Biso   1.000  Al
  Al9      1.0000 0.58927  0.05788  0.16073  Biso   1.000  Al
  Al10     1.0000 0.16073  0.19212  0.66073  Biso   1.000  Al
  Al11     1.0000 0.58927  0.19212  0.08927  Biso   1.000  Al
  Al12     1.0000 0.16073  0.05788  0.58927  Biso   1.000  Al
  Al13     1.0000 0.94212  0.83927  0.41073  Biso   1.000  Al
  Al14     1.0000 0.94212  0.41073  0.83927  Biso   1.000  Al
  Al15     1.0000 0.80788  0.41073  0.91073  Biso   1.000  Al
  Al16     1.0000 0.80788  0.83927  0.33927  Biso   1.000  Al
  Al17     1.0000 0.05788  0.16073  0.58927  Biso   1.000  Al
  Al18     1.0000 0.19212  0.66073  0.16073  Biso   1.000  Al
  Al19     1.0000 0.19212  0.08927  0.58927  Biso   1.000  Al
  Al20     1.0000 0.05788  0.58927  0.16073  Biso   1.000  Al
  Al21     1.0000 0.83927  0.94212  0.41073  Biso   1.000  Al
  Al22     1.0000 0.83927  0.80788  0.33927  Biso   1.000  Al
  Al23     1.0000 0.41073  0.44212  0.33927  Biso   1.000  Al
  Al24     1.0000 0.91073  0.30788  0.91073  Biso   1.000  Al
  Al25     1.0000 0.16073  0.08927  0.55788  Biso   1.000  Al
  Al26     1.0000 0.16073  0.16073  0.69212  Biso   1.000  Al
  Al27     1.0000 0.58927  0.16073  0.05788  Biso   1.000  Al
  Al28     1.0000 0.58927  0.08927  0.19212  Biso   1.000  Al
  Al29     1.0000 0.41073  0.91073  0.80788  Biso   1.000  Al
  Al30     1.0000 0.33927  0.91073  0.94212  Biso   1.000  Al
  Al31     1.0000 0.33927  0.33927  0.30788  Biso   1.000  Al
  Al32     1.0000 0.41073  0.33927  0.44212  Biso   1.000  Al
  Al33     1.0000 0.58927  0.55788  0.66073  Biso   1.000  Al
  Al34     1.0000 0.16073  0.69212  0.16073  Biso   1.000  Al
  Al35     1.0000 0.58927  0.69212  0.58927  Biso   1.000  Al
  Al36     1.0000 0.16073  0.55788  0.08927  Biso   1.000  Al
  Al37     1.0000 0.94212  0.33927  0.91073  Biso   1.000  Al
  Al38     1.0000 0.94212  0.91073  0.33927  Biso   1.000  Al
  Al39     1.0000 0.80788  0.91073  0.41073  Biso   1.000  Al
  Al40     1.0000 0.80788  0.33927  0.83927  Biso   1.000  Al
  Al41     1.0000 0.05788  0.66073  0.08927  Biso   1.000  Al
  Al42     1.0000 0.19212  0.16073  0.66073  Biso   1.000  Al
  Al43     1.0000 0.19212  0.58927  0.08927  Biso   1.000  Al
  Al44     1.0000 0.05788  0.08927  0.66073  Biso   1.000  Al
  Al45     1.0000 0.83927  0.44212  0.91073  Biso   1.000  Al
  Al46     1.0000 0.83927  0.30788  0.83927  Biso   1.000  Al
  Al47     1.0000 0.41073  0.94212  0.83927  Biso   1.000  Al
  Al48     1.0000 0.91073  0.80788  0.41073  Biso   1.000  Al
  Al49     1.0000 0.66073  0.58927  0.55788  Biso   1.000  Al
  Al50     1.0000 0.66073  0.66073  0.69212  Biso   1.000  Al
  Al51     1.0000 0.08927  0.66073  0.05788  Biso   1.000  Al
  Al52     1.0000 0.08927  0.58927  0.19212  Biso   1.000  Al
  Al53     1.0000 0.91073  0.41073  0.80788  Biso   1.000  Al
  Al54     1.0000 0.83927  0.41073  0.94212  Biso   1.000  Al
  Al55     1.0000 0.83927  0.83927  0.30788  Biso   1.000  Al
  Al56     1.0000 0.91073  0.83927  0.44212  Biso   1.000  Al
  Al57     1.0000 0.08927  0.05788  0.66073  Biso   1.000  Al
  Al58     1.0000 0.66073  0.19212  0.16073  Biso   1.000  Al
  Al59     1.0000 0.08927  0.19212  0.58927  Biso   1.000  Al
  Al60     1.0000 0.66073  0.05788  0.08927  Biso   1.000  Al
  Al61     1.0000 0.44212  0.83927  0.91073  Biso   1.000  Al
  Al62     1.0000 0.44212  0.41073  0.33927  Biso   1.000  Al
  Al63     1.0000 0.30788  0.41073  0.41073  Biso   1.000  Al
  Al64     1.0000 0.30788  0.83927  0.83927  Biso   1.000  Al
  Al65     1.0000 0.55788  0.16073  0.08927  Biso   1.000  Al
  Al66     1.0000 0.69212  0.66073  0.66073  Biso   1.000  Al
  Al67     1.0000 0.69212  0.08927  0.08927  Biso   1.000  Al
  Al68     1.0000 0.55788  0.58927  0.66073  Biso   1.000  Al
  Al69     1.0000 0.33927  0.94212  0.91073  Biso   1.000  Al
  Al70     1.0000 0.33927  0.80788  0.83927  Biso   1.000  Al
  Al71     1.0000 0.91073  0.44212  0.83927  Biso   1.000  Al
  Al72     1.0000 0.41073  0.30788  0.41073  Biso   1.000  Al
  Al73     1.0000 0.66073  0.08927  0.05788  Biso   1.000  Al
  Al74     1.0000 0.66073  0.16073  0.19212  Biso   1.000  Al
  Al75     1.0000 0.08927  0.16073  0.55788  Biso   1.000  Al
  Al76     1.0000 0.08927  0.08927  0.69212  Biso   1.000  Al
  Al77     1.0000 0.91073  0.91073  0.30788  Biso   1.000  Al
  Al78     1.0000 0.83927  0.91073  0.44212  Biso   1.000  Al
  Al79     1.0000 0.83927  0.33927  0.80788  Biso   1.000  Al
  Al80     1.0000 0.91073  0.33927  0.94212  Biso   1.000  Al
  Al81     1.0000 0.08927  0.55788  0.16073  Biso   1.000  Al
  Al82     1.0000 0.66073  0.69212  0.66073  Biso   1.000  Al
  Al83     1.0000 0.08927  0.69212  0.08927  Biso   1.000  Al
  Al84     1.0000 0.66073  0.55788  0.58927  Biso   1.000  Al
  Al85     1.0000 0.44212  0.33927  0.41073  Biso   1.000  Al
  Al86     1.0000 0.44212  0.91073  0.83927  Biso   1.000  Al
  Al87     1.0000 0.30788  0.91073  0.91073  Biso   1.000  Al
  Al88     1.0000 0.30788  0.33927  0.33927  Biso   1.000  Al
  Al89     1.0000 0.55788  0.66073  0.58927  Biso   1.000  Al
  Al90     1.0000 0.69212  0.16073  0.16073  Biso   1.000  Al
  Al91     1.0000 0.69212  0.58927  0.58927  Biso   1.000  Al
  Al92     1.0000 0.55788  0.08927  0.16073  Biso   1.000  Al
  Al93     1.0000 0.33927  0.44212  0.41073  Biso   1.000  Al
  Al94     1.0000 0.33927  0.30788  0.33927  Biso   1.000  Al
  Al95     1.0000 0.91073  0.94212  0.33927  Biso   1.000  Al
  Al96     1.0000 0.41073  0.80788  0.91073  Biso   1.000  Al
  Al97     1.0000 0.38424  0.58949  0.98754  Biso   1.000  Al
  Al98     1.0000 0.38424  0.66051  0.26246  Biso   1.000  Al
  Al99     1.0000 0.36576  0.66051  0.48754  Biso   1.000  Al
  Al100    1.0000 0.36576  0.58949  0.76246  Biso   1.000  Al
  Al101    1.0000 0.41051  0.63424  0.23754  Biso   1.000  Al
  Al102    1.0000 0.33949  0.63424  0.51246  Biso   1.000  Al
  Al103    1.0000 0.33949  0.61576  0.73754  Biso   1.000  Al
  Al104    1.0000 0.41051  0.61576  0.01246  Biso   1.000  Al
  Al105    1.0000 0.58949  0.98754  0.38424  Biso   1.000  Al
  Al106    1.0000 0.16051  0.26246  0.88424  Biso   1.000  Al
  Al107    1.0000 0.58949  0.26246  0.86576  Biso   1.000  Al
  Al108    1.0000 0.16051  0.98754  0.36576  Biso   1.000  Al
  Al109    1.0000 0.01246  0.83949  0.63424  Biso   1.000  Al
  Al110    1.0000 0.01246  0.41051  0.61576  Biso   1.000  Al
  Al111    1.0000 0.73754  0.41051  0.13424  Biso   1.000  Al
  Al112    1.0000 0.73754  0.83949  0.11576  Biso   1.000  Al
  Al113    1.0000 0.98754  0.38424  0.58949  Biso   1.000  Al
  Al114    1.0000 0.26246  0.88424  0.16051  Biso   1.000  Al
  Al115    1.0000 0.26246  0.86576  0.58949  Biso   1.000  Al
  Al116    1.0000 0.98754  0.36576  0.16051  Biso   1.000  Al
  Al117    1.0000 0.61576  0.01246  0.41051  Biso   1.000  Al
  Al118    1.0000 0.61576  0.73754  0.33949  Biso   1.000  Al
  Al119    1.0000 0.63424  0.51246  0.33949  Biso   1.000  Al
  Al120    1.0000 0.13424  0.23754  0.91051  Biso   1.000  Al
  Al121    1.0000 0.38424  0.08949  0.48754  Biso   1.000  Al
  Al122    1.0000 0.38424  0.16051  0.76246  Biso   1.000  Al
  Al123    1.0000 0.36576  0.16051  0.98754  Biso   1.000  Al
  Al124    1.0000 0.36576  0.08949  0.26246  Biso   1.000  Al
  Al125    1.0000 0.41051  0.13424  0.73754  Biso   1.000  Al
  Al126    1.0000 0.33949  0.13424  0.01246  Biso   1.000  Al
  Al127    1.0000 0.33949  0.11576  0.23754  Biso   1.000  Al
  Al128    1.0000 0.41051  0.11576  0.51246  Biso   1.000  Al
  Al129    1.0000 0.58949  0.48754  0.88424  Biso   1.000  Al
  Al130    1.0000 0.16051  0.76246  0.38424  Biso   1.000  Al
  Al131    1.0000 0.58949  0.76246  0.36576  Biso   1.000  Al
  Al132    1.0000 0.16051  0.48754  0.86576  Biso   1.000  Al
  Al133    1.0000 0.01246  0.33949  0.13424  Biso   1.000  Al
  Al134    1.0000 0.01246  0.91051  0.11576  Biso   1.000  Al
  Al135    1.0000 0.73754  0.91051  0.63424  Biso   1.000  Al
  Al136    1.0000 0.73754  0.33949  0.61576  Biso   1.000  Al
  Al137    1.0000 0.98754  0.88424  0.08949  Biso   1.000  Al
  Al138    1.0000 0.26246  0.38424  0.66051  Biso   1.000  Al
  Al139    1.0000 0.26246  0.36576  0.08949  Biso   1.000  Al
  Al140    1.0000 0.98754  0.86576  0.66051  Biso   1.000  Al
  Al141    1.0000 0.61576  0.51246  0.91051  Biso   1.000  Al
  Al142    1.0000 0.61576  0.23754  0.83949  Biso   1.000  Al
  Al143    1.0000 0.63424  0.01246  0.83949  Biso   1.000  Al
  Al144    1.0000 0.13424  0.73754  0.41051  Biso   1.000  Al
  Al145    1.0000 0.88424  0.58949  0.48754  Biso   1.000  Al
  Al146    1.0000 0.88424  0.66051  0.76246  Biso   1.000  Al
  Al147    1.0000 0.86576  0.66051  0.98754  Biso   1.000  Al
  Al148    1.0000 0.86576  0.58949  0.26246  Biso   1.000  Al
  Al149    1.0000 0.91051  0.63424  0.73754  Biso   1.000  Al
  Al150    1.0000 0.83949  0.63424  0.01246  Biso   1.000  Al
  Al151    1.0000 0.83949  0.61576  0.23754  Biso   1.000  Al
  Al152    1.0000 0.91051  0.61576  0.51246  Biso   1.000  Al
  Al153    1.0000 0.08949  0.98754  0.88424  Biso   1.000  Al
  Al154    1.0000 0.66051  0.26246  0.38424  Biso   1.000  Al
  Al155    1.0000 0.08949  0.26246  0.36576  Biso   1.000  Al
  Al156    1.0000 0.66051  0.98754  0.86576  Biso   1.000  Al
  Al157    1.0000 0.51246  0.83949  0.13424  Biso   1.000  Al
  Al158    1.0000 0.51246  0.41051  0.11576  Biso   1.000  Al
  Al159    1.0000 0.23754  0.41051  0.63424  Biso   1.000  Al
  Al160    1.0000 0.23754  0.83949  0.61576  Biso   1.000  Al
  Al161    1.0000 0.48754  0.38424  0.08949  Biso   1.000  Al
  Al162    1.0000 0.76246  0.88424  0.66051  Biso   1.000  Al
  Al163    1.0000 0.76246  0.86576  0.08949  Biso   1.000  Al
  Al164    1.0000 0.48754  0.36576  0.66051  Biso   1.000  Al
  Al165    1.0000 0.11576  0.01246  0.91051  Biso   1.000  Al
  Al166    1.0000 0.11576  0.73754  0.83949  Biso   1.000  Al
  Al167    1.0000 0.13424  0.51246  0.83949  Biso   1.000  Al
  Al168    1.0000 0.63424  0.23754  0.41051  Biso   1.000  Al
  Al169    1.0000 0.88424  0.08949  0.98754  Biso   1.000  Al
  Al170    1.0000 0.88424  0.16051  0.26246  Biso   1.000  Al
  Al171    1.0000 0.86576  0.16051  0.48754  Biso   1.000  Al
  Al172    1.0000 0.86576  0.08949  0.76246  Biso   1.000  Al
  Al173    1.0000 0.91051  0.13424  0.23754  Biso   1.000  Al
  Al174    1.0000 0.83949  0.13424  0.51246  Biso   1.000  Al
  Al175    1.0000 0.83949  0.11576  0.73754  Biso   1.000  Al
  Al176    1.0000 0.91051  0.11576  0.01246  Biso   1.000  Al
  Al177    1.0000 0.08949  0.48754  0.38424  Biso   1.000  Al
  Al178    1.0000 0.66051  0.76246  0.88424  Biso   1.000  Al
  Al179    1.0000 0.08949  0.76246  0.86576  Biso   1.000  Al
  Al180    1.0000 0.66051  0.48754  0.36576  Biso   1.000  Al
  Al181    1.0000 0.51246  0.33949  0.63424  Biso   1.000  Al
  Al182    1.0000 0.51246  0.91051  0.61576  Biso   1.000  Al
  Al183    1.0000 0.23754  0.91051  0.13424  Biso   1.000  Al
  Al184    1.0000 0.23754  0.33949  0.11576  Biso   1.000  Al
  Al185    1.0000 0.48754  0.88424  0.58949  Biso   1.000  Al
  Al186    1.0000 0.76246  0.38424  0.16051  Biso   1.000  Al
  Al187    1.0000 0.76246  0.36576  0.58949  Biso   1.000  Al
  Al188    1.0000 0.48754  0.86576  0.16051  Biso   1.000  Al
  Al189    1.0000 0.11576  0.51246  0.41051  Biso   1.000  Al
  Al190    1.0000 0.11576  0.23754  0.33949  Biso   1.000  Al
  Al191    1.0000 0.13424  0.01246  0.33949  Biso   1.000  Al
  Al192    1.0000 0.63424  0.73754  0.91051  Biso   1.000  Al
  Al193    1.0000 0.61576  0.41051  0.01246  Biso   1.000  Al
  Al194    1.0000 0.61576  0.33949  0.73754  Biso   1.000  Al
  Al195    1.0000 0.63424  0.33949  0.51246  Biso   1.000  Al
  Al196    1.0000 0.63424  0.41051  0.23754  Biso   1.000  Al
  Al197    1.0000 0.58949  0.36576  0.76246  Biso   1.000  Al
  Al198    1.0000 0.66051  0.36576  0.48754  Biso   1.000  Al
  Al199    1.0000 0.66051  0.38424  0.26246  Biso   1.000  Al
  Al200    1.0000 0.58949  0.38424  0.98754  Biso   1.000  Al
  Al201    1.0000 0.41051  0.01246  0.61576  Biso   1.000  Al
  Al202    1.0000 0.83949  0.73754  0.11576  Biso   1.000  Al
  Al203    1.0000 0.41051  0.73754  0.13424  Biso   1.000  Al
  Al204    1.0000 0.83949  0.01246  0.63424  Biso   1.000  Al
  Al205    1.0000 0.98754  0.16051  0.36576  Biso   1.000  Al
  Al206    1.0000 0.98754  0.58949  0.38424  Biso   1.000  Al
  Al207    1.0000 0.26246  0.58949  0.86576  Biso   1.000  Al
  Al208    1.0000 0.26246  0.16051  0.88424  Biso   1.000  Al
  Al209    1.0000 0.01246  0.61576  0.41051  Biso   1.000  Al
  Al210    1.0000 0.73754  0.11576  0.83949  Biso   1.000  Al
  Al211    1.0000 0.73754  0.13424  0.41051  Biso   1.000  Al
  Al212    1.0000 0.01246  0.63424  0.83949  Biso   1.000  Al
  Al213    1.0000 0.38424  0.98754  0.58949  Biso   1.000  Al
  Al214    1.0000 0.38424  0.26246  0.66051  Biso   1.000  Al
  Al215    1.0000 0.36576  0.48754  0.66051  Biso   1.000  Al
  Al216    1.0000 0.86576  0.76246  0.08949  Biso   1.000  Al
  Al217    1.0000 0.61576  0.91051  0.51246  Biso   1.000  Al
  Al218    1.0000 0.61576  0.83949  0.23754  Biso   1.000  Al
  Al219    1.0000 0.63424  0.83949  0.01246  Biso   1.000  Al
  Al220    1.0000 0.63424  0.91051  0.73754  Biso   1.000  Al
  Al221    1.0000 0.58949  0.86576  0.26246  Biso   1.000  Al
  Al222    1.0000 0.66051  0.86576  0.98754  Biso   1.000  Al
  Al223    1.0000 0.66051  0.88424  0.76246  Biso   1.000  Al
  Al224    1.0000 0.58949  0.88424  0.48754  Biso   1.000  Al
  Al225    1.0000 0.41051  0.51246  0.11576  Biso   1.000  Al
  Al226    1.0000 0.83949  0.23754  0.61576  Biso   1.000  Al
  Al227    1.0000 0.41051  0.23754  0.63424  Biso   1.000  Al
  Al228    1.0000 0.83949  0.51246  0.13424  Biso   1.000  Al
  Al229    1.0000 0.98754  0.66051  0.86576  Biso   1.000  Al
  Al230    1.0000 0.98754  0.08949  0.88424  Biso   1.000  Al
  Al231    1.0000 0.26246  0.08949  0.36576  Biso   1.000  Al
  Al232    1.0000 0.26246  0.66051  0.38424  Biso   1.000  Al
  Al233    1.0000 0.01246  0.11576  0.91051  Biso   1.000  Al
  Al234    1.0000 0.73754  0.61576  0.33949  Biso   1.000  Al
  Al235    1.0000 0.73754  0.63424  0.91051  Biso   1.000  Al
  Al236    1.0000 0.01246  0.13424  0.33949  Biso   1.000  Al
  Al237    1.0000 0.38424  0.48754  0.08949  Biso   1.000  Al
  Al238    1.0000 0.38424  0.76246  0.16051  Biso   1.000  Al
  Al239    1.0000 0.36576  0.98754  0.16051  Biso   1.000  Al
  Al240    1.0000 0.86576  0.26246  0.58949  Biso   1.000  Al
  Al241    1.0000 0.11576  0.41051  0.51246  Biso   1.000  Al
  Al242    1.0000 0.11576  0.33949  0.23754  Biso   1.000  Al
  Al243    1.0000 0.13424  0.33949  0.01246  Biso   1.000  Al
  Al244    1.0000 0.13424  0.41051  0.73754  Biso   1.000  Al
  Al245    1.0000 0.08949  0.36576  0.26246  Biso   1.000  Al
  Al246    1.0000 0.16051  0.36576  0.98754  Biso   1.000  Al
  Al247    1.0000 0.16051  0.38424  0.76246  Biso   1.000  Al
  Al248    1.0000 0.08949  0.38424  0.48754  Biso   1.000  Al
  Al249    1.0000 0.91051  0.01246  0.11576  Biso   1.000  Al
  Al250    1.0000 0.33949  0.73754  0.61576  Biso   1.000  Al
  Al251    1.0000 0.91051  0.73754  0.63424  Biso   1.000  Al
  Al252    1.0000 0.33949  0.01246  0.13424  Biso   1.000  Al
  Al253    1.0000 0.48754  0.16051  0.86576  Biso   1.000  Al
  Al254    1.0000 0.48754  0.58949  0.88424  Biso   1.000  Al
  Al255    1.0000 0.76246  0.58949  0.36576  Biso   1.000  Al
  Al256    1.0000 0.76246  0.16051  0.38424  Biso   1.000  Al
  Al257    1.0000 0.51246  0.61576  0.91051  Biso   1.000  Al
  Al258    1.0000 0.23754  0.11576  0.33949  Biso   1.000  Al
  Al259    1.0000 0.23754  0.13424  0.91051  Biso   1.000  Al
  Al260    1.0000 0.51246  0.63424  0.33949  Biso   1.000  Al
  Al261    1.0000 0.88424  0.98754  0.08949  Biso   1.000  Al
  Al262    1.0000 0.88424  0.26246  0.16051  Biso   1.000  Al
  Al263    1.0000 0.86576  0.48754  0.16051  Biso   1.000  Al
  Al264    1.0000 0.36576  0.76246  0.58949  Biso   1.000  Al
  Al265    1.0000 0.11576  0.91051  0.01246  Biso   1.000  Al
  Al266    1.0000 0.11576  0.83949  0.73754  Biso   1.000  Al
  Al267    1.0000 0.13424  0.83949  0.51246  Biso   1.000  Al
  Al268    1.0000 0.13424  0.91051  0.23754  Biso   1.000  Al
  Al269    1.0000 0.08949  0.86576  0.76246  Biso   1.000  Al
  Al270    1.0000 0.16051  0.86576  0.48754  Biso   1.000  Al
  Al271    1.0000 0.16051  0.88424  0.26246  Biso   1.000  Al
  Al272    1.0000 0.08949  0.88424  0.98754  Biso   1.000  Al
  Al273    1.0000 0.91051  0.51246  0.61576  Biso   1.000  Al
  Al274    1.0000 0.33949  0.23754  0.11576  Biso   1.000  Al
  Al275    1.0000 0.91051  0.23754  0.13424  Biso   1.000  Al
  Al276    1.0000 0.33949  0.51246  0.63424  Biso   1.000  Al
  Al277    1.0000 0.48754  0.66051  0.36576  Biso   1.000  Al
  Al278    1.0000 0.48754  0.08949  0.38424  Biso   1.000  Al
  Al279    1.0000 0.76246  0.08949  0.86576  Biso   1.000  Al
  Al280    1.0000 0.76246  0.66051  0.88424  Biso   1.000  Al
  Al281    1.0000 0.51246  0.11576  0.41051  Biso   1.000  Al
  Al282    1.0000 0.23754  0.61576  0.83949  Biso   1.000  Al
  Al283    1.0000 0.23754  0.63424  0.41051  Biso   1.000  Al
  Al284    1.0000 0.51246  0.13424  0.83949  Biso   1.000  Al
  Al285    1.0000 0.88424  0.48754  0.58949  Biso   1.000  Al
  Al286    1.0000 0.88424  0.76246  0.66051  Biso   1.000  Al
  Al287    1.0000 0.86576  0.98754  0.66051  Biso   1.000  Al
  Al288    1.0000 0.36576  0.26246  0.08949  Biso   1.000  Al
  Al289    1.0000 0.39054  0.61563  0.85946  Biso   1.000  Al
  Al290    1.0000 0.39054  0.63437  0.39054  Biso   1.000  Al
  Al291    1.0000 0.35946  0.63437  0.35946  Biso   1.000  Al
  Al292    1.0000 0.35946  0.61563  0.89054  Biso   1.000  Al
  Al293    1.0000 0.38437  0.64054  0.10946  Biso   1.000  Al
  Al294    1.0000 0.36563  0.64054  0.64054  Biso   1.000  Al
  Al295    1.0000 0.36563  0.60946  0.60946  Biso   1.000  Al
  Al296    1.0000 0.38437  0.60946  0.14054  Biso   1.000  Al
  Al297    1.0000 0.61563  0.85946  0.39054  Biso   1.000  Al
  Al298    1.0000 0.13437  0.39054  0.89054  Biso   1.000  Al
  Al299    1.0000 0.61563  0.39054  0.85946  Biso   1.000  Al
  Al300    1.0000 0.13437  0.85946  0.35946  Biso   1.000  Al
  Al301    1.0000 0.14054  0.86563  0.64054  Biso   1.000  Al
  Al302    1.0000 0.14054  0.38437  0.60946  Biso   1.000  Al
  Al303    1.0000 0.60946  0.38437  0.14054  Biso   1.000  Al
  Al304    1.0000 0.60946  0.86563  0.10946  Biso   1.000  Al
  Al305    1.0000 0.85946  0.39054  0.61563  Biso   1.000  Al
  Al306    1.0000 0.39054  0.89054  0.13437  Biso   1.000  Al
  Al307    1.0000 0.39054  0.85946  0.61563  Biso   1.000  Al
  Al308    1.0000 0.85946  0.35946  0.13437  Biso   1.000  Al
  Al309    1.0000 0.60946  0.14054  0.38437  Biso   1.000  Al
  Al310    1.0000 0.60946  0.60946  0.36563  Biso   1.000  Al
  Al311    1.0000 0.64054  0.64054  0.36563  Biso   1.000  Al
  Al312    1.0000 0.14054  0.10946  0.88437  Biso   1.000  Al
  Al313    1.0000 0.39054  0.11563  0.35946  Biso   1.000  Al
  Al314    1.0000 0.39054  0.13437  0.89054  Biso   1.000  Al
  Al315    1.0000 0.35946  0.13437  0.85946  Biso   1.000  Al
  Al316    1.0000 0.35946  0.11563  0.39054  Biso   1.000  Al
  Al317    1.0000 0.38437  0.14054  0.60946  Biso   1.000  Al
  Al318    1.0000 0.36563  0.14054  0.14054  Biso   1.000  Al
  Al319    1.0000 0.36563  0.10946  0.10946  Biso   1.000  Al
  Al320    1.0000 0.38437  0.10946  0.64054  Biso   1.000  Al
  Al321    1.0000 0.61563  0.35946  0.89054  Biso   1.000  Al
  Al322    1.0000 0.13437  0.89054  0.39054  Biso   1.000  Al
  Al323    1.0000 0.61563  0.89054  0.35946  Biso   1.000  Al
  Al324    1.0000 0.13437  0.35946  0.85946  Biso   1.000  Al
  Al325    1.0000 0.14054  0.36563  0.14054  Biso   1.000  Al
  Al326    1.0000 0.14054  0.88437  0.10946  Biso   1.000  Al
  Al327    1.0000 0.60946  0.88437  0.64054  Biso   1.000  Al
  Al328    1.0000 0.60946  0.36563  0.60946  Biso   1.000  Al
  Al329    1.0000 0.85946  0.89054  0.11563  Biso   1.000  Al
  Al330    1.0000 0.39054  0.39054  0.63437  Biso   1.000  Al
  Al331    1.0000 0.39054  0.35946  0.11563  Biso   1.000  Al
  Al332    1.0000 0.85946  0.85946  0.63437  Biso   1.000  Al
  Al333    1.0000 0.60946  0.64054  0.88437  Biso   1.000  Al
  Al334    1.0000 0.60946  0.10946  0.86563  Biso   1.000  Al
  Al335    1.0000 0.64054  0.14054  0.86563  Biso   1.000  Al
  Al336    1.0000 0.14054  0.60946  0.38437  Biso   1.000  Al
  Al337    1.0000 0.89054  0.61563  0.35946  Biso   1.000  Al
  Al338    1.0000 0.89054  0.63437  0.89054  Biso   1.000  Al
  Al339    1.0000 0.85946  0.63437  0.85946  Biso   1.000  Al
  Al340    1.0000 0.85946  0.61563  0.39054  Biso   1.000  Al
  Al341    1.0000 0.88437  0.64054  0.60946  Biso   1.000  Al
  Al342    1.0000 0.86563  0.64054  0.14054  Biso   1.000  Al
  Al343    1.0000 0.86563  0.60946  0.10946  Biso   1.000  Al
  Al344    1.0000 0.88437  0.60946  0.64054  Biso   1.000  Al
  Al345    1.0000 0.11563  0.85946  0.89054  Biso   1.000  Al
  Al346    1.0000 0.63437  0.39054  0.39054  Biso   1.000  Al
  Al347    1.0000 0.11563  0.39054  0.35946  Biso   1.000  Al
  Al348    1.0000 0.63437  0.85946  0.85946  Biso   1.000  Al
  Al349    1.0000 0.64054  0.86563  0.14054  Biso   1.000  Al
  Al350    1.0000 0.64054  0.38437  0.10946  Biso   1.000  Al
  Al351    1.0000 0.10946  0.38437  0.64054  Biso   1.000  Al
  Al352    1.0000 0.10946  0.86563  0.60946  Biso   1.000  Al
  Al353    1.0000 0.35946  0.39054  0.11563  Biso   1.000  Al
  Al354    1.0000 0.89054  0.89054  0.63437  Biso   1.000  Al
  Al355    1.0000 0.89054  0.85946  0.11563  Biso   1.000  Al
  Al356    1.0000 0.35946  0.35946  0.63437  Biso   1.000  Al
  Al357    1.0000 0.10946  0.14054  0.88437  Biso   1.000  Al
  Al358    1.0000 0.10946  0.60946  0.86563  Biso   1.000  Al
  Al359    1.0000 0.14054  0.64054  0.86563  Biso   1.000  Al
  Al360    1.0000 0.64054  0.10946  0.38437  Biso   1.000  Al
  Al361    1.0000 0.89054  0.11563  0.85946  Biso   1.000  Al
  Al362    1.0000 0.89054  0.13437  0.39054  Biso   1.000  Al
  Al363    1.0000 0.85946  0.13437  0.35946  Biso   1.000  Al
  Al364    1.0000 0.85946  0.11563  0.89054  Biso   1.000  Al
  Al365    1.0000 0.88437  0.14054  0.10946  Biso   1.000  Al
  Al366    1.0000 0.86563  0.14054  0.64054  Biso   1.000  Al
  Al367    1.0000 0.86563  0.10946  0.60946  Biso   1.000  Al
  Al368    1.0000 0.88437  0.10946  0.14054  Biso   1.000  Al
  Al369    1.0000 0.11563  0.35946  0.39054  Biso   1.000  Al
  Al370    1.0000 0.63437  0.89054  0.89054  Biso   1.000  Al
  Al371    1.0000 0.11563  0.89054  0.85946  Biso   1.000  Al
  Al372    1.0000 0.63437  0.35946  0.35946  Biso   1.000  Al
  Al373    1.0000 0.64054  0.36563  0.64054  Biso   1.000  Al
  Al374    1.0000 0.64054  0.88437  0.60946  Biso   1.000  Al
  Al375    1.0000 0.10946  0.88437  0.14054  Biso   1.000  Al
  Al376    1.0000 0.10946  0.36563  0.10946  Biso   1.000  Al
  Al377    1.0000 0.35946  0.89054  0.61563  Biso   1.000  Al
  Al378    1.0000 0.89054  0.39054  0.13437  Biso   1.000  Al
  Al379    1.0000 0.89054  0.35946  0.61563  Biso   1.000  Al
  Al380    1.0000 0.35946  0.85946  0.13437  Biso   1.000  Al
  Al381    1.0000 0.10946  0.64054  0.38437  Biso   1.000  Al
  Al382    1.0000 0.10946  0.10946  0.36563  Biso   1.000  Al
  Al383    1.0000 0.14054  0.14054  0.36563  Biso   1.000  Al
  Al384    1.0000 0.64054  0.60946  0.88437  Biso   1.000  Al
  Al385    1.0000 0.29840  0.55590  0.02454  Biso   1.000  Al
  Al386    1.0000 0.29840  0.69410  0.22546  Biso   1.000  Al
  Al387    1.0000 0.45160  0.69410  0.52454  Biso   1.000  Al
  Al388    1.0000 0.45160  0.55590  0.72546  Biso   1.000  Al
  Al389    1.0000 0.44410  0.54840  0.27454  Biso   1.000  Al
  Al390    1.0000 0.30590  0.54840  0.47546  Biso   1.000  Al
  Al391    1.0000 0.30590  0.70160  0.77454  Biso   1.000  Al
  Al392    1.0000 0.44410  0.70160  0.97546  Biso   1.000  Al
  Al393    1.0000 0.55590  0.02454  0.29840  Biso   1.000  Al
  Al394    1.0000 0.19410  0.22546  0.79840  Biso   1.000  Al
  Al395    1.0000 0.55590  0.22546  0.95160  Biso   1.000  Al
  Al396    1.0000 0.19410  0.02454  0.45160  Biso   1.000  Al
  Al397    1.0000 0.97546  0.80590  0.54840  Biso   1.000  Al
  Al398    1.0000 0.97546  0.44410  0.70160  Biso   1.000  Al
  Al399    1.0000 0.77454  0.44410  0.04840  Biso   1.000  Al
  Al400    1.0000 0.77454  0.80590  0.20160  Biso   1.000  Al
  Al401    1.0000 0.02454  0.29840  0.55590  Biso   1.000  Al
  Al402    1.0000 0.22546  0.79840  0.19410  Biso   1.000  Al
  Al403    1.0000 0.22546  0.95160  0.55590  Biso   1.000  Al
  Al404    1.0000 0.02454  0.45160  0.19410  Biso   1.000  Al
  Al405    1.0000 0.70160  0.97546  0.44410  Biso   1.000  Al
  Al406    1.0000 0.70160  0.77454  0.30590  Biso   1.000  Al
  Al407    1.0000 0.54840  0.47546  0.30590  Biso   1.000  Al
  Al408    1.0000 0.04840  0.27454  0.94410  Biso   1.000  Al
  Al409    1.0000 0.29840  0.05590  0.52454  Biso   1.000  Al
  Al410    1.0000 0.29840  0.19410  0.72546  Biso   1.000  Al
  Al411    1.0000 0.45160  0.19410  0.02454  Biso   1.000  Al
  Al412    1.0000 0.45160  0.05590  0.22546  Biso   1.000  Al
  Al413    1.0000 0.44410  0.04840  0.77454  Biso   1.000  Al
  Al414    1.0000 0.30590  0.04840  0.97546  Biso   1.000  Al
  Al415    1.0000 0.30590  0.20160  0.27454  Biso   1.000  Al
  Al416    1.0000 0.44410  0.20160  0.47546  Biso   1.000  Al
  Al417    1.0000 0.55590  0.52454  0.79840  Biso   1.000  Al
  Al418    1.0000 0.19410  0.72546  0.29840  Biso   1.000  Al
  Al419    1.0000 0.55590  0.72546  0.45160  Biso   1.000  Al
  Al420    1.0000 0.19410  0.52454  0.95160  Biso   1.000  Al
  Al421    1.0000 0.97546  0.30590  0.04840  Biso   1.000  Al
  Al422    1.0000 0.97546  0.94410  0.20160  Biso   1.000  Al
  Al423    1.0000 0.77454  0.94410  0.54840  Biso   1.000  Al
  Al424    1.0000 0.77454  0.30590  0.70160  Biso   1.000  Al
  Al425    1.0000 0.02454  0.79840  0.05590  Biso   1.000  Al
  Al426    1.0000 0.22546  0.29840  0.69410  Biso   1.000  Al
  Al427    1.0000 0.22546  0.45160  0.05590  Biso   1.000  Al
  Al428    1.0000 0.02454  0.95160  0.69410  Biso   1.000  Al
  Al429    1.0000 0.70160  0.47546  0.94410  Biso   1.000  Al
  Al430    1.0000 0.70160  0.27454  0.80590  Biso   1.000  Al
  Al431    1.0000 0.54840  0.97546  0.80590  Biso   1.000  Al
  Al432    1.0000 0.04840  0.77454  0.44410  Biso   1.000  Al
  Al433    1.0000 0.79840  0.55590  0.52454  Biso   1.000  Al
  Al434    1.0000 0.79840  0.69410  0.72546  Biso   1.000  Al
  Al435    1.0000 0.95160  0.69410  0.02454  Biso   1.000  Al
  Al436    1.0000 0.95160  0.55590  0.22546  Biso   1.000  Al
  Al437    1.0000 0.94410  0.54840  0.77454  Biso   1.000  Al
  Al438    1.0000 0.80590  0.54840  0.97546  Biso   1.000  Al
  Al439    1.0000 0.80590  0.70160  0.27454  Biso   1.000  Al
  Al440    1.0000 0.94410  0.70160  0.47546  Biso   1.000  Al
  Al441    1.0000 0.05590  0.02454  0.79840  Biso   1.000  Al
  Al442    1.0000 0.69410  0.22546  0.29840  Biso   1.000  Al
  Al443    1.0000 0.05590  0.22546  0.45160  Biso   1.000  Al
  Al444    1.0000 0.69410  0.02454  0.95160  Biso   1.000  Al
  Al445    1.0000 0.47546  0.80590  0.04840  Biso   1.000  Al
  Al446    1.0000 0.47546  0.44410  0.20160  Biso   1.000  Al
  Al447    1.0000 0.27454  0.44410  0.54840  Biso   1.000  Al
  Al448    1.0000 0.27454  0.80590  0.70160  Biso   1.000  Al
  Al449    1.0000 0.52454  0.29840  0.05590  Biso   1.000  Al
  Al450    1.0000 0.72546  0.79840  0.69410  Biso   1.000  Al
  Al451    1.0000 0.72546  0.95160  0.05590  Biso   1.000  Al
  Al452    1.0000 0.52454  0.45160  0.69410  Biso   1.000  Al
  Al453    1.0000 0.20160  0.97546  0.94410  Biso   1.000  Al
  Al454    1.0000 0.20160  0.77454  0.80590  Biso   1.000  Al
  Al455    1.0000 0.04840  0.47546  0.80590  Biso   1.000  Al
  Al456    1.0000 0.54840  0.27454  0.44410  Biso   1.000  Al
  Al457    1.0000 0.79840  0.05590  0.02454  Biso   1.000  Al
  Al458    1.0000 0.79840  0.19410  0.22546  Biso   1.000  Al
  Al459    1.0000 0.95160  0.19410  0.52454  Biso   1.000  Al
  Al460    1.0000 0.95160  0.05590  0.72546  Biso   1.000  Al
  Al461    1.0000 0.94410  0.04840  0.27454  Biso   1.000  Al
  Al462    1.0000 0.80590  0.04840  0.47546  Biso   1.000  Al
  Al463    1.0000 0.80590  0.20160  0.77454  Biso   1.000  Al
  Al464    1.0000 0.94410  0.20160  0.97546  Biso   1.000  Al
  Al465    1.0000 0.05590  0.52454  0.29840  Biso   1.000  Al
  Al466    1.0000 0.69410  0.72546  0.79840  Biso   1.000  Al
  Al467    1.0000 0.05590  0.72546  0.95160  Biso   1.000  Al
  Al468    1.0000 0.69410  0.52454  0.45160  Biso   1.000  Al
  Al469    1.0000 0.47546  0.30590  0.54840  Biso   1.000  Al
  Al470    1.0000 0.47546  0.94410  0.70160  Biso   1.000  Al
  Al471    1.0000 0.27454  0.94410  0.04840  Biso   1.000  Al
  Al472    1.0000 0.27454  0.30590  0.20160  Biso   1.000  Al
  Al473    1.0000 0.52454  0.79840  0.55590  Biso   1.000  Al
  Al474    1.0000 0.72546  0.29840  0.19410  Biso   1.000  Al
  Al475    1.0000 0.72546  0.45160  0.55590  Biso   1.000  Al
  Al476    1.0000 0.52454  0.95160  0.19410  Biso   1.000  Al
  Al477    1.0000 0.20160  0.47546  0.44410  Biso   1.000  Al
  Al478    1.0000 0.20160  0.27454  0.30590  Biso   1.000  Al
  Al479    1.0000 0.04840  0.97546  0.30590  Biso   1.000  Al
  Al480    1.0000 0.54840  0.77454  0.94410  Biso   1.000  Al
  Al481    1.0000 0.70160  0.44410  0.97546  Biso   1.000  Al
  Al482    1.0000 0.70160  0.30590  0.77454  Biso   1.000  Al
  Al483    1.0000 0.54840  0.30590  0.47546  Biso   1.000  Al
  Al484    1.0000 0.54840  0.44410  0.27454  Biso   1.000  Al
  Al485    1.0000 0.55590  0.45160  0.72546  Biso   1.000  Al
  Al486    1.0000 0.69410  0.45160  0.52454  Biso   1.000  Al
  Al487    1.0000 0.69410  0.29840  0.22546  Biso   1.000  Al
  Al488    1.0000 0.55590  0.29840  0.02454  Biso   1.000  Al
  Al489    1.0000 0.44410  0.97546  0.70160  Biso   1.000  Al
  Al490    1.0000 0.80590  0.77454  0.20160  Biso   1.000  Al
  Al491    1.0000 0.44410  0.77454  0.04840  Biso   1.000  Al
  Al492    1.0000 0.80590  0.97546  0.54840  Biso   1.000  Al
  Al493    1.0000 0.02454  0.19410  0.45160  Biso   1.000  Al
  Al494    1.0000 0.02454  0.55590  0.29840  Biso   1.000  Al
  Al495    1.0000 0.22546  0.55590  0.95160  Biso   1.000  Al
  Al496    1.0000 0.22546  0.19410  0.79840  Biso   1.000  Al
  Al497    1.0000 0.97546  0.70160  0.44410  Biso   1.000  Al
  Al498    1.0000 0.77454  0.20160  0.80590  Biso   1.000  Al
  Al499    1.0000 0.77454  0.04840  0.44410  Biso   1.000  Al
  Al500    1.0000 0.97546  0.54840  0.80590  Biso   1.000  Al
  Al501    1.0000 0.29840  0.02454  0.55590  Biso   1.000  Al
  Al502    1.0000 0.29840  0.22546  0.69410  Biso   1.000  Al
  Al503    1.0000 0.45160  0.52454  0.69410  Biso   1.000  Al
  Al504    1.0000 0.95160  0.72546  0.05590  Biso   1.000  Al
  Al505    1.0000 0.70160  0.94410  0.47546  Biso   1.000  Al
  Al506    1.0000 0.70160  0.80590  0.27454  Biso   1.000  Al
  Al507    1.0000 0.54840  0.80590  0.97546  Biso   1.000  Al
  Al508    1.0000 0.54840  0.94410  0.77454  Biso   1.000  Al
  Al509    1.0000 0.55590  0.95160  0.22546  Biso   1.000  Al
  Al510    1.0000 0.69410  0.95160  0.02454  Biso   1.000  Al
  Al511    1.0000 0.69410  0.79840  0.72546  Biso   1.000  Al
  Al512    1.0000 0.55590  0.79840  0.52454  Biso   1.000  Al
  Al513    1.0000 0.44410  0.47546  0.20160  Biso   1.000  Al
  Al514    1.0000 0.80590  0.27454  0.70160  Biso   1.000  Al
  Al515    1.0000 0.44410  0.27454  0.54840  Biso   1.000  Al
  Al516    1.0000 0.80590  0.47546  0.04840  Biso   1.000  Al
  Al517    1.0000 0.02454  0.69410  0.95160  Biso   1.000  Al
  Al518    1.0000 0.02454  0.05590  0.79840  Biso   1.000  Al
  Al519    1.0000 0.22546  0.05590  0.45160  Biso   1.000  Al
  Al520    1.0000 0.22546  0.69410  0.29840  Biso   1.000  Al
  Al521    1.0000 0.97546  0.20160  0.94410  Biso   1.000  Al
  Al522    1.0000 0.77454  0.70160  0.30590  Biso   1.000  Al
  Al523    1.0000 0.77454  0.54840  0.94410  Biso   1.000  Al
  Al524    1.0000 0.97546  0.04840  0.30590  Biso   1.000  Al
  Al525    1.0000 0.29840  0.52454  0.05590  Biso   1.000  Al
  Al526    1.0000 0.29840  0.72546  0.19410  Biso   1.000  Al
  Al527    1.0000 0.45160  0.02454  0.19410  Biso   1.000  Al
  Al528    1.0000 0.95160  0.22546  0.55590  Biso   1.000  Al
  Al529    1.0000 0.20160  0.44410  0.47546  Biso   1.000  Al
  Al530    1.0000 0.20160  0.30590  0.27454  Biso   1.000  Al
  Al531    1.0000 0.04840  0.30590  0.97546  Biso   1.000  Al
  Al532    1.0000 0.04840  0.44410  0.77454  Biso   1.000  Al
  Al533    1.0000 0.05590  0.45160  0.22546  Biso   1.000  Al
  Al534    1.0000 0.19410  0.45160  0.02454  Biso   1.000  Al
  Al535    1.0000 0.19410  0.29840  0.72546  Biso   1.000  Al
  Al536    1.0000 0.05590  0.29840  0.52454  Biso   1.000  Al
  Al537    1.0000 0.94410  0.97546  0.20160  Biso   1.000  Al
  Al538    1.0000 0.30590  0.77454  0.70160  Biso   1.000  Al
  Al539    1.0000 0.94410  0.77454  0.54840  Biso   1.000  Al
  Al540    1.0000 0.30590  0.97546  0.04840  Biso   1.000  Al
  Al541    1.0000 0.52454  0.19410  0.95160  Biso   1.000  Al
  Al542    1.0000 0.52454  0.55590  0.79840  Biso   1.000  Al
  Al543    1.0000 0.72546  0.55590  0.45160  Biso   1.000  Al
  Al544    1.0000 0.72546  0.19410  0.29840  Biso   1.000  Al
  Al545    1.0000 0.47546  0.70160  0.94410  Biso   1.000  Al
  Al546    1.0000 0.27454  0.20160  0.30590  Biso   1.000  Al
  Al547    1.0000 0.27454  0.04840  0.94410  Biso   1.000  Al
  Al548    1.0000 0.47546  0.54840  0.30590  Biso   1.000  Al
  Al549    1.0000 0.79840  0.02454  0.05590  Biso   1.000  Al
  Al550    1.0000 0.79840  0.22546  0.19410  Biso   1.000  Al
  Al551    1.0000 0.95160  0.52454  0.19410  Biso   1.000  Al
  Al552    1.0000 0.45160  0.72546  0.55590  Biso   1.000  Al
  Al553    1.0000 0.20160  0.94410  0.97546  Biso   1.000  Al
  Al554    1.0000 0.20160  0.80590  0.77454  Biso   1.000  Al
  Al555    1.0000 0.04840  0.80590  0.47546  Biso   1.000  Al
  Al556    1.0000 0.04840  0.94410  0.27454  Biso   1.000  Al
  Al557    1.0000 0.05590  0.95160  0.72546  Biso   1.000  Al
  Al558    1.0000 0.19410  0.95160  0.52454  Biso   1.000  Al
  Al559    1.0000 0.19410  0.79840  0.22546  Biso   1.000  Al
  Al560    1.0000 0.05590  0.79840  0.02454  Biso   1.000  Al
  Al561    1.0000 0.94410  0.47546  0.70160  Biso   1.000  Al
  Al562    1.0000 0.30590  0.27454  0.20160  Biso   1.000  Al
  Al563    1.0000 0.94410  0.27454  0.04840  Biso   1.000  Al
  Al564    1.0000 0.30590  0.47546  0.54840  Biso   1.000  Al
  Al565    1.0000 0.52454  0.69410  0.45160  Biso   1.000  Al
  Al566    1.0000 0.52454  0.05590  0.29840  Biso   1.000  Al
  Al567    1.0000 0.72546  0.05590  0.95160  Biso   1.000  Al
  Al568    1.0000 0.72546  0.69410  0.79840  Biso   1.000  Al
  Al569    1.0000 0.47546  0.20160  0.44410  Biso   1.000  Al
  Al570    1.0000 0.27454  0.70160  0.80590  Biso   1.000  Al
  Al571    1.0000 0.27454  0.54840  0.44410  Biso   1.000  Al
  Al572    1.0000 0.47546  0.04840  0.80590  Biso   1.000  Al
  Al573    1.0000 0.79840  0.52454  0.55590  Biso   1.000  Al
  Al574    1.0000 0.79840  0.72546  0.69410  Biso   1.000  Al
  Al575    1.0000 0.95160  0.02454  0.69410  Biso   1.000  Al
  Al576    1.0000 0.45160  0.22546  0.05590  Biso   1.000  Al
  Al577    1.0000 0.42441  0.57559  0.00000  Biso   1.000  Al
  Al578    1.0000 0.42441  0.67441  0.25000  Biso   1.000  Al
  Al579    1.0000 0.32559  0.67441  0.50000  Biso   1.000  Al
  Al580    1.0000 0.32559  0.57559  0.75000  Biso   1.000  Al
  Al581    1.0000 0.57559  0.00000  0.42441  Biso   1.000  Al
  Al582    1.0000 0.17441  0.25000  0.92441  Biso   1.000  Al
  Al583    1.0000 0.57559  0.25000  0.82559  Biso   1.000  Al
  Al584    1.0000 0.17441  0.00000  0.32559  Biso   1.000  Al
  Al585    1.0000 0.00000  0.82559  0.67441  Biso   1.000  Al
  Al586    1.0000 0.00000  0.42441  0.57559  Biso   1.000  Al
  Al587    1.0000 0.75000  0.42441  0.17441  Biso   1.000  Al
  Al588    1.0000 0.75000  0.82559  0.07559  Biso   1.000  Al
  Al589    1.0000 0.25000  0.92441  0.17441  Biso   1.000  Al
  Al590    1.0000 0.25000  0.82559  0.57559  Biso   1.000  Al
  Al591    1.0000 0.00000  0.32559  0.17441  Biso   1.000  Al
  Al592    1.0000 0.57559  0.75000  0.32559  Biso   1.000  Al
  Al593    1.0000 0.67441  0.50000  0.32559  Biso   1.000  Al
  Al594    1.0000 0.42441  0.07559  0.50000  Biso   1.000  Al
  Al595    1.0000 0.42441  0.17441  0.75000  Biso   1.000  Al
  Al596    1.0000 0.32559  0.17441  0.00000  Biso   1.000  Al
  Al597    1.0000 0.32559  0.07559  0.25000  Biso   1.000  Al
  Al598    1.0000 0.57559  0.50000  0.92441  Biso   1.000  Al
  Al599    1.0000 0.17441  0.75000  0.42441  Biso   1.000  Al
  Al600    1.0000 0.17441  0.50000  0.82559  Biso   1.000  Al
  Al601    1.0000 0.00000  0.92441  0.07559  Biso   1.000  Al
  Al602    1.0000 0.75000  0.92441  0.67441  Biso   1.000  Al
  Al603    1.0000 0.75000  0.32559  0.57559  Biso   1.000  Al
  Al604    1.0000 0.25000  0.42441  0.67441  Biso   1.000  Al
  Al605    1.0000 0.25000  0.32559  0.07559  Biso   1.000  Al
  Al606    1.0000 0.67441  0.00000  0.82559  Biso   1.000  Al
  Al607    1.0000 0.92441  0.57559  0.50000  Biso   1.000  Al
  Al608    1.0000 0.92441  0.67441  0.75000  Biso   1.000  Al
  Al609    1.0000 0.82559  0.67441  0.00000  Biso   1.000  Al
  Al610    1.0000 0.82559  0.57559  0.25000  Biso   1.000  Al
  Al611    1.0000 0.07559  0.00000  0.92441  Biso   1.000  Al
  Al612    1.0000 0.67441  0.25000  0.42441  Biso   1.000  Al
  Al613    1.0000 0.07559  0.25000  0.32559  Biso   1.000  Al
  Al614    1.0000 0.50000  0.82559  0.17441  Biso   1.000  Al
  Al615    1.0000 0.50000  0.42441  0.07559  Biso   1.000  Al
  Al616    1.0000 0.50000  0.32559  0.67441  Biso   1.000  Al
  Al617    1.0000 0.07559  0.75000  0.82559  Biso   1.000  Al
  Al618    1.0000 0.92441  0.07559  0.00000  Biso   1.000  Al
  Al619    1.0000 0.92441  0.17441  0.25000  Biso   1.000  Al
  Al620    1.0000 0.82559  0.17441  0.50000  Biso   1.000  Al
  Al621    1.0000 0.82559  0.07559  0.75000  Biso   1.000  Al
  Al622    1.0000 0.07559  0.50000  0.42441  Biso   1.000  Al
  Al623    1.0000 0.67441  0.75000  0.92441  Biso   1.000  Al
  Al624    1.0000 0.50000  0.92441  0.57559  Biso   1.000  Al
  Al625    1.0000 0.57559  0.42441  0.00000  Biso   1.000  Al
  Al626    1.0000 0.57559  0.32559  0.75000  Biso   1.000  Al
  Al627    1.0000 0.67441  0.32559  0.50000  Biso   1.000  Al
  Al628    1.0000 0.67441  0.42441  0.25000  Biso   1.000  Al
  Al629    1.0000 0.42441  0.00000  0.57559  Biso   1.000  Al
  Al630    1.0000 0.82559  0.75000  0.07559  Biso   1.000  Al
  Al631    1.0000 0.42441  0.75000  0.17441  Biso   1.000  Al
  Al632    1.0000 0.82559  0.00000  0.67441  Biso   1.000  Al
  Al633    1.0000 0.00000  0.17441  0.32559  Biso   1.000  Al
  Al634    1.0000 0.00000  0.57559  0.42441  Biso   1.000  Al
  Al635    1.0000 0.25000  0.57559  0.82559  Biso   1.000  Al
  Al636    1.0000 0.25000  0.17441  0.92441  Biso   1.000  Al
  Al637    1.0000 0.75000  0.07559  0.82559  Biso   1.000  Al
  Al638    1.0000 0.75000  0.17441  0.42441  Biso   1.000  Al
  Al639    1.0000 0.00000  0.67441  0.82559  Biso   1.000  Al
  Al640    1.0000 0.42441  0.25000  0.67441  Biso   1.000  Al
  Al641    1.0000 0.32559  0.50000  0.67441  Biso   1.000  Al
  Al642    1.0000 0.57559  0.92441  0.50000  Biso   1.000  Al
  Al643    1.0000 0.57559  0.82559  0.25000  Biso   1.000  Al
  Al644    1.0000 0.67441  0.82559  0.00000  Biso   1.000  Al
  Al645    1.0000 0.67441  0.92441  0.75000  Biso   1.000  Al
  Al646    1.0000 0.42441  0.50000  0.07559  Biso   1.000  Al
  Al647    1.0000 0.82559  0.25000  0.57559  Biso   1.000  Al
  Al648    1.0000 0.82559  0.50000  0.17441  Biso   1.000  Al
  Al649    1.0000 0.00000  0.07559  0.92441  Biso   1.000  Al
  Al650    1.0000 0.25000  0.07559  0.32559  Biso   1.000  Al
  Al651    1.0000 0.25000  0.67441  0.42441  Biso   1.000  Al
  Al652    1.0000 0.75000  0.57559  0.32559  Biso   1.000  Al
  Al653    1.0000 0.75000  0.67441  0.92441  Biso   1.000  Al
  Al654    1.0000 0.32559  0.00000  0.17441  Biso   1.000  Al
  Al655    1.0000 0.07559  0.42441  0.50000  Biso   1.000  Al
  Al656    1.0000 0.07559  0.32559  0.25000  Biso   1.000  Al
  Al657    1.0000 0.17441  0.32559  0.00000  Biso   1.000  Al
  Al658    1.0000 0.17441  0.42441  0.75000  Biso   1.000  Al
  Al659    1.0000 0.92441  0.00000  0.07559  Biso   1.000  Al
  Al660    1.0000 0.32559  0.75000  0.57559  Biso   1.000  Al
  Al661    1.0000 0.92441  0.75000  0.67441  Biso   1.000  Al
  Al662    1.0000 0.50000  0.17441  0.82559  Biso   1.000  Al
  Al663    1.0000 0.50000  0.57559  0.92441  Biso   1.000  Al
  Al664    1.0000 0.50000  0.67441  0.32559  Biso   1.000  Al
  Al665    1.0000 0.92441  0.25000  0.17441  Biso   1.000  Al
  Al666    1.0000 0.07559  0.92441  0.00000  Biso   1.000  Al
  Al667    1.0000 0.07559  0.82559  0.75000  Biso   1.000  Al
  Al668    1.0000 0.17441  0.82559  0.50000  Biso   1.000  Al
  Al669    1.0000 0.17441  0.92441  0.25000  Biso   1.000  Al
  Al670    1.0000 0.92441  0.50000  0.57559  Biso   1.000  Al
  Al671    1.0000 0.32559  0.25000  0.07559  Biso   1.000  Al
  Al672    1.0000 0.50000  0.07559  0.42441  Biso   1.000  Al
  Al673    1.0000 0.37500  0.65435  0.87500  Biso   1.000  Al
  Al674    1.0000 0.37500  0.59565  0.37500  Biso   1.000  Al
  Al675    1.0000 0.34565  0.62500  0.12500  Biso   1.000  Al
  Al676    1.0000 0.40435  0.62500  0.62500  Biso   1.000  Al
  Al677    1.0000 0.65435  0.87500  0.37500  Biso   1.000  Al
  Al678    1.0000 0.09565  0.37500  0.87500  Biso   1.000  Al
  Al679    1.0000 0.65435  0.37500  0.87500  Biso   1.000  Al
  Al680    1.0000 0.09565  0.87500  0.37500  Biso   1.000  Al
  Al681    1.0000 0.12500  0.90435  0.62500  Biso   1.000  Al
  Al682    1.0000 0.12500  0.34565  0.62500  Biso   1.000  Al
  Al683    1.0000 0.62500  0.34565  0.12500  Biso   1.000  Al
  Al684    1.0000 0.62500  0.90435  0.12500  Biso   1.000  Al
  Al685    1.0000 0.87500  0.37500  0.65435  Biso   1.000  Al
  Al686    1.0000 0.37500  0.87500  0.09565  Biso   1.000  Al
  Al687    1.0000 0.37500  0.87500  0.65435  Biso   1.000  Al
  Al688    1.0000 0.87500  0.37500  0.09565  Biso   1.000  Al
  Al689    1.0000 0.62500  0.12500  0.34565  Biso   1.000  Al
  Al690    1.0000 0.62500  0.62500  0.40435  Biso   1.000  Al
  Al691    1.0000 0.12500  0.12500  0.84565  Biso   1.000  Al
  Al692    1.0000 0.37500  0.15435  0.37500  Biso   1.000  Al
  Al693    1.0000 0.37500  0.09565  0.87500  Biso   1.000  Al
  Al694    1.0000 0.34565  0.12500  0.62500  Biso   1.000  Al
  Al695    1.0000 0.40435  0.12500  0.12500  Biso   1.000  Al
  Al696    1.0000 0.12500  0.40435  0.12500  Biso   1.000  Al
  Al697    1.0000 0.12500  0.84565  0.12500  Biso   1.000  Al
  Al698    1.0000 0.62500  0.84565  0.62500  Biso   1.000  Al
  Al699    1.0000 0.62500  0.40435  0.62500  Biso   1.000  Al
  Al700    1.0000 0.87500  0.87500  0.15435  Biso   1.000  Al
  Al701    1.0000 0.37500  0.37500  0.59565  Biso   1.000  Al
  Al702    1.0000 0.37500  0.37500  0.15435  Biso   1.000  Al
  Al703    1.0000 0.87500  0.87500  0.59565  Biso   1.000  Al
  Al704    1.0000 0.62500  0.62500  0.84565  Biso   1.000  Al
  Al705    1.0000 0.62500  0.12500  0.90435  Biso   1.000  Al
  Al706    1.0000 0.12500  0.62500  0.34565  Biso   1.000  Al
  Al707    1.0000 0.87500  0.65435  0.37500  Biso   1.000  Al
  Al708    1.0000 0.87500  0.59565  0.87500  Biso   1.000  Al
  Al709    1.0000 0.84565  0.62500  0.62500  Biso   1.000  Al
  Al710    1.0000 0.90435  0.62500  0.12500  Biso   1.000  Al
  Al711    1.0000 0.15435  0.87500  0.87500  Biso   1.000  Al
  Al712    1.0000 0.59565  0.37500  0.37500  Biso   1.000  Al
  Al713    1.0000 0.15435  0.37500  0.37500  Biso   1.000  Al
  Al714    1.0000 0.59565  0.87500  0.87500  Biso   1.000  Al
  Al715    1.0000 0.12500  0.62500  0.90435  Biso   1.000  Al
  Al716    1.0000 0.87500  0.15435  0.87500  Biso   1.000  Al
  Al717    1.0000 0.87500  0.09565  0.37500  Biso   1.000  Al
  Al718    1.0000 0.84565  0.12500  0.12500  Biso   1.000  Al
  Al719    1.0000 0.90435  0.12500  0.62500  Biso   1.000  Al
  Al720    1.0000 0.12500  0.12500  0.40435  Biso   1.000  Al
  Al721    1.0000 0.28606  0.56621  0.06621  Biso   1.000  Al
  Al722    1.0000 0.28606  0.68379  0.18379  Biso   1.000  Al
  Al723    1.0000 0.46394  0.68379  0.56621  Biso   1.000  Al
  Al724    1.0000 0.46394  0.56621  0.68379  Biso   1.000  Al
  Al725    1.0000 0.43379  0.53606  0.31621  Biso   1.000  Al
  Al726    1.0000 0.31621  0.53606  0.43379  Biso   1.000  Al
  Al727    1.0000 0.31621  0.71394  0.81621  Biso   1.000  Al
  Al728    1.0000 0.43379  0.71394  0.93379  Biso   1.000  Al
  Al729    1.0000 0.56621  0.06621  0.28606  Biso   1.000  Al
  Al730    1.0000 0.18379  0.18379  0.78606  Biso   1.000  Al
  Al731    1.0000 0.56621  0.18379  0.96394  Biso   1.000  Al
  Al732    1.0000 0.18379  0.06621  0.46394  Biso   1.000  Al
  Al733    1.0000 0.93379  0.81621  0.53606  Biso   1.000  Al
  Al734    1.0000 0.93379  0.43379  0.71394  Biso   1.000  Al
  Al735    1.0000 0.81621  0.43379  0.03606  Biso   1.000  Al
  Al736    1.0000 0.81621  0.81621  0.21394  Biso   1.000  Al
  Al737    1.0000 0.06621  0.28606  0.56621  Biso   1.000  Al
  Al738    1.0000 0.18379  0.78606  0.18379  Biso   1.000  Al
  Al739    1.0000 0.18379  0.96394  0.56621  Biso   1.000  Al
  Al740    1.0000 0.06621  0.46394  0.18379  Biso   1.000  Al
  Al741    1.0000 0.71394  0.93379  0.43379  Biso   1.000  Al
  Al742    1.0000 0.71394  0.81621  0.31621  Biso   1.000  Al
  Al743    1.0000 0.53606  0.43379  0.31621  Biso   1.000  Al
  Al744    1.0000 0.03606  0.31621  0.93379  Biso   1.000  Al
  Al745    1.0000 0.28606  0.06621  0.56621  Biso   1.000  Al
  Al746    1.0000 0.28606  0.18379  0.68379  Biso   1.000  Al
  Al747    1.0000 0.46394  0.18379  0.06621  Biso   1.000  Al
  Al748    1.0000 0.46394  0.06621  0.18379  Biso   1.000  Al
  Al749    1.0000 0.43379  0.03606  0.81621  Biso   1.000  Al
  Al750    1.0000 0.31621  0.03606  0.93379  Biso   1.000  Al
  Al751    1.0000 0.31621  0.21394  0.31621  Biso   1.000  Al
  Al752    1.0000 0.43379  0.21394  0.43379  Biso   1.000  Al
  Al753    1.0000 0.56621  0.56621  0.78606  Biso   1.000  Al
  Al754    1.0000 0.18379  0.68379  0.28606  Biso   1.000  Al
  Al755    1.0000 0.56621  0.68379  0.46394  Biso   1.000  Al
  Al756    1.0000 0.18379  0.56621  0.96394  Biso   1.000  Al
  Al757    1.0000 0.93379  0.31621  0.03606  Biso   1.000  Al
  Al758    1.0000 0.93379  0.93379  0.21394  Biso   1.000  Al
  Al759    1.0000 0.81621  0.93379  0.53606  Biso   1.000  Al
  Al760    1.0000 0.81621  0.31621  0.71394  Biso   1.000  Al
  Al761    1.0000 0.06621  0.78606  0.06621  Biso   1.000  Al
  Al762    1.0000 0.18379  0.28606  0.68379  Biso   1.000  Al
  Al763    1.0000 0.18379  0.46394  0.06621  Biso   1.000  Al
  Al764    1.0000 0.06621  0.96394  0.68379  Biso   1.000  Al
  Al765    1.0000 0.71394  0.43379  0.93379  Biso   1.000  Al
  Al766    1.0000 0.71394  0.31621  0.81621  Biso   1.000  Al
  Al767    1.0000 0.53606  0.93379  0.81621  Biso   1.000  Al
  Al768    1.0000 0.03606  0.81621  0.43379  Biso   1.000  Al
  Al769    1.0000 0.78606  0.56621  0.56621  Biso   1.000  Al
  Al770    1.0000 0.78606  0.68379  0.68379  Biso   1.000  Al
  Al771    1.0000 0.96394  0.68379  0.06621  Biso   1.000  Al
  Al772    1.0000 0.96394  0.56621  0.18379  Biso   1.000  Al
  Al773    1.0000 0.93379  0.53606  0.81621  Biso   1.000  Al
  Al774    1.0000 0.81621  0.53606  0.93379  Biso   1.000  Al
  Al775    1.0000 0.81621  0.71394  0.31621  Biso   1.000  Al
  Al776    1.0000 0.93379  0.71394  0.43379  Biso   1.000  Al
  Al777    1.0000 0.06621  0.06621  0.78606  Biso   1.000  Al
  Al778    1.0000 0.68379  0.18379  0.28606  Biso   1.000  Al
  Al779    1.0000 0.06621  0.18379  0.46394  Biso   1.000  Al
  Al780    1.0000 0.68379  0.06621  0.96394  Biso   1.000  Al
  Al781    1.0000 0.43379  0.81621  0.03606  Biso   1.000  Al
  Al782    1.0000 0.43379  0.43379  0.21394  Biso   1.000  Al
  Al783    1.0000 0.31621  0.43379  0.53606  Biso   1.000  Al
  Al784    1.0000 0.31621  0.81621  0.71394  Biso   1.000  Al
  Al785    1.0000 0.56621  0.28606  0.06621  Biso   1.000  Al
  Al786    1.0000 0.68379  0.78606  0.68379  Biso   1.000  Al
  Al787    1.0000 0.68379  0.96394  0.06621  Biso   1.000  Al
  Al788    1.0000 0.56621  0.46394  0.68379  Biso   1.000  Al
  Al789    1.0000 0.21394  0.93379  0.93379  Biso   1.000  Al
  Al790    1.0000 0.21394  0.81621  0.81621  Biso   1.000  Al
  Al791    1.0000 0.03606  0.43379  0.81621  Biso   1.000  Al
  Al792    1.0000 0.53606  0.31621  0.43379  Biso   1.000  Al
  Al793    1.0000 0.78606  0.06621  0.06621  Biso   1.000  Al
  Al794    1.0000 0.78606  0.18379  0.18379  Biso   1.000  Al
  Al795    1.0000 0.96394  0.18379  0.56621  Biso   1.000  Al
  Al796    1.0000 0.96394  0.06621  0.68379  Biso   1.000  Al
  Al797    1.0000 0.93379  0.03606  0.31621  Biso   1.000  Al
  Al798    1.0000 0.81621  0.03606  0.43379  Biso   1.000  Al
  Al799    1.0000 0.81621  0.21394  0.81621  Biso   1.000  Al
  Al800    1.0000 0.93379  0.21394  0.93379  Biso   1.000  Al
  Al801    1.0000 0.06621  0.56621  0.28606  Biso   1.000  Al
  Al802    1.0000 0.68379  0.68379  0.78606  Biso   1.000  Al
  Al803    1.0000 0.06621  0.68379  0.96394  Biso   1.000  Al
  Al804    1.0000 0.68379  0.56621  0.46394  Biso   1.000  Al
  Al805    1.0000 0.43379  0.31621  0.53606  Biso   1.000  Al
  Al806    1.0000 0.43379  0.93379  0.71394  Biso   1.000  Al
  Al807    1.0000 0.31621  0.93379  0.03606  Biso   1.000  Al
  Al808    1.0000 0.31621  0.31621  0.21394  Biso   1.000  Al
  Al809    1.0000 0.56621  0.78606  0.56621  Biso   1.000  Al
  Al810    1.0000 0.68379  0.28606  0.18379  Biso   1.000  Al
  Al811    1.0000 0.68379  0.46394  0.56621  Biso   1.000  Al
  Al812    1.0000 0.56621  0.96394  0.18379  Biso   1.000  Al
  Al813    1.0000 0.21394  0.43379  0.43379  Biso   1.000  Al
  Al814    1.0000 0.21394  0.31621  0.31621  Biso   1.000  Al
  Al815    1.0000 0.03606  0.93379  0.31621  Biso   1.000  Al
  Al816    1.0000 0.53606  0.81621  0.93379  Biso   1.000  Al
  O1       1.0000 0.14970  0.60030  0.03546  Biso   1.000  O
  O2       1.0000 0.14970  0.64970  0.21454  Biso   1.000  O
  O3       1.0000 0.60030  0.64970  0.53546  Biso   1.000  O
  O4       1.0000 0.60030  0.60030  0.71454  Biso   1.000  O
  O5       1.0000 0.39970  0.39970  0.28546  Biso   1.000  O
  O6       1.0000 0.35030  0.39970  0.46454  Biso   1.000  O
  O7       1.0000 0.35030  0.85030  0.78546  Biso   1.000  O
  O8       1.0000 0.39970  0.85030  0.96454  Biso   1.000  O
  O9       1.0000 0.60030  0.03546  0.14970  Biso   1.000  O
  O10      1.0000 0.14970  0.21454  0.64970  Biso   1.000  O
  O11      1.0000 0.60030  0.21454  0.10030  Biso   1.000  O
  O12      1.0000 0.14970  0.03546  0.60030  Biso   1.000  O
  O13      1.0000 0.96454  0.85030  0.39970  Biso   1.000  O
  O14      1.0000 0.96454  0.39970  0.85030  Biso   1.000  O
  O15      1.0000 0.78546  0.39970  0.89970  Biso   1.000  O
  O16      1.0000 0.78546  0.85030  0.35030  Biso   1.000  O
  O17      1.0000 0.03546  0.14970  0.60030  Biso   1.000  O
  O18      1.0000 0.21454  0.64970  0.14970  Biso   1.000  O
  O19      1.0000 0.21454  0.10030  0.60030  Biso   1.000  O
  O20      1.0000 0.03546  0.60030  0.14970  Biso   1.000  O
  O21      1.0000 0.85030  0.96454  0.39970  Biso   1.000  O
  O22      1.0000 0.85030  0.78546  0.35030  Biso   1.000  O
  O23      1.0000 0.39970  0.46454  0.35030  Biso   1.000  O
  O24      1.0000 0.89970  0.28546  0.89970  Biso   1.000  O
  O25      1.0000 0.14970  0.10030  0.53546  Biso   1.000  O
  O26      1.0000 0.14970  0.14970  0.71454  Biso   1.000  O
  O27      1.0000 0.60030  0.14970  0.03546  Biso   1.000  O
  O28      1.0000 0.60030  0.10030  0.21454  Biso   1.000  O
  O29      1.0000 0.39970  0.89970  0.78546  Biso   1.000  O
  O30      1.0000 0.35030  0.89970  0.96454  Biso   1.000  O
  O31      1.0000 0.35030  0.35030  0.28546  Biso   1.000  O
  O32      1.0000 0.39970  0.35030  0.46454  Biso   1.000  O
  O33      1.0000 0.60030  0.53546  0.64970  Biso   1.000  O
  O34      1.0000 0.14970  0.71454  0.14970  Biso   1.000  O
  O35      1.0000 0.60030  0.71454  0.60030  Biso   1.000  O
  O36      1.0000 0.14970  0.53546  0.10030  Biso   1.000  O
  O37      1.0000 0.96454  0.35030  0.89970  Biso   1.000  O
  O38      1.0000 0.96454  0.89970  0.35030  Biso   1.000  O
  O39      1.0000 0.78546  0.89970  0.39970  Biso   1.000  O
  O40      1.0000 0.78546  0.35030  0.85030  Biso   1.000  O
  O41      1.0000 0.03546  0.64970  0.10030  Biso   1.000  O
  O42      1.0000 0.21454  0.14970  0.64970  Biso   1.000  O
  O43      1.0000 0.21454  0.60030  0.10030  Biso   1.000  O
  O44      1.0000 0.03546  0.10030  0.64970  Biso   1.000  O
  O45      1.0000 0.85030  0.46454  0.89970  Biso   1.000  O
  O46      1.0000 0.85030  0.28546  0.85030  Biso   1.000  O
  O47      1.0000 0.39970  0.96454  0.85030  Biso   1.000  O
  O48      1.0000 0.89970  0.78546  0.39970  Biso   1.000  O
  O49      1.0000 0.64970  0.60030  0.53546  Biso   1.000  O
  O50      1.0000 0.64970  0.64970  0.71454  Biso   1.000  O
  O51      1.0000 0.10030  0.64970  0.03546  Biso   1.000  O
  O52      1.0000 0.10030  0.60030  0.21454  Biso   1.000  O
  O53      1.0000 0.89970  0.39970  0.78546  Biso   1.000  O
  O54      1.0000 0.85030  0.39970  0.96454  Biso   1.000  O
  O55      1.0000 0.85030  0.85030  0.28546  Biso   1.000  O
  O56      1.0000 0.89970  0.85030  0.46454  Biso   1.000  O
  O57      1.0000 0.10030  0.03546  0.64970  Biso   1.000  O
  O58      1.0000 0.64970  0.21454  0.14970  Biso   1.000  O
  O59      1.0000 0.10030  0.21454  0.60030  Biso   1.000  O
  O60      1.0000 0.64970  0.03546  0.10030  Biso   1.000  O
  O61      1.0000 0.46454  0.85030  0.89970  Biso   1.000  O
  O62      1.0000 0.46454  0.39970  0.35030  Biso   1.000  O
  O63      1.0000 0.28546  0.39970  0.39970  Biso   1.000  O
  O64      1.0000 0.28546  0.85030  0.85030  Biso   1.000  O
  O65      1.0000 0.53546  0.14970  0.10030  Biso   1.000  O
  O66      1.0000 0.71454  0.64970  0.64970  Biso   1.000  O
  O67      1.0000 0.71454  0.10030  0.10030  Biso   1.000  O
  O68      1.0000 0.53546  0.60030  0.64970  Biso   1.000  O
  O69      1.0000 0.35030  0.96454  0.89970  Biso   1.000  O
  O70      1.0000 0.35030  0.78546  0.85030  Biso   1.000  O
  O71      1.0000 0.89970  0.46454  0.85030  Biso   1.000  O
  O72      1.0000 0.39970  0.28546  0.39970  Biso   1.000  O
  O73      1.0000 0.64970  0.10030  0.03546  Biso   1.000  O
  O74      1.0000 0.64970  0.14970  0.21454  Biso   1.000  O
  O75      1.0000 0.10030  0.14970  0.53546  Biso   1.000  O
  O76      1.0000 0.10030  0.10030  0.71454  Biso   1.000  O
  O77      1.0000 0.89970  0.89970  0.28546  Biso   1.000  O
  O78      1.0000 0.85030  0.89970  0.46454  Biso   1.000  O
  O79      1.0000 0.85030  0.35030  0.78546  Biso   1.000  O
  O80      1.0000 0.89970  0.35030  0.96454  Biso   1.000  O
  O81      1.0000 0.10030  0.53546  0.14970  Biso   1.000  O
  O82      1.0000 0.64970  0.71454  0.64970  Biso   1.000  O
  O83      1.0000 0.10030  0.71454  0.10030  Biso   1.000  O
  O84      1.0000 0.64970  0.53546  0.60030  Biso   1.000  O
  O85      1.0000 0.46454  0.35030  0.39970  Biso   1.000  O
  O86      1.0000 0.46454  0.89970  0.85030  Biso   1.000  O
  O87      1.0000 0.28546  0.89970  0.89970  Biso   1.000  O
  O88      1.0000 0.28546  0.35030  0.35030  Biso   1.000  O
  O89      1.0000 0.53546  0.64970  0.60030  Biso   1.000  O
  O90      1.0000 0.71454  0.14970  0.14970  Biso   1.000  O
  O91      1.0000 0.71454  0.60030  0.60030  Biso   1.000  O
  O92      1.0000 0.53546  0.10030  0.14970  Biso   1.000  O
  O93      1.0000 0.35030  0.46454  0.39970  Biso   1.000  O
  O94      1.0000 0.35030  0.28546  0.35030  Biso   1.000  O
  O95      1.0000 0.89970  0.96454  0.35030  Biso   1.000  O
  O96      1.0000 0.39970  0.78546  0.89970  Biso   1.000  O
  O97      1.0000 0.17121  0.57879  0.07879  Biso   1.000  O
  O98      1.0000 0.17121  0.67121  0.17121  Biso   1.000  O
  O99      1.0000 0.57879  0.67121  0.57879  Biso   1.000  O
  O100     1.0000 0.57879  0.57879  0.67121  Biso   1.000  O
  O101     1.0000 0.42121  0.42121  0.32879  Biso   1.000  O
  O102     1.0000 0.32879  0.42121  0.42121  Biso   1.000  O
  O103     1.0000 0.32879  0.82879  0.82879  Biso   1.000  O
  O104     1.0000 0.42121  0.82879  0.92121  Biso   1.000  O
  O105     1.0000 0.57879  0.07879  0.17121  Biso   1.000  O
  O106     1.0000 0.17121  0.17121  0.67121  Biso   1.000  O
  O107     1.0000 0.57879  0.17121  0.07879  Biso   1.000  O
  O108     1.0000 0.17121  0.07879  0.57879  Biso   1.000  O
  O109     1.0000 0.92121  0.82879  0.42121  Biso   1.000  O
  O110     1.0000 0.92121  0.42121  0.82879  Biso   1.000  O
  O111     1.0000 0.82879  0.42121  0.92121  Biso   1.000  O
  O112     1.0000 0.82879  0.82879  0.32879  Biso   1.000  O
  O113     1.0000 0.07879  0.17121  0.57879  Biso   1.000  O
  O114     1.0000 0.07879  0.57879  0.17121  Biso   1.000  O
  O115     1.0000 0.82879  0.92121  0.42121  Biso   1.000  O
  O116     1.0000 0.92121  0.32879  0.92121  Biso   1.000  O
  O117     1.0000 0.42121  0.92121  0.82879  Biso   1.000  O
  O118     1.0000 0.32879  0.92121  0.92121  Biso   1.000  O
  O119     1.0000 0.32879  0.32879  0.32879  Biso   1.000  O
  O120     1.0000 0.42121  0.32879  0.42121  Biso   1.000  O
  O121     1.0000 0.92121  0.92121  0.32879  Biso   1.000  O
  O122     1.0000 0.82879  0.32879  0.82879  Biso   1.000  O
  O123     1.0000 0.07879  0.67121  0.07879  Biso   1.000  O
  O124     1.0000 0.07879  0.07879  0.67121  Biso   1.000  O
  O125     1.0000 0.67121  0.57879  0.57879  Biso   1.000  O
  O126     1.0000 0.67121  0.67121  0.67121  Biso   1.000  O
  O127     1.0000 0.67121  0.17121  0.17121  Biso   1.000  O
  O128     1.0000 0.67121  0.07879  0.07879  Biso   1.000  O
  O129     1.0000 0.18337  0.59244  0.04472  Biso   1.000  O
  O130     1.0000 0.18337  0.65756  0.20528  Biso   1.000  O
  O131     1.0000 0.56663  0.65756  0.54472  Biso   1.000  O
  O132     1.0000 0.56663  0.59244  0.70528  Biso   1.000  O
  O133     1.0000 0.40756  0.43337  0.29472  Biso   1.000  O
  O134     1.0000 0.34244  0.43337  0.45528  Biso   1.000  O
  O135     1.0000 0.34244  0.81663  0.79472  Biso   1.000  O
  O136     1.0000 0.40756  0.81663  0.95528  Biso   1.000  O
  O137     1.0000 0.59244  0.04472  0.18337  Biso   1.000  O
  O138     1.0000 0.15756  0.20528  0.68337  Biso   1.000  O
  O139     1.0000 0.59244  0.20528  0.06663  Biso   1.000  O
  O140     1.0000 0.15756  0.04472  0.56663  Biso   1.000  O
  O141     1.0000 0.95528  0.84244  0.43337  Biso   1.000  O
  O142     1.0000 0.95528  0.40756  0.81663  Biso   1.000  O
  O143     1.0000 0.79472  0.40756  0.93337  Biso   1.000  O
  O144     1.0000 0.79472  0.84244  0.31663  Biso   1.000  O
  O145     1.0000 0.04472  0.18337  0.59244  Biso   1.000  O
  O146     1.0000 0.20528  0.68337  0.15756  Biso   1.000  O
  O147     1.0000 0.20528  0.06663  0.59244  Biso   1.000  O
  O148     1.0000 0.04472  0.56663  0.15756  Biso   1.000  O
  O149     1.0000 0.81663  0.95528  0.40756  Biso   1.000  O
  O150     1.0000 0.81663  0.79472  0.34244  Biso   1.000  O
  O151     1.0000 0.43337  0.45528  0.34244  Biso   1.000  O
  O152     1.0000 0.93337  0.29472  0.90756  Biso   1.000  O
  O153     1.0000 0.18337  0.09244  0.54472  Biso   1.000  O
  O154     1.0000 0.18337  0.15756  0.70528  Biso   1.000  O
  O155     1.0000 0.56663  0.15756  0.04472  Biso   1.000  O
  O156     1.0000 0.56663  0.09244  0.20528  Biso   1.000  O
  O157     1.0000 0.40756  0.93337  0.79472  Biso   1.000  O
  O158     1.0000 0.34244  0.93337  0.95528  Biso   1.000  O
  O159     1.0000 0.34244  0.31663  0.29472  Biso   1.000  O
  O160     1.0000 0.40756  0.31663  0.45528  Biso   1.000  O
  O161     1.0000 0.59244  0.54472  0.68337  Biso   1.000  O
  O162     1.0000 0.15756  0.70528  0.18337  Biso   1.000  O
  O163     1.0000 0.59244  0.70528  0.56663  Biso   1.000  O
  O164     1.0000 0.15756  0.54472  0.06663  Biso   1.000  O
  O165     1.0000 0.95528  0.34244  0.93337  Biso   1.000  O
  O166     1.0000 0.95528  0.90756  0.31663  Biso   1.000  O
  O167     1.0000 0.79472  0.90756  0.43337  Biso   1.000  O
  O168     1.0000 0.79472  0.34244  0.81663  Biso   1.000  O
  O169     1.0000 0.04472  0.68337  0.09244  Biso   1.000  O
  O170     1.0000 0.20528  0.18337  0.65756  Biso   1.000  O
  O171     1.0000 0.20528  0.56663  0.09244  Biso   1.000  O
  O172     1.0000 0.04472  0.06663  0.65756  Biso   1.000  O
  O173     1.0000 0.81663  0.45528  0.90756  Biso   1.000  O
  O174     1.0000 0.81663  0.29472  0.84244  Biso   1.000  O
  O175     1.0000 0.43337  0.95528  0.84244  Biso   1.000  O
  O176     1.0000 0.93337  0.79472  0.40756  Biso   1.000  O
  O177     1.0000 0.68337  0.59244  0.54472  Biso   1.000  O
  O178     1.0000 0.68337  0.65756  0.70528  Biso   1.000  O
  O179     1.0000 0.06663  0.65756  0.04472  Biso   1.000  O
  O180     1.0000 0.06663  0.59244  0.20528  Biso   1.000  O
  O181     1.0000 0.90756  0.43337  0.79472  Biso   1.000  O
  O182     1.0000 0.84244  0.43337  0.95528  Biso   1.000  O
  O183     1.0000 0.84244  0.81663  0.29472  Biso   1.000  O
  O184     1.0000 0.90756  0.81663  0.45528  Biso   1.000  O
  O185     1.0000 0.09244  0.04472  0.68337  Biso   1.000  O
  O186     1.0000 0.65756  0.20528  0.18337  Biso   1.000  O
  O187     1.0000 0.09244  0.20528  0.56663  Biso   1.000  O
  O188     1.0000 0.65756  0.04472  0.06663  Biso   1.000  O
  O189     1.0000 0.45528  0.84244  0.93337  Biso   1.000  O
  O190     1.0000 0.45528  0.40756  0.31663  Biso   1.000  O
  O191     1.0000 0.29472  0.40756  0.43337  Biso   1.000  O
  O192     1.0000 0.29472  0.84244  0.81663  Biso   1.000  O
  O193     1.0000 0.54472  0.18337  0.09244  Biso   1.000  O
  O194     1.0000 0.70528  0.68337  0.65756  Biso   1.000  O
  O195     1.0000 0.70528  0.06663  0.09244  Biso   1.000  O
  O196     1.0000 0.54472  0.56663  0.65756  Biso   1.000  O
  O197     1.0000 0.31663  0.95528  0.90756  Biso   1.000  O
  O198     1.0000 0.31663  0.79472  0.84244  Biso   1.000  O
  O199     1.0000 0.93337  0.45528  0.84244  Biso   1.000  O
  O200     1.0000 0.43337  0.29472  0.40756  Biso   1.000  O
  O201     1.0000 0.68337  0.09244  0.04472  Biso   1.000  O
  O202     1.0000 0.68337  0.15756  0.20528  Biso   1.000  O
  O203     1.0000 0.06663  0.15756  0.54472  Biso   1.000  O
  O204     1.0000 0.06663  0.09244  0.70528  Biso   1.000  O
  O205     1.0000 0.90756  0.93337  0.29472  Biso   1.000  O
  O206     1.0000 0.84244  0.93337  0.45528  Biso   1.000  O
  O207     1.0000 0.84244  0.31663  0.79472  Biso   1.000  O
  O208     1.0000 0.90756  0.31663  0.95528  Biso   1.000  O
  O209     1.0000 0.09244  0.54472  0.18337  Biso   1.000  O
  O210     1.0000 0.65756  0.70528  0.68337  Biso   1.000  O
  O211     1.0000 0.09244  0.70528  0.06663  Biso   1.000  O
  O212     1.0000 0.65756  0.54472  0.56663  Biso   1.000  O
  O213     1.0000 0.45528  0.34244  0.43337  Biso   1.000  O
  O214     1.0000 0.45528  0.90756  0.81663  Biso   1.000  O
  O215     1.0000 0.29472  0.90756  0.93337  Biso   1.000  O
  O216     1.0000 0.29472  0.34244  0.31663  Biso   1.000  O
  O217     1.0000 0.54472  0.68337  0.59244  Biso   1.000  O
  O218     1.0000 0.70528  0.18337  0.15756  Biso   1.000  O
  O219     1.0000 0.70528  0.56663  0.59244  Biso   1.000  O
  O220     1.0000 0.54472  0.06663  0.15756  Biso   1.000  O
  O221     1.0000 0.31663  0.45528  0.40756  Biso   1.000  O
  O222     1.0000 0.31663  0.29472  0.34244  Biso   1.000  O
  O223     1.0000 0.93337  0.95528  0.34244  Biso   1.000  O
  O224     1.0000 0.43337  0.79472  0.90756  Biso   1.000  O
  O225     1.0000 0.81663  0.40756  0.95528  Biso   1.000  O
  O226     1.0000 0.81663  0.34244  0.79472  Biso   1.000  O
  O227     1.0000 0.43337  0.34244  0.45528  Biso   1.000  O
  O228     1.0000 0.43337  0.40756  0.29472  Biso   1.000  O
  O229     1.0000 0.59244  0.56663  0.70528  Biso   1.000  O
  O230     1.0000 0.65756  0.56663  0.54472  Biso   1.000  O
  O231     1.0000 0.65756  0.18337  0.20528  Biso   1.000  O
  O232     1.0000 0.59244  0.18337  0.04472  Biso   1.000  O
  O233     1.0000 0.40756  0.95528  0.81663  Biso   1.000  O
  O234     1.0000 0.84244  0.79472  0.31663  Biso   1.000  O
  O235     1.0000 0.40756  0.79472  0.93337  Biso   1.000  O
  O236     1.0000 0.84244  0.95528  0.43337  Biso   1.000  O
  O237     1.0000 0.04472  0.15756  0.56663  Biso   1.000  O
  O238     1.0000 0.04472  0.59244  0.18337  Biso   1.000  O
  O239     1.0000 0.20528  0.59244  0.06663  Biso   1.000  O
  O240     1.0000 0.20528  0.15756  0.68337  Biso   1.000  O
  O241     1.0000 0.95528  0.81663  0.40756  Biso   1.000  O
  O242     1.0000 0.79472  0.31663  0.84244  Biso   1.000  O
  O243     1.0000 0.79472  0.93337  0.40756  Biso   1.000  O
  O244     1.0000 0.95528  0.43337  0.84244  Biso   1.000  O
  O245     1.0000 0.18337  0.04472  0.59244  Biso   1.000  O
  O246     1.0000 0.18337  0.20528  0.65756  Biso   1.000  O
  O247     1.0000 0.56663  0.54472  0.65756  Biso   1.000  O
  O248     1.0000 0.06663  0.70528  0.09244  Biso   1.000  O
  O249     1.0000 0.81663  0.90756  0.45528  Biso   1.000  O
  O250     1.0000 0.81663  0.84244  0.29472  Biso   1.000  O
  O251     1.0000 0.43337  0.84244  0.95528  Biso   1.000  O
  O252     1.0000 0.43337  0.90756  0.79472  Biso   1.000  O
  O253     1.0000 0.59244  0.06663  0.20528  Biso   1.000  O
  O254     1.0000 0.65756  0.06663  0.04472  Biso   1.000  O
  O255     1.0000 0.65756  0.68337  0.70528  Biso   1.000  O
  O256     1.0000 0.59244  0.68337  0.54472  Biso   1.000  O
  O257     1.0000 0.40756  0.45528  0.31663  Biso   1.000  O
  O258     1.0000 0.84244  0.29472  0.81663  Biso   1.000  O
  O259     1.0000 0.40756  0.29472  0.43337  Biso   1.000  O
  O260     1.0000 0.84244  0.45528  0.93337  Biso   1.000  O
  O261     1.0000 0.04472  0.65756  0.06663  Biso   1.000  O
  O262     1.0000 0.04472  0.09244  0.68337  Biso   1.000  O
  O263     1.0000 0.20528  0.09244  0.56663  Biso   1.000  O
  O264     1.0000 0.20528  0.65756  0.18337  Biso   1.000  O
  O265     1.0000 0.95528  0.31663  0.90756  Biso   1.000  O
  O266     1.0000 0.79472  0.81663  0.34244  Biso   1.000  O
  O267     1.0000 0.79472  0.43337  0.90756  Biso   1.000  O
  O268     1.0000 0.95528  0.93337  0.34244  Biso   1.000  O
  O269     1.0000 0.18337  0.54472  0.09244  Biso   1.000  O
  O270     1.0000 0.18337  0.70528  0.15756  Biso   1.000  O
  O271     1.0000 0.56663  0.04472  0.15756  Biso   1.000  O
  O272     1.0000 0.06663  0.20528  0.59244  Biso   1.000  O
  O273     1.0000 0.31663  0.40756  0.45528  Biso   1.000  O
  O274     1.0000 0.31663  0.34244  0.29472  Biso   1.000  O
  O275     1.0000 0.93337  0.34244  0.95528  Biso   1.000  O
  O276     1.0000 0.93337  0.40756  0.79472  Biso   1.000  O
  O277     1.0000 0.09244  0.56663  0.20528  Biso   1.000  O
  O278     1.0000 0.15756  0.56663  0.04472  Biso   1.000  O
  O279     1.0000 0.15756  0.18337  0.70528  Biso   1.000  O
  O280     1.0000 0.09244  0.18337  0.54472  Biso   1.000  O
  O281     1.0000 0.90756  0.95528  0.31663  Biso   1.000  O
  O282     1.0000 0.34244  0.79472  0.81663  Biso   1.000  O
  O283     1.0000 0.90756  0.79472  0.43337  Biso   1.000  O
  O284     1.0000 0.34244  0.95528  0.93337  Biso   1.000  O
  O285     1.0000 0.54472  0.15756  0.06663  Biso   1.000  O
  O286     1.0000 0.54472  0.59244  0.68337  Biso   1.000  O
  O287     1.0000 0.70528  0.59244  0.56663  Biso   1.000  O
  O288     1.0000 0.70528  0.15756  0.18337  Biso   1.000  O
  O289     1.0000 0.45528  0.81663  0.90756  Biso   1.000  O
  O290     1.0000 0.29472  0.31663  0.34244  Biso   1.000  O
  O291     1.0000 0.29472  0.93337  0.90756  Biso   1.000  O
  O292     1.0000 0.45528  0.43337  0.34244  Biso   1.000  O
  O293     1.0000 0.68337  0.04472  0.09244  Biso   1.000  O
  O294     1.0000 0.68337  0.20528  0.15756  Biso   1.000  O
  O295     1.0000 0.06663  0.54472  0.15756  Biso   1.000  O
  O296     1.0000 0.56663  0.70528  0.59244  Biso   1.000  O
  O297     1.0000 0.31663  0.90756  0.95528  Biso   1.000  O
  O298     1.0000 0.31663  0.84244  0.79472  Biso   1.000  O
  O299     1.0000 0.93337  0.84244  0.45528  Biso   1.000  O
  O300     1.0000 0.93337  0.90756  0.29472  Biso   1.000  O
  O301     1.0000 0.09244  0.06663  0.70528  Biso   1.000  O
  O302     1.0000 0.15756  0.06663  0.54472  Biso   1.000  O
  O303     1.0000 0.15756  0.68337  0.20528  Biso   1.000  O
  O304     1.0000 0.09244  0.68337  0.04472  Biso   1.000  O
  O305     1.0000 0.90756  0.45528  0.81663  Biso   1.000  O
  O306     1.0000 0.34244  0.29472  0.31663  Biso   1.000  O
  O307     1.0000 0.90756  0.29472  0.93337  Biso   1.000  O
  O308     1.0000 0.34244  0.45528  0.43337  Biso   1.000  O
  O309     1.0000 0.54472  0.65756  0.56663  Biso   1.000  O
  O310     1.0000 0.54472  0.09244  0.18337  Biso   1.000  O
  O311     1.0000 0.70528  0.09244  0.06663  Biso   1.000  O
  O312     1.0000 0.70528  0.65756  0.68337  Biso   1.000  O
  O313     1.0000 0.45528  0.31663  0.40756  Biso   1.000  O
  O314     1.0000 0.29472  0.81663  0.84244  Biso   1.000  O
  O315     1.0000 0.29472  0.43337  0.40756  Biso   1.000  O
  O316     1.0000 0.45528  0.93337  0.84244  Biso   1.000  O
  O317     1.0000 0.68337  0.54472  0.59244  Biso   1.000  O
  O318     1.0000 0.68337  0.70528  0.65756  Biso   1.000  O
  O319     1.0000 0.06663  0.04472  0.65756  Biso   1.000  O
  O320     1.0000 0.56663  0.20528  0.09244  Biso   1.000  O
  O321     1.0000 0.13598  0.58863  0.06662  Biso   1.000  O
  O322     1.0000 0.13598  0.66137  0.18338  Biso   1.000  O
  O323     1.0000 0.61402  0.66137  0.56662  Biso   1.000  O
  O324     1.0000 0.61402  0.58863  0.68338  Biso   1.000  O
  O325     1.0000 0.41137  0.38598  0.31662  Biso   1.000  O
  O326     1.0000 0.33863  0.38598  0.43338  Biso   1.000  O
  O327     1.0000 0.33863  0.86402  0.81662  Biso   1.000  O
  O328     1.0000 0.41137  0.86402  0.93338  Biso   1.000  O
  O329     1.0000 0.58863  0.06662  0.13598  Biso   1.000  O
  O330     1.0000 0.16137  0.18338  0.63598  Biso   1.000  O
  O331     1.0000 0.58863  0.18338  0.11402  Biso   1.000  O
  O332     1.0000 0.16137  0.06662  0.61402  Biso   1.000  O
  O333     1.0000 0.93338  0.83863  0.38598  Biso   1.000  O
  O334     1.0000 0.93338  0.41137  0.86402  Biso   1.000  O
  O335     1.0000 0.81662  0.41137  0.88598  Biso   1.000  O
  O336     1.0000 0.81662  0.83863  0.36402  Biso   1.000  O
  O337     1.0000 0.06662  0.13598  0.58863  Biso   1.000  O
  O338     1.0000 0.18338  0.63598  0.16137  Biso   1.000  O
  O339     1.0000 0.18338  0.11402  0.58863  Biso   1.000  O
  O340     1.0000 0.06662  0.61402  0.16137  Biso   1.000  O
  O341     1.0000 0.86402  0.93338  0.41137  Biso   1.000  O
  O342     1.0000 0.86402  0.81662  0.33863  Biso   1.000  O
  O343     1.0000 0.38598  0.43338  0.33863  Biso   1.000  O
  O344     1.0000 0.88598  0.31662  0.91137  Biso   1.000  O
  O345     1.0000 0.13598  0.08863  0.56662  Biso   1.000  O
  O346     1.0000 0.13598  0.16137  0.68338  Biso   1.000  O
  O347     1.0000 0.61402  0.16137  0.06662  Biso   1.000  O
  O348     1.0000 0.61402  0.08863  0.18338  Biso   1.000  O
  O349     1.0000 0.41137  0.88598  0.81662  Biso   1.000  O
  O350     1.0000 0.33863  0.88598  0.93338  Biso   1.000  O
  O351     1.0000 0.33863  0.36402  0.31662  Biso   1.000  O
  O352     1.0000 0.41137  0.36402  0.43338  Biso   1.000  O
  O353     1.0000 0.58863  0.56662  0.63598  Biso   1.000  O
  O354     1.0000 0.16137  0.68338  0.13598  Biso   1.000  O
  O355     1.0000 0.58863  0.68338  0.61402  Biso   1.000  O
  O356     1.0000 0.16137  0.56662  0.11402  Biso   1.000  O
  O357     1.0000 0.93338  0.33863  0.88598  Biso   1.000  O
  O358     1.0000 0.93338  0.91137  0.36402  Biso   1.000  O
  O359     1.0000 0.81662  0.91137  0.38598  Biso   1.000  O
  O360     1.0000 0.81662  0.33863  0.86402  Biso   1.000  O
  O361     1.0000 0.06662  0.63598  0.08863  Biso   1.000  O
  O362     1.0000 0.18338  0.13598  0.66137  Biso   1.000  O
  O363     1.0000 0.18338  0.61402  0.08863  Biso   1.000  O
  O364     1.0000 0.06662  0.11402  0.66137  Biso   1.000  O
  O365     1.0000 0.86402  0.43338  0.91137  Biso   1.000  O
  O366     1.0000 0.86402  0.31662  0.83863  Biso   1.000  O
  O367     1.0000 0.38598  0.93338  0.83863  Biso   1.000  O
  O368     1.0000 0.88598  0.81662  0.41137  Biso   1.000  O
  O369     1.0000 0.63598  0.58863  0.56662  Biso   1.000  O
  O370     1.0000 0.63598  0.66137  0.68338  Biso   1.000  O
  O371     1.0000 0.11402  0.66137  0.06662  Biso   1.000  O
  O372     1.0000 0.11402  0.58863  0.18338  Biso   1.000  O
  O373     1.0000 0.91137  0.38598  0.81662  Biso   1.000  O
  O374     1.0000 0.83863  0.38598  0.93338  Biso   1.000  O
  O375     1.0000 0.83863  0.86402  0.31662  Biso   1.000  O
  O376     1.0000 0.91137  0.86402  0.43338  Biso   1.000  O
  O377     1.0000 0.08863  0.06662  0.63598  Biso   1.000  O
  O378     1.0000 0.66137  0.18338  0.13598  Biso   1.000  O
  O379     1.0000 0.08863  0.18338  0.61402  Biso   1.000  O
  O380     1.0000 0.66137  0.06662  0.11402  Biso   1.000  O
  O381     1.0000 0.43338  0.83863  0.88598  Biso   1.000  O
  O382     1.0000 0.43338  0.41137  0.36402  Biso   1.000  O
  O383     1.0000 0.31662  0.41137  0.38598  Biso   1.000  O
  O384     1.0000 0.31662  0.83863  0.86402  Biso   1.000  O
  O385     1.0000 0.56662  0.13598  0.08863  Biso   1.000  O
  O386     1.0000 0.68338  0.63598  0.66137  Biso   1.000  O
  O387     1.0000 0.68338  0.11402  0.08863  Biso   1.000  O
  O388     1.0000 0.56662  0.61402  0.66137  Biso   1.000  O
  O389     1.0000 0.36402  0.93338  0.91137  Biso   1.000  O
  O390     1.0000 0.36402  0.81662  0.83863  Biso   1.000  O
  O391     1.0000 0.88598  0.43338  0.83863  Biso   1.000  O
  O392     1.0000 0.38598  0.31662  0.41137  Biso   1.000  O
  O393     1.0000 0.63598  0.08863  0.06662  Biso   1.000  O
  O394     1.0000 0.63598  0.16137  0.18338  Biso   1.000  O
  O395     1.0000 0.11402  0.16137  0.56662  Biso   1.000  O
  O396     1.0000 0.11402  0.08863  0.68338  Biso   1.000  O
  O397     1.0000 0.91137  0.88598  0.31662  Biso   1.000  O
  O398     1.0000 0.83863  0.88598  0.43338  Biso   1.000  O
  O399     1.0000 0.83863  0.36402  0.81662  Biso   1.000  O
  O400     1.0000 0.91137  0.36402  0.93338  Biso   1.000  O
  O401     1.0000 0.08863  0.56662  0.13598  Biso   1.000  O
  O402     1.0000 0.66137  0.68338  0.63598  Biso   1.000  O
  O403     1.0000 0.08863  0.68338  0.11402  Biso   1.000  O
  O404     1.0000 0.66137  0.56662  0.61402  Biso   1.000  O
  O405     1.0000 0.43338  0.33863  0.38598  Biso   1.000  O
  O406     1.0000 0.43338  0.91137  0.86402  Biso   1.000  O
  O407     1.0000 0.31662  0.91137  0.88598  Biso   1.000  O
  O408     1.0000 0.31662  0.33863  0.36402  Biso   1.000  O
  O409     1.0000 0.56662  0.63598  0.58863  Biso   1.000  O
  O410     1.0000 0.68338  0.13598  0.16137  Biso   1.000  O
  O411     1.0000 0.68338  0.61402  0.58863  Biso   1.000  O
  O412     1.0000 0.56662  0.11402  0.16137  Biso   1.000  O
  O413     1.0000 0.36402  0.43338  0.41137  Biso   1.000  O
  O414     1.0000 0.36402  0.31662  0.33863  Biso   1.000  O
  O415     1.0000 0.88598  0.93338  0.33863  Biso   1.000  O
  O416     1.0000 0.38598  0.81662  0.91137  Biso   1.000  O
  O417     1.0000 0.86402  0.41137  0.93338  Biso   1.000  O
  O418     1.0000 0.86402  0.33863  0.81662  Biso   1.000  O
  O419     1.0000 0.38598  0.33863  0.43338  Biso   1.000  O
  O420     1.0000 0.38598  0.41137  0.31662  Biso   1.000  O
  O421     1.0000 0.58863  0.61402  0.68338  Biso   1.000  O
  O422     1.0000 0.66137  0.61402  0.56662  Biso   1.000  O
  O423     1.0000 0.66137  0.13598  0.18338  Biso   1.000  O
  O424     1.0000 0.58863  0.13598  0.06662  Biso   1.000  O
  O425     1.0000 0.41137  0.93338  0.86402  Biso   1.000  O
  O426     1.0000 0.83863  0.81662  0.36402  Biso   1.000  O
  O427     1.0000 0.41137  0.81662  0.88598  Biso   1.000  O
  O428     1.0000 0.83863  0.93338  0.38598  Biso   1.000  O
  O429     1.0000 0.06662  0.16137  0.61402  Biso   1.000  O
  O430     1.0000 0.06662  0.58863  0.13598  Biso   1.000  O
  O431     1.0000 0.18338  0.58863  0.11402  Biso   1.000  O
  O432     1.0000 0.18338  0.16137  0.63598  Biso   1.000  O
  O433     1.0000 0.93338  0.86402  0.41137  Biso   1.000  O
  O434     1.0000 0.81662  0.36402  0.83863  Biso   1.000  O
  O435     1.0000 0.81662  0.88598  0.41137  Biso   1.000  O
  O436     1.0000 0.93338  0.38598  0.83863  Biso   1.000  O
  O437     1.0000 0.13598  0.06662  0.58863  Biso   1.000  O
  O438     1.0000 0.13598  0.18338  0.66137  Biso   1.000  O
  O439     1.0000 0.61402  0.56662  0.66137  Biso   1.000  O
  O440     1.0000 0.11402  0.68338  0.08863  Biso   1.000  O
  O441     1.0000 0.86402  0.91137  0.43338  Biso   1.000  O
  O442     1.0000 0.86402  0.83863  0.31662  Biso   1.000  O
  O443     1.0000 0.38598  0.83863  0.93338  Biso   1.000  O
  O444     1.0000 0.38598  0.91137  0.81662  Biso   1.000  O
  O445     1.0000 0.58863  0.11402  0.18338  Biso   1.000  O
  O446     1.0000 0.66137  0.11402  0.06662  Biso   1.000  O
  O447     1.0000 0.66137  0.63598  0.68338  Biso   1.000  O
  O448     1.0000 0.58863  0.63598  0.56662  Biso   1.000  O
  O449     1.0000 0.41137  0.43338  0.36402  Biso   1.000  O
  O450     1.0000 0.83863  0.31662  0.86402  Biso   1.000  O
  O451     1.0000 0.41137  0.31662  0.38598  Biso   1.000  O
  O452     1.0000 0.83863  0.43338  0.88598  Biso   1.000  O
  O453     1.0000 0.06662  0.66137  0.11402  Biso   1.000  O
  O454     1.0000 0.06662  0.08863  0.63598  Biso   1.000  O
  O455     1.0000 0.18338  0.08863  0.61402  Biso   1.000  O
  O456     1.0000 0.18338  0.66137  0.13598  Biso   1.000  O
  O457     1.0000 0.93338  0.36402  0.91137  Biso   1.000  O
  O458     1.0000 0.81662  0.86402  0.33863  Biso   1.000  O
  O459     1.0000 0.81662  0.38598  0.91137  Biso   1.000  O
  O460     1.0000 0.93338  0.88598  0.33863  Biso   1.000  O
  O461     1.0000 0.13598  0.56662  0.08863  Biso   1.000  O
  O462     1.0000 0.13598  0.68338  0.16137  Biso   1.000  O
  O463     1.0000 0.61402  0.06662  0.16137  Biso   1.000  O
  O464     1.0000 0.11402  0.18338  0.58863  Biso   1.000  O
  O465     1.0000 0.36402  0.41137  0.43338  Biso   1.000  O
  O466     1.0000 0.36402  0.33863  0.31662  Biso   1.000  O
  O467     1.0000 0.88598  0.33863  0.93338  Biso   1.000  O
  O468     1.0000 0.88598  0.41137  0.81662  Biso   1.000  O
  O469     1.0000 0.08863  0.61402  0.18338  Biso   1.000  O
  O470     1.0000 0.16137  0.61402  0.06662  Biso   1.000  O
  O471     1.0000 0.16137  0.13598  0.68338  Biso   1.000  O
  O472     1.0000 0.08863  0.13598  0.56662  Biso   1.000  O
  O473     1.0000 0.91137  0.93338  0.36402  Biso   1.000  O
  O474     1.0000 0.33863  0.81662  0.86402  Biso   1.000  O
  O475     1.0000 0.91137  0.81662  0.38598  Biso   1.000  O
  O476     1.0000 0.33863  0.93338  0.88598  Biso   1.000  O
  O477     1.0000 0.56662  0.16137  0.11402  Biso   1.000  O
  O478     1.0000 0.56662  0.58863  0.63598  Biso   1.000  O
  O479     1.0000 0.68338  0.58863  0.61402  Biso   1.000  O
  O480     1.0000 0.68338  0.16137  0.13598  Biso   1.000  O
  O481     1.0000 0.43338  0.86402  0.91137  Biso   1.000  O
  O482     1.0000 0.31662  0.36402  0.33863  Biso   1.000  O
  O483     1.0000 0.31662  0.88598  0.91137  Biso   1.000  O
  O484     1.0000 0.43338  0.38598  0.33863  Biso   1.000  O
  O485     1.0000 0.63598  0.06662  0.08863  Biso   1.000  O
  O486     1.0000 0.63598  0.18338  0.16137  Biso   1.000  O
  O487     1.0000 0.11402  0.56662  0.16137  Biso   1.000  O
  O488     1.0000 0.61402  0.68338  0.58863  Biso   1.000  O
  O489     1.0000 0.36402  0.91137  0.93338  Biso   1.000  O
  O490     1.0000 0.36402  0.83863  0.81662  Biso   1.000  O
  O491     1.0000 0.88598  0.83863  0.43338  Biso   1.000  O
  O492     1.0000 0.88598  0.91137  0.31662  Biso   1.000  O
  O493     1.0000 0.08863  0.11402  0.68338  Biso   1.000  O
  O494     1.0000 0.16137  0.11402  0.56662  Biso   1.000  O
  O495     1.0000 0.16137  0.63598  0.18338  Biso   1.000  O
  O496     1.0000 0.08863  0.63598  0.06662  Biso   1.000  O
  O497     1.0000 0.91137  0.43338  0.86402  Biso   1.000  O
  O498     1.0000 0.33863  0.31662  0.36402  Biso   1.000  O
  O499     1.0000 0.91137  0.31662  0.88598  Biso   1.000  O
  O500     1.0000 0.33863  0.43338  0.38598  Biso   1.000  O
  O501     1.0000 0.56662  0.66137  0.61402  Biso   1.000  O
  O502     1.0000 0.56662  0.08863  0.13598  Biso   1.000  O
  O503     1.0000 0.68338  0.08863  0.11402  Biso   1.000  O
  O504     1.0000 0.68338  0.66137  0.63598  Biso   1.000  O
  O505     1.0000 0.43338  0.36402  0.41137  Biso   1.000  O
  O506     1.0000 0.31662  0.86402  0.83863  Biso   1.000  O
  O507     1.0000 0.31662  0.38598  0.41137  Biso   1.000  O
  O508     1.0000 0.43338  0.88598  0.83863  Biso   1.000  O
  O509     1.0000 0.63598  0.56662  0.58863  Biso   1.000  O
  O510     1.0000 0.63598  0.68338  0.66137  Biso   1.000  O
  O511     1.0000 0.11402  0.06662  0.66137  Biso   1.000  O
  O512     1.0000 0.61402  0.18338  0.08863  Biso   1.000  O
  O513     1.0000 0.29426  0.54865  0.04865  Biso   1.000  O
  O514     1.0000 0.29426  0.70135  0.20135  Biso   1.000  O
  O515     1.0000 0.45574  0.70135  0.54865  Biso   1.000  O
  O516     1.0000 0.45574  0.54865  0.70135  Biso   1.000  O
  O517     1.0000 0.45135  0.54426  0.29865  Biso   1.000  O
  O518     1.0000 0.29865  0.54426  0.45135  Biso   1.000  O
  O519     1.0000 0.29865  0.70574  0.79865  Biso   1.000  O
  O520     1.0000 0.45135  0.70574  0.95135  Biso   1.000  O
  O521     1.0000 0.54865  0.04865  0.29426  Biso   1.000  O
  O522     1.0000 0.20135  0.20135  0.79426  Biso   1.000  O
  O523     1.0000 0.54865  0.20135  0.95574  Biso   1.000  O
  O524     1.0000 0.20135  0.04865  0.45574  Biso   1.000  O
  O525     1.0000 0.95135  0.79865  0.54426  Biso   1.000  O
  O526     1.0000 0.95135  0.45135  0.70574  Biso   1.000  O
  O527     1.0000 0.79865  0.45135  0.04426  Biso   1.000  O
  O528     1.0000 0.79865  0.79865  0.20574  Biso   1.000  O
  O529     1.0000 0.04865  0.29426  0.54865  Biso   1.000  O
  O530     1.0000 0.20135  0.79426  0.20135  Biso   1.000  O
  O531     1.0000 0.20135  0.95574  0.54865  Biso   1.000  O
  O532     1.0000 0.04865  0.45574  0.20135  Biso   1.000  O
  O533     1.0000 0.70574  0.95135  0.45135  Biso   1.000  O
  O534     1.0000 0.70574  0.79865  0.29865  Biso   1.000  O
  O535     1.0000 0.54426  0.45135  0.29865  Biso   1.000  O
  O536     1.0000 0.04426  0.29865  0.95135  Biso   1.000  O
  O537     1.0000 0.29426  0.04865  0.54865  Biso   1.000  O
  O538     1.0000 0.29426  0.20135  0.70135  Biso   1.000  O
  O539     1.0000 0.45574  0.20135  0.04865  Biso   1.000  O
  O540     1.0000 0.45574  0.04865  0.20135  Biso   1.000  O
  O541     1.0000 0.45135  0.04426  0.79865  Biso   1.000  O
  O542     1.0000 0.29865  0.04426  0.95135  Biso   1.000  O
  O543     1.0000 0.29865  0.20574  0.29865  Biso   1.000  O
  O544     1.0000 0.45135  0.20574  0.45135  Biso   1.000  O
  O545     1.0000 0.54865  0.54865  0.79426  Biso   1.000  O
  O546     1.0000 0.20135  0.70135  0.29426  Biso   1.000  O
  O547     1.0000 0.54865  0.70135  0.45574  Biso   1.000  O
  O548     1.0000 0.20135  0.54865  0.95574  Biso   1.000  O
  O549     1.0000 0.95135  0.29865  0.04426  Biso   1.000  O
  O550     1.0000 0.95135  0.95135  0.20574  Biso   1.000  O
  O551     1.0000 0.79865  0.95135  0.54426  Biso   1.000  O
  O552     1.0000 0.79865  0.29865  0.70574  Biso   1.000  O
  O553     1.0000 0.04865  0.79426  0.04865  Biso   1.000  O
  O554     1.0000 0.20135  0.29426  0.70135  Biso   1.000  O
  O555     1.0000 0.20135  0.45574  0.04865  Biso   1.000  O
  O556     1.0000 0.04865  0.95574  0.70135  Biso   1.000  O
  O557     1.0000 0.70574  0.45135  0.95135  Biso   1.000  O
  O558     1.0000 0.70574  0.29865  0.79865  Biso   1.000  O
  O559     1.0000 0.54426  0.95135  0.79865  Biso   1.000  O
  O560     1.0000 0.04426  0.79865  0.45135  Biso   1.000  O
  O561     1.0000 0.79426  0.54865  0.54865  Biso   1.000  O
  O562     1.0000 0.79426  0.70135  0.70135  Biso   1.000  O
  O563     1.0000 0.95574  0.70135  0.04865  Biso   1.000  O
  O564     1.0000 0.95574  0.54865  0.20135  Biso   1.000  O
  O565     1.0000 0.95135  0.54426  0.79865  Biso   1.000  O
  O566     1.0000 0.79865  0.54426  0.95135  Biso   1.000  O
  O567     1.0000 0.79865  0.70574  0.29865  Biso   1.000  O
  O568     1.0000 0.95135  0.70574  0.45135  Biso   1.000  O
  O569     1.0000 0.04865  0.04865  0.79426  Biso   1.000  O
  O570     1.0000 0.70135  0.20135  0.29426  Biso   1.000  O
  O571     1.0000 0.04865  0.20135  0.45574  Biso   1.000  O
  O572     1.0000 0.70135  0.04865  0.95574  Biso   1.000  O
  O573     1.0000 0.45135  0.79865  0.04426  Biso   1.000  O
  O574     1.0000 0.45135  0.45135  0.20574  Biso   1.000  O
  O575     1.0000 0.29865  0.45135  0.54426  Biso   1.000  O
  O576     1.0000 0.29865  0.79865  0.70574  Biso   1.000  O
  O577     1.0000 0.54865  0.29426  0.04865  Biso   1.000  O
  O578     1.0000 0.70135  0.79426  0.70135  Biso   1.000  O
  O579     1.0000 0.70135  0.95574  0.04865  Biso   1.000  O
  O580     1.0000 0.54865  0.45574  0.70135  Biso   1.000  O
  O581     1.0000 0.20574  0.95135  0.95135  Biso   1.000  O
  O582     1.0000 0.20574  0.79865  0.79865  Biso   1.000  O
  O583     1.0000 0.04426  0.45135  0.79865  Biso   1.000  O
  O584     1.0000 0.54426  0.29865  0.45135  Biso   1.000  O
  O585     1.0000 0.79426  0.04865  0.04865  Biso   1.000  O
  O586     1.0000 0.79426  0.20135  0.20135  Biso   1.000  O
  O587     1.0000 0.95574  0.20135  0.54865  Biso   1.000  O
  O588     1.0000 0.95574  0.04865  0.70135  Biso   1.000  O
  O589     1.0000 0.95135  0.04426  0.29865  Biso   1.000  O
  O590     1.0000 0.79865  0.04426  0.45135  Biso   1.000  O
  O591     1.0000 0.79865  0.20574  0.79865  Biso   1.000  O
  O592     1.0000 0.95135  0.20574  0.95135  Biso   1.000  O
  O593     1.0000 0.04865  0.54865  0.29426  Biso   1.000  O
  O594     1.0000 0.70135  0.70135  0.79426  Biso   1.000  O
  O595     1.0000 0.04865  0.70135  0.95574  Biso   1.000  O
  O596     1.0000 0.70135  0.54865  0.45574  Biso   1.000  O
  O597     1.0000 0.45135  0.29865  0.54426  Biso   1.000  O
  O598     1.0000 0.45135  0.95135  0.70574  Biso   1.000  O
  O599     1.0000 0.29865  0.95135  0.04426  Biso   1.000  O
  O600     1.0000 0.29865  0.29865  0.20574  Biso   1.000  O
  O601     1.0000 0.54865  0.79426  0.54865  Biso   1.000  O
  O602     1.0000 0.70135  0.29426  0.20135  Biso   1.000  O
  O603     1.0000 0.70135  0.45574  0.54865  Biso   1.000  O
  O604     1.0000 0.54865  0.95574  0.20135  Biso   1.000  O
  O605     1.0000 0.20574  0.45135  0.45135  Biso   1.000  O
  O606     1.0000 0.20574  0.29865  0.29865  Biso   1.000  O
  O607     1.0000 0.04426  0.95135  0.29865  Biso   1.000  O
  O608     1.0000 0.54426  0.79865  0.95135  Biso   1.000  O
  O609     1.0000 0.30281  0.56335  0.99908  Biso   1.000  O
  O610     1.0000 0.30281  0.68665  0.25092  Biso   1.000  O
  O611     1.0000 0.44719  0.68665  0.49908  Biso   1.000  O
  O612     1.0000 0.44719  0.56335  0.75092  Biso   1.000  O
  O613     1.0000 0.43665  0.55281  0.24908  Biso   1.000  O
  O614     1.0000 0.31335  0.55281  0.50092  Biso   1.000  O
  O615     1.0000 0.31335  0.69719  0.74908  Biso   1.000  O
  O616     1.0000 0.43665  0.69719  0.00092  Biso   1.000  O
  O617     1.0000 0.56335  0.99908  0.30281  Biso   1.000  O
  O618     1.0000 0.18665  0.25092  0.80281  Biso   1.000  O
  O619     1.0000 0.56335  0.25092  0.94719  Biso   1.000  O
  O620     1.0000 0.18665  0.99908  0.44719  Biso   1.000  O
  O621     1.0000 0.00092  0.81335  0.55281  Biso   1.000  O
  O622     1.0000 0.00092  0.43665  0.69719  Biso   1.000  O
  O623     1.0000 0.74908  0.43665  0.05281  Biso   1.000  O
  O624     1.0000 0.74908  0.81335  0.19719  Biso   1.000  O
  O625     1.0000 0.99908  0.30281  0.56335  Biso   1.000  O
  O626     1.0000 0.25092  0.80281  0.18665  Biso   1.000  O
  O627     1.0000 0.25092  0.94719  0.56335  Biso   1.000  O
  O628     1.0000 0.99908  0.44719  0.18665  Biso   1.000  O
  O629     1.0000 0.69719  0.00092  0.43665  Biso   1.000  O
  O630     1.0000 0.69719  0.74908  0.31335  Biso   1.000  O
  O631     1.0000 0.55281  0.50092  0.31335  Biso   1.000  O
  O632     1.0000 0.05281  0.24908  0.93665  Biso   1.000  O
  O633     1.0000 0.30281  0.06335  0.49908  Biso   1.000  O
  O634     1.0000 0.30281  0.18665  0.75092  Biso   1.000  O
  O635     1.0000 0.44719  0.18665  0.99908  Biso   1.000  O
  O636     1.0000 0.44719  0.06335  0.25092  Biso   1.000  O
  O637     1.0000 0.43665  0.05281  0.74908  Biso   1.000  O
  O638     1.0000 0.31335  0.05281  0.00092  Biso   1.000  O
  O639     1.0000 0.31335  0.19719  0.24908  Biso   1.000  O
  O640     1.0000 0.43665  0.19719  0.50092  Biso   1.000  O
  O641     1.0000 0.56335  0.49908  0.80281  Biso   1.000  O
  O642     1.0000 0.18665  0.75092  0.30281  Biso   1.000  O
  O643     1.0000 0.56335  0.75092  0.44719  Biso   1.000  O
  O644     1.0000 0.18665  0.49908  0.94719  Biso   1.000  O
  O645     1.0000 0.00092  0.31335  0.05281  Biso   1.000  O
  O646     1.0000 0.00092  0.93665  0.19719  Biso   1.000  O
  O647     1.0000 0.74908  0.93665  0.55281  Biso   1.000  O
  O648     1.0000 0.74908  0.31335  0.69719  Biso   1.000  O
  O649     1.0000 0.99908  0.80281  0.06335  Biso   1.000  O
  O650     1.0000 0.25092  0.30281  0.68665  Biso   1.000  O
  O651     1.0000 0.25092  0.44719  0.06335  Biso   1.000  O
  O652     1.0000 0.99908  0.94719  0.68665  Biso   1.000  O
  O653     1.0000 0.69719  0.50092  0.93665  Biso   1.000  O
  O654     1.0000 0.69719  0.24908  0.81335  Biso   1.000  O
  O655     1.0000 0.55281  0.00092  0.81335  Biso   1.000  O
  O656     1.0000 0.05281  0.74908  0.43665  Biso   1.000  O
  O657     1.0000 0.80281  0.56335  0.49908  Biso   1.000  O
  O658     1.0000 0.80281  0.68665  0.75092  Biso   1.000  O
  O659     1.0000 0.94719  0.68665  0.99908  Biso   1.000  O
  O660     1.0000 0.94719  0.56335  0.25092  Biso   1.000  O
  O661     1.0000 0.93665  0.55281  0.74908  Biso   1.000  O
  O662     1.0000 0.81335  0.55281  0.00092  Biso   1.000  O
  O663     1.0000 0.81335  0.69719  0.24908  Biso   1.000  O
  O664     1.0000 0.93665  0.69719  0.50092  Biso   1.000  O
  O665     1.0000 0.06335  0.99908  0.80281  Biso   1.000  O
  O666     1.0000 0.68665  0.25092  0.30281  Biso   1.000  O
  O667     1.0000 0.06335  0.25092  0.44719  Biso   1.000  O
  O668     1.0000 0.68665  0.99908  0.94719  Biso   1.000  O
  O669     1.0000 0.50092  0.81335  0.05281  Biso   1.000  O
  O670     1.0000 0.50092  0.43665  0.19719  Biso   1.000  O
  O671     1.0000 0.24908  0.43665  0.55281  Biso   1.000  O
  O672     1.0000 0.24908  0.81335  0.69719  Biso   1.000  O
  O673     1.0000 0.49908  0.30281  0.06335  Biso   1.000  O
  O674     1.0000 0.75092  0.80281  0.68665  Biso   1.000  O
  O675     1.0000 0.75092  0.94719  0.06335  Biso   1.000  O
  O676     1.0000 0.49908  0.44719  0.68665  Biso   1.000  O
  O677     1.0000 0.19719  0.00092  0.93665  Biso   1.000  O
  O678     1.0000 0.19719  0.74908  0.81335  Biso   1.000  O
  O679     1.0000 0.05281  0.50092  0.81335  Biso   1.000  O
  O680     1.0000 0.55281  0.24908  0.43665  Biso   1.000  O
  O681     1.0000 0.80281  0.06335  0.99908  Biso   1.000  O
  O682     1.0000 0.80281  0.18665  0.25092  Biso   1.000  O
  O683     1.0000 0.94719  0.18665  0.49908  Biso   1.000  O
  O684     1.0000 0.94719  0.06335  0.75092  Biso   1.000  O
  O685     1.0000 0.93665  0.05281  0.24908  Biso   1.000  O
  O686     1.0000 0.81335  0.05281  0.50092  Biso   1.000  O
  O687     1.0000 0.81335  0.19719  0.74908  Biso   1.000  O
  O688     1.0000 0.93665  0.19719  0.00092  Biso   1.000  O
  O689     1.0000 0.06335  0.49908  0.30281  Biso   1.000  O
  O690     1.0000 0.68665  0.75092  0.80281  Biso   1.000  O
  O691     1.0000 0.06335  0.75092  0.94719  Biso   1.000  O
  O692     1.0000 0.68665  0.49908  0.44719  Biso   1.000  O
  O693     1.0000 0.50092  0.31335  0.55281  Biso   1.000  O
  O694     1.0000 0.50092  0.93665  0.69719  Biso   1.000  O
  O695     1.0000 0.24908  0.93665  0.05281  Biso   1.000  O
  O696     1.0000 0.24908  0.31335  0.19719  Biso   1.000  O
  O697     1.0000 0.49908  0.80281  0.56335  Biso   1.000  O
  O698     1.0000 0.75092  0.30281  0.18665  Biso   1.000  O
  O699     1.0000 0.75092  0.44719  0.56335  Biso   1.000  O
  O700     1.0000 0.49908  0.94719  0.18665  Biso   1.000  O
  O701     1.0000 0.19719  0.50092  0.43665  Biso   1.000  O
  O702     1.0000 0.19719  0.24908  0.31335  Biso   1.000  O
  O703     1.0000 0.05281  0.00092  0.31335  Biso   1.000  O
  O704     1.0000 0.55281  0.74908  0.93665  Biso   1.000  O
  O705     1.0000 0.69719  0.43665  0.00092  Biso   1.000  O
  O706     1.0000 0.69719  0.31335  0.74908  Biso   1.000  O
  O707     1.0000 0.55281  0.31335  0.50092  Biso   1.000  O
  O708     1.0000 0.55281  0.43665  0.24908  Biso   1.000  O
  O709     1.0000 0.56335  0.44719  0.75092  Biso   1.000  O
  O710     1.0000 0.68665  0.44719  0.49908  Biso   1.000  O
  O711     1.0000 0.68665  0.30281  0.25092  Biso   1.000  O
  O712     1.0000 0.56335  0.30281  0.99908  Biso   1.000  O
  O713     1.0000 0.43665  0.00092  0.69719  Biso   1.000  O
  O714     1.0000 0.81335  0.74908  0.19719  Biso   1.000  O
  O715     1.0000 0.43665  0.74908  0.05281  Biso   1.000  O
  O716     1.0000 0.81335  0.00092  0.55281  Biso   1.000  O
  O717     1.0000 0.99908  0.18665  0.44719  Biso   1.000  O
  O718     1.0000 0.99908  0.56335  0.30281  Biso   1.000  O
  O719     1.0000 0.25092  0.56335  0.94719  Biso   1.000  O
  O720     1.0000 0.25092  0.18665  0.80281  Biso   1.000  O
  O721     1.0000 0.00092  0.69719  0.43665  Biso   1.000  O
  O722     1.0000 0.74908  0.19719  0.81335  Biso   1.000  O
  O723     1.0000 0.74908  0.05281  0.43665  Biso   1.000  O
  O724     1.0000 0.00092  0.55281  0.81335  Biso   1.000  O
  O725     1.0000 0.30281  0.99908  0.56335  Biso   1.000  O
  O726     1.0000 0.30281  0.25092  0.68665  Biso   1.000  O
  O727     1.0000 0.44719  0.49908  0.68665  Biso   1.000  O
  O728     1.0000 0.94719  0.75092  0.06335  Biso   1.000  O
  O729     1.0000 0.69719  0.93665  0.50092  Biso   1.000  O
  O730     1.0000 0.69719  0.81335  0.24908  Biso   1.000  O
  O731     1.0000 0.55281  0.81335  0.00092  Biso   1.000  O
  O732     1.0000 0.55281  0.93665  0.74908  Biso   1.000  O
  O733     1.0000 0.56335  0.94719  0.25092  Biso   1.000  O
  O734     1.0000 0.68665  0.94719  0.99908  Biso   1.000  O
  O735     1.0000 0.68665  0.80281  0.75092  Biso   1.000  O
  O736     1.0000 0.56335  0.80281  0.49908  Biso   1.000  O
  O737     1.0000 0.43665  0.50092  0.19719  Biso   1.000  O
  O738     1.0000 0.81335  0.24908  0.69719  Biso   1.000  O
  O739     1.0000 0.43665  0.24908  0.55281  Biso   1.000  O
  O740     1.0000 0.81335  0.50092  0.05281  Biso   1.000  O
  O741     1.0000 0.99908  0.68665  0.94719  Biso   1.000  O
  O742     1.0000 0.99908  0.06335  0.80281  Biso   1.000  O
  O743     1.0000 0.25092  0.06335  0.44719  Biso   1.000  O
  O744     1.0000 0.25092  0.68665  0.30281  Biso   1.000  O
  O745     1.0000 0.00092  0.19719  0.93665  Biso   1.000  O
  O746     1.0000 0.74908  0.69719  0.31335  Biso   1.000  O
  O747     1.0000 0.74908  0.55281  0.93665  Biso   1.000  O
  O748     1.0000 0.00092  0.05281  0.31335  Biso   1.000  O
  O749     1.0000 0.30281  0.49908  0.06335  Biso   1.000  O
  O750     1.0000 0.30281  0.75092  0.18665  Biso   1.000  O
  O751     1.0000 0.44719  0.99908  0.18665  Biso   1.000  O
  O752     1.0000 0.94719  0.25092  0.56335  Biso   1.000  O
  O753     1.0000 0.19719  0.43665  0.50092  Biso   1.000  O
  O754     1.0000 0.19719  0.31335  0.24908  Biso   1.000  O
  O755     1.0000 0.05281  0.31335  0.00092  Biso   1.000  O
  O756     1.0000 0.05281  0.43665  0.74908  Biso   1.000  O
  O757     1.0000 0.06335  0.44719  0.25092  Biso   1.000  O
  O758     1.0000 0.18665  0.44719  0.99908  Biso   1.000  O
  O759     1.0000 0.18665  0.30281  0.75092  Biso   1.000  O
  O760     1.0000 0.06335  0.30281  0.49908  Biso   1.000  O
  O761     1.0000 0.93665  0.00092  0.19719  Biso   1.000  O
  O762     1.0000 0.31335  0.74908  0.69719  Biso   1.000  O
  O763     1.0000 0.93665  0.74908  0.55281  Biso   1.000  O
  O764     1.0000 0.31335  0.00092  0.05281  Biso   1.000  O
  O765     1.0000 0.49908  0.18665  0.94719  Biso   1.000  O
  O766     1.0000 0.49908  0.56335  0.80281  Biso   1.000  O
  O767     1.0000 0.75092  0.56335  0.44719  Biso   1.000  O
  O768     1.0000 0.75092  0.18665  0.30281  Biso   1.000  O
  O769     1.0000 0.50092  0.69719  0.93665  Biso   1.000  O
  O770     1.0000 0.24908  0.19719  0.31335  Biso   1.000  O
  O771     1.0000 0.24908  0.05281  0.93665  Biso   1.000  O
  O772     1.0000 0.50092  0.55281  0.31335  Biso   1.000  O
  O773     1.0000 0.80281  0.99908  0.06335  Biso   1.000  O
  O774     1.0000 0.80281  0.25092  0.18665  Biso   1.000  O
  O775     1.0000 0.94719  0.49908  0.18665  Biso   1.000  O
  O776     1.0000 0.44719  0.75092  0.56335  Biso   1.000  O
  O777     1.0000 0.19719  0.93665  0.00092  Biso   1.000  O
  O778     1.0000 0.19719  0.81335  0.74908  Biso   1.000  O
  O779     1.0000 0.05281  0.81335  0.50092  Biso   1.000  O
  O780     1.0000 0.05281  0.93665  0.24908  Biso   1.000  O
  O781     1.0000 0.06335  0.94719  0.75092  Biso   1.000  O
  O782     1.0000 0.18665  0.94719  0.49908  Biso   1.000  O
  O783     1.0000 0.18665  0.80281  0.25092  Biso   1.000  O
  O784     1.0000 0.06335  0.80281  0.99908  Biso   1.000  O
  O785     1.0000 0.93665  0.50092  0.69719  Biso   1.000  O
  O786     1.0000 0.31335  0.24908  0.19719  Biso   1.000  O
  O787     1.0000 0.93665  0.24908  0.05281  Biso   1.000  O
  O788     1.0000 0.31335  0.50092  0.55281  Biso   1.000  O
  O789     1.0000 0.49908  0.68665  0.44719  Biso   1.000  O
  O790     1.0000 0.49908  0.06335  0.30281  Biso   1.000  O
  O791     1.0000 0.75092  0.06335  0.94719  Biso   1.000  O
  O792     1.0000 0.75092  0.68665  0.80281  Biso   1.000  O
  O793     1.0000 0.50092  0.19719  0.43665  Biso   1.000  O
  O794     1.0000 0.24908  0.69719  0.81335  Biso   1.000  O
  O795     1.0000 0.24908  0.55281  0.43665  Biso   1.000  O
  O796     1.0000 0.50092  0.05281  0.81335  Biso   1.000  O
  O797     1.0000 0.80281  0.49908  0.56335  Biso   1.000  O
  O798     1.0000 0.80281  0.75092  0.68665  Biso   1.000  O
  O799     1.0000 0.94719  0.99908  0.68665  Biso   1.000  O
  O800     1.0000 0.44719  0.25092  0.06335  Biso   1.000  O
  O801     1.0000 0.28515  0.53555  0.01353  Biso   1.000  O
  O802     1.0000 0.28515  0.71445  0.23647  Biso   1.000  O
  O803     1.0000 0.46485  0.71445  0.51353  Biso   1.000  O
  O804     1.0000 0.46485  0.53555  0.73647  Biso   1.000  O
  O805     1.0000 0.46445  0.53515  0.26353  Biso   1.000  O
  O806     1.0000 0.28555  0.53515  0.48647  Biso   1.000  O
  O807     1.0000 0.28555  0.71485  0.76353  Biso   1.000  O
  O808     1.0000 0.46445  0.71485  0.98647  Biso   1.000  O
  O809     1.0000 0.53555  0.01353  0.28515  Biso   1.000  O
  O810     1.0000 0.21445  0.23647  0.78515  Biso   1.000  O
  O811     1.0000 0.53555  0.23647  0.96485  Biso   1.000  O
  O812     1.0000 0.21445  0.01353  0.46485  Biso   1.000  O
  O813     1.0000 0.98647  0.78555  0.53515  Biso   1.000  O
  O814     1.0000 0.98647  0.46445  0.71485  Biso   1.000  O
  O815     1.0000 0.76353  0.46445  0.03515  Biso   1.000  O
  O816     1.0000 0.76353  0.78555  0.21485  Biso   1.000  O
  O817     1.0000 0.01353  0.28515  0.53555  Biso   1.000  O
  O818     1.0000 0.23647  0.78515  0.21445  Biso   1.000  O
  O819     1.0000 0.23647  0.96485  0.53555  Biso   1.000  O
  O820     1.0000 0.01353  0.46485  0.21445  Biso   1.000  O
  O821     1.0000 0.71485  0.98647  0.46445  Biso   1.000  O
  O822     1.0000 0.71485  0.76353  0.28555  Biso   1.000  O
  O823     1.0000 0.53515  0.48647  0.28555  Biso   1.000  O
  O824     1.0000 0.03515  0.26353  0.96445  Biso   1.000  O
  O825     1.0000 0.28515  0.03555  0.51353  Biso   1.000  O
  O826     1.0000 0.28515  0.21445  0.73647  Biso   1.000  O
  O827     1.0000 0.46485  0.21445  0.01353  Biso   1.000  O
  O828     1.0000 0.46485  0.03555  0.23647  Biso   1.000  O
  O829     1.0000 0.46445  0.03515  0.76353  Biso   1.000  O
  O830     1.0000 0.28555  0.03515  0.98647  Biso   1.000  O
  O831     1.0000 0.28555  0.21485  0.26353  Biso   1.000  O
  O832     1.0000 0.46445  0.21485  0.48647  Biso   1.000  O
  O833     1.0000 0.53555  0.51353  0.78515  Biso   1.000  O
  O834     1.0000 0.21445  0.73647  0.28515  Biso   1.000  O
  O835     1.0000 0.53555  0.73647  0.46485  Biso   1.000  O
  O836     1.0000 0.21445  0.51353  0.96485  Biso   1.000  O
  O837     1.0000 0.98647  0.28555  0.03515  Biso   1.000  O
  O838     1.0000 0.98647  0.96445  0.21485  Biso   1.000  O
  O839     1.0000 0.76353  0.96445  0.53515  Biso   1.000  O
  O840     1.0000 0.76353  0.28555  0.71485  Biso   1.000  O
  O841     1.0000 0.01353  0.78515  0.03555  Biso   1.000  O
  O842     1.0000 0.23647  0.28515  0.71445  Biso   1.000  O
  O843     1.0000 0.23647  0.46485  0.03555  Biso   1.000  O
  O844     1.0000 0.01353  0.96485  0.71445  Biso   1.000  O
  O845     1.0000 0.71485  0.48647  0.96445  Biso   1.000  O
  O846     1.0000 0.71485  0.26353  0.78555  Biso   1.000  O
  O847     1.0000 0.53515  0.98647  0.78555  Biso   1.000  O
  O848     1.0000 0.03515  0.76353  0.46445  Biso   1.000  O
  O849     1.0000 0.78515  0.53555  0.51353  Biso   1.000  O
  O850     1.0000 0.78515  0.71445  0.73647  Biso   1.000  O
  O851     1.0000 0.96485  0.71445  0.01353  Biso   1.000  O
  O852     1.0000 0.96485  0.53555  0.23647  Biso   1.000  O
  O853     1.0000 0.96445  0.53515  0.76353  Biso   1.000  O
  O854     1.0000 0.78555  0.53515  0.98647  Biso   1.000  O
  O855     1.0000 0.78555  0.71485  0.26353  Biso   1.000  O
  O856     1.0000 0.96445  0.71485  0.48647  Biso   1.000  O
  O857     1.0000 0.03555  0.01353  0.78515  Biso   1.000  O
  O858     1.0000 0.71445  0.23647  0.28515  Biso   1.000  O
  O859     1.0000 0.03555  0.23647  0.46485  Biso   1.000  O
  O860     1.0000 0.71445  0.01353  0.96485  Biso   1.000  O
  O861     1.0000 0.48647  0.78555  0.03515  Biso   1.000  O
  O862     1.0000 0.48647  0.46445  0.21485  Biso   1.000  O
  O863     1.0000 0.26353  0.46445  0.53515  Biso   1.000  O
  O864     1.0000 0.26353  0.78555  0.71485  Biso   1.000  O
  O865     1.0000 0.51353  0.28515  0.03555  Biso   1.000  O
  O866     1.0000 0.73647  0.78515  0.71445  Biso   1.000  O
  O867     1.0000 0.73647  0.96485  0.03555  Biso   1.000  O
  O868     1.0000 0.51353  0.46485  0.71445  Biso   1.000  O
  O869     1.0000 0.21485  0.98647  0.96445  Biso   1.000  O
  O870     1.0000 0.21485  0.76353  0.78555  Biso   1.000  O
  O871     1.0000 0.03515  0.48647  0.78555  Biso   1.000  O
  O872     1.0000 0.53515  0.26353  0.46445  Biso   1.000  O
  O873     1.0000 0.78515  0.03555  0.01353  Biso   1.000  O
  O874     1.0000 0.78515  0.21445  0.23647  Biso   1.000  O
  O875     1.0000 0.96485  0.21445  0.51353  Biso   1.000  O
  O876     1.0000 0.96485  0.03555  0.73647  Biso   1.000  O
  O877     1.0000 0.96445  0.03515  0.26353  Biso   1.000  O
  O878     1.0000 0.78555  0.03515  0.48647  Biso   1.000  O
  O879     1.0000 0.78555  0.21485  0.76353  Biso   1.000  O
  O880     1.0000 0.96445  0.21485  0.98647  Biso   1.000  O
  O881     1.0000 0.03555  0.51353  0.28515  Biso   1.000  O
  O882     1.0000 0.71445  0.73647  0.78515  Biso   1.000  O
  O883     1.0000 0.03555  0.73647  0.96485  Biso   1.000  O
  O884     1.0000 0.71445  0.51353  0.46485  Biso   1.000  O
  O885     1.0000 0.48647  0.28555  0.53515  Biso   1.000  O
  O886     1.0000 0.48647  0.96445  0.71485  Biso   1.000  O
  O887     1.0000 0.26353  0.96445  0.03515  Biso   1.000  O
  O888     1.0000 0.26353  0.28555  0.21485  Biso   1.000  O
  O889     1.0000 0.51353  0.78515  0.53555  Biso   1.000  O
  O890     1.0000 0.73647  0.28515  0.21445  Biso   1.000  O
  O891     1.0000 0.73647  0.46485  0.53555  Biso   1.000  O
  O892     1.0000 0.51353  0.96485  0.21445  Biso   1.000  O
  O893     1.0000 0.21485  0.48647  0.46445  Biso   1.000  O
  O894     1.0000 0.21485  0.26353  0.28555  Biso   1.000  O
  O895     1.0000 0.03515  0.98647  0.28555  Biso   1.000  O
  O896     1.0000 0.53515  0.76353  0.96445  Biso   1.000  O
  O897     1.0000 0.71485  0.46445  0.98647  Biso   1.000  O
  O898     1.0000 0.71485  0.28555  0.76353  Biso   1.000  O
  O899     1.0000 0.53515  0.28555  0.48647  Biso   1.000  O
  O900     1.0000 0.53515  0.46445  0.26353  Biso   1.000  O
  O901     1.0000 0.53555  0.46485  0.73647  Biso   1.000  O
  O902     1.0000 0.71445  0.46485  0.51353  Biso   1.000  O
  O903     1.0000 0.71445  0.28515  0.23647  Biso   1.000  O
  O904     1.0000 0.53555  0.28515  0.01353  Biso   1.000  O
  O905     1.0000 0.46445  0.98647  0.71485  Biso   1.000  O
  O906     1.0000 0.78555  0.76353  0.21485  Biso   1.000  O
  O907     1.0000 0.46445  0.76353  0.03515  Biso   1.000  O
  O908     1.0000 0.78555  0.98647  0.53515  Biso   1.000  O
  O909     1.0000 0.01353  0.21445  0.46485  Biso   1.000  O
  O910     1.0000 0.01353  0.53555  0.28515  Biso   1.000  O
  O911     1.0000 0.23647  0.53555  0.96485  Biso   1.000  O
  O912     1.0000 0.23647  0.21445  0.78515  Biso   1.000  O
  O913     1.0000 0.98647  0.71485  0.46445  Biso   1.000  O
  O914     1.0000 0.76353  0.21485  0.78555  Biso   1.000  O
  O915     1.0000 0.76353  0.03515  0.46445  Biso   1.000  O
  O916     1.0000 0.98647  0.53515  0.78555  Biso   1.000  O
  O917     1.0000 0.28515  0.01353  0.53555  Biso   1.000  O
  O918     1.0000 0.28515  0.23647  0.71445  Biso   1.000  O
  O919     1.0000 0.46485  0.51353  0.71445  Biso   1.000  O
  O920     1.0000 0.96485  0.73647  0.03555  Biso   1.000  O
  O921     1.0000 0.71485  0.96445  0.48647  Biso   1.000  O
  O922     1.0000 0.71485  0.78555  0.26353  Biso   1.000  O
  O923     1.0000 0.53515  0.78555  0.98647  Biso   1.000  O
  O924     1.0000 0.53515  0.96445  0.76353  Biso   1.000  O
  O925     1.0000 0.53555  0.96485  0.23647  Biso   1.000  O
  O926     1.0000 0.71445  0.96485  0.01353  Biso   1.000  O
  O927     1.0000 0.71445  0.78515  0.73647  Biso   1.000  O
  O928     1.0000 0.53555  0.78515  0.51353  Biso   1.000  O
  O929     1.0000 0.46445  0.48647  0.21485  Biso   1.000  O
  O930     1.0000 0.78555  0.26353  0.71485  Biso   1.000  O
  O931     1.0000 0.46445  0.26353  0.53515  Biso   1.000  O
  O932     1.0000 0.78555  0.48647  0.03515  Biso   1.000  O
  O933     1.0000 0.01353  0.71445  0.96485  Biso   1.000  O
  O934     1.0000 0.01353  0.03555  0.78515  Biso   1.000  O
  O935     1.0000 0.23647  0.03555  0.46485  Biso   1.000  O
  O936     1.0000 0.23647  0.71445  0.28515  Biso   1.000  O
  O937     1.0000 0.98647  0.21485  0.96445  Biso   1.000  O
  O938     1.0000 0.76353  0.71485  0.28555  Biso   1.000  O
  O939     1.0000 0.76353  0.53515  0.96445  Biso   1.000  O
  O940     1.0000 0.98647  0.03515  0.28555  Biso   1.000  O
  O941     1.0000 0.28515  0.51353  0.03555  Biso   1.000  O
  O942     1.0000 0.28515  0.73647  0.21445  Biso   1.000  O
  O943     1.0000 0.46485  0.01353  0.21445  Biso   1.000  O
  O944     1.0000 0.96485  0.23647  0.53555  Biso   1.000  O
  O945     1.0000 0.21485  0.46445  0.48647  Biso   1.000  O
  O946     1.0000 0.21485  0.28555  0.26353  Biso   1.000  O
  O947     1.0000 0.03515  0.28555  0.98647  Biso   1.000  O
  O948     1.0000 0.03515  0.46445  0.76353  Biso   1.000  O
  O949     1.0000 0.03555  0.46485  0.23647  Biso   1.000  O
  O950     1.0000 0.21445  0.46485  0.01353  Biso   1.000  O
  O951     1.0000 0.21445  0.28515  0.73647  Biso   1.000  O
  O952     1.0000 0.03555  0.28515  0.51353  Biso   1.000  O
  O953     1.0000 0.96445  0.98647  0.21485  Biso   1.000  O
  O954     1.0000 0.28555  0.76353  0.71485  Biso   1.000  O
  O955     1.0000 0.96445  0.76353  0.53515  Biso   1.000  O
  O956     1.0000 0.28555  0.98647  0.03515  Biso   1.000  O
  O957     1.0000 0.51353  0.21445  0.96485  Biso   1.000  O
  O958     1.0000 0.51353  0.53555  0.78515  Biso   1.000  O
  O959     1.0000 0.73647  0.53555  0.46485  Biso   1.000  O
  O960     1.0000 0.73647  0.21445  0.28515  Biso   1.000  O
  O961     1.0000 0.48647  0.71485  0.96445  Biso   1.000  O
  O962     1.0000 0.26353  0.21485  0.28555  Biso   1.000  O
  O963     1.0000 0.26353  0.03515  0.96445  Biso   1.000  O
  O964     1.0000 0.48647  0.53515  0.28555  Biso   1.000  O
  O965     1.0000 0.78515  0.01353  0.03555  Biso   1.000  O
  O966     1.0000 0.78515  0.23647  0.21445  Biso   1.000  O
  O967     1.0000 0.96485  0.51353  0.21445  Biso   1.000  O
  O968     1.0000 0.46485  0.73647  0.53555  Biso   1.000  O
  O969     1.0000 0.21485  0.96445  0.98647  Biso   1.000  O
  O970     1.0000 0.21485  0.78555  0.76353  Biso   1.000  O
  O971     1.0000 0.03515  0.78555  0.48647  Biso   1.000  O
  O972     1.0000 0.03515  0.96445  0.26353  Biso   1.000  O
  O973     1.0000 0.03555  0.96485  0.73647  Biso   1.000  O
  O974     1.0000 0.21445  0.96485  0.51353  Biso   1.000  O
  O975     1.0000 0.21445  0.78515  0.23647  Biso   1.000  O
  O976     1.0000 0.03555  0.78515  0.01353  Biso   1.000  O
  O977     1.0000 0.96445  0.48647  0.71485  Biso   1.000  O
  O978     1.0000 0.28555  0.26353  0.21485  Biso   1.000  O
  O979     1.0000 0.96445  0.26353  0.03515  Biso   1.000  O
  O980     1.0000 0.28555  0.48647  0.53515  Biso   1.000  O
  O981     1.0000 0.51353  0.71445  0.46485  Biso   1.000  O
  O982     1.0000 0.51353  0.03555  0.28515  Biso   1.000  O
  O983     1.0000 0.73647  0.03555  0.96485  Biso   1.000  O
  O984     1.0000 0.73647  0.71445  0.78515  Biso   1.000  O
  O985     1.0000 0.48647  0.21485  0.46445  Biso   1.000  O
  O986     1.0000 0.26353  0.71485  0.78555  Biso   1.000  O
  O987     1.0000 0.26353  0.53515  0.46445  Biso   1.000  O
  O988     1.0000 0.48647  0.03515  0.78555  Biso   1.000  O
  O989     1.0000 0.78515  0.51353  0.53555  Biso   1.000  O
  O990     1.0000 0.78515  0.73647  0.71445  Biso   1.000  O
  O991     1.0000 0.96485  0.01353  0.71445  Biso   1.000  O
  O992     1.0000 0.46485  0.23647  0.03555  Biso   1.000  O
  O993     1.0000 0.42212  0.68846  0.96872  Biso   1.000  O
  O994     1.0000 0.42212  0.56154  0.28128  Biso   1.000  O
  O995     1.0000 0.32788  0.56154  0.46872  Biso   1.000  O
  O996     1.0000 0.32788  0.68846  0.78128  Biso   1.000  O
  O997     1.0000 0.31154  0.67212  0.21872  Biso   1.000  O
  O998     1.0000 0.43846  0.67212  0.53128  Biso   1.000  O
  O999     1.0000 0.43846  0.57788  0.71872  Biso   1.000  O
  O1000    1.0000 0.31154  0.57788  0.03128  Biso   1.000  O
  O1001    1.0000 0.68846  0.96872  0.42212  Biso   1.000  O
  O1002    1.0000 0.06154  0.28128  0.92212  Biso   1.000  O
  O1003    1.0000 0.68846  0.28128  0.82788  Biso   1.000  O
  O1004    1.0000 0.06154  0.96872  0.32788  Biso   1.000  O
  O1005    1.0000 0.03128  0.93846  0.67212  Biso   1.000  O
  O1006    1.0000 0.03128  0.31154  0.57788  Biso   1.000  O
  O1007    1.0000 0.71872  0.31154  0.17212  Biso   1.000  O
  O1008    1.0000 0.71872  0.93846  0.07788  Biso   1.000  O
  O1009    1.0000 0.96872  0.42212  0.68846  Biso   1.000  O
  O1010    1.0000 0.28128  0.92212  0.06154  Biso   1.000  O
  O1011    1.0000 0.28128  0.82788  0.68846  Biso   1.000  O
  O1012    1.0000 0.96872  0.32788  0.06154  Biso   1.000  O
  O1013    1.0000 0.57788  0.03128  0.31154  Biso   1.000  O
  O1014    1.0000 0.57788  0.71872  0.43846  Biso   1.000  O
  O1015    1.0000 0.67212  0.53128  0.43846  Biso   1.000  O
  O1016    1.0000 0.17212  0.21872  0.81154  Biso   1.000  O
  O1017    1.0000 0.42212  0.18846  0.46872  Biso   1.000  O
  O1018    1.0000 0.42212  0.06154  0.78128  Biso   1.000  O
  O1019    1.0000 0.32788  0.06154  0.96872  Biso   1.000  O
  O1020    1.0000 0.32788  0.18846  0.28128  Biso   1.000  O
  O1021    1.0000 0.31154  0.17212  0.71872  Biso   1.000  O
  O1022    1.0000 0.43846  0.17212  0.03128  Biso   1.000  O
  O1023    1.0000 0.43846  0.07788  0.21872  Biso   1.000  O
  O1024    1.0000 0.31154  0.07788  0.53128  Biso   1.000  O
  O1025    1.0000 0.68846  0.46872  0.92212  Biso   1.000  O
  O1026    1.0000 0.06154  0.78128  0.42212  Biso   1.000  O
  O1027    1.0000 0.68846  0.78128  0.32788  Biso   1.000  O
  O1028    1.0000 0.06154  0.46872  0.82788  Biso   1.000  O
  O1029    1.0000 0.03128  0.43846  0.17212  Biso   1.000  O
  O1030    1.0000 0.03128  0.81154  0.07788  Biso   1.000  O
  O1031    1.0000 0.71872  0.81154  0.67212  Biso   1.000  O
  O1032    1.0000 0.71872  0.43846  0.57788  Biso   1.000  O
  O1033    1.0000 0.96872  0.92212  0.18846  Biso   1.000  O
  O1034    1.0000 0.28128  0.42212  0.56154  Biso   1.000  O
  O1035    1.0000 0.28128  0.32788  0.18846  Biso   1.000  O
  O1036    1.0000 0.96872  0.82788  0.56154  Biso   1.000  O
  O1037    1.0000 0.57788  0.53128  0.81154  Biso   1.000  O
  O1038    1.0000 0.57788  0.21872  0.93846  Biso   1.000  O
  O1039    1.0000 0.67212  0.03128  0.93846  Biso   1.000  O
  O1040    1.0000 0.17212  0.71872  0.31154  Biso   1.000  O
  O1041    1.0000 0.92212  0.68846  0.46872  Biso   1.000  O
  O1042    1.0000 0.92212  0.56154  0.78128  Biso   1.000  O
  O1043    1.0000 0.82788  0.56154  0.96872  Biso   1.000  O
  O1044    1.0000 0.82788  0.68846  0.28128  Biso   1.000  O
  O1045    1.0000 0.81154  0.67212  0.71872  Biso   1.000  O
  O1046    1.0000 0.93846  0.67212  0.03128  Biso   1.000  O
  O1047    1.0000 0.93846  0.57788  0.21872  Biso   1.000  O
  O1048    1.0000 0.81154  0.57788  0.53128  Biso   1.000  O
  O1049    1.0000 0.18846  0.96872  0.92212  Biso   1.000  O
  O1050    1.0000 0.56154  0.28128  0.42212  Biso   1.000  O
  O1051    1.0000 0.18846  0.28128  0.32788  Biso   1.000  O
  O1052    1.0000 0.56154  0.96872  0.82788  Biso   1.000  O
  O1053    1.0000 0.53128  0.93846  0.17212  Biso   1.000  O
  O1054    1.0000 0.53128  0.31154  0.07788  Biso   1.000  O
  O1055    1.0000 0.21872  0.31154  0.67212  Biso   1.000  O
  O1056    1.0000 0.21872  0.93846  0.57788  Biso   1.000  O
  O1057    1.0000 0.46872  0.42212  0.18846  Biso   1.000  O
  O1058    1.0000 0.78128  0.92212  0.56154  Biso   1.000  O
  O1059    1.0000 0.78128  0.82788  0.18846  Biso   1.000  O
  O1060    1.0000 0.46872  0.32788  0.56154  Biso   1.000  O
  O1061    1.0000 0.07788  0.03128  0.81154  Biso   1.000  O
  O1062    1.0000 0.07788  0.71872  0.93846  Biso   1.000  O
  O1063    1.0000 0.17212  0.53128  0.93846  Biso   1.000  O
  O1064    1.0000 0.67212  0.21872  0.31154  Biso   1.000  O
  O1065    1.0000 0.92212  0.18846  0.96872  Biso   1.000  O
  O1066    1.0000 0.92212  0.06154  0.28128  Biso   1.000  O
  O1067    1.0000 0.82788  0.06154  0.46872  Biso   1.000  O
  O1068    1.0000 0.82788  0.18846  0.78128  Biso   1.000  O
  O1069    1.0000 0.81154  0.17212  0.21872  Biso   1.000  O
  O1070    1.0000 0.93846  0.17212  0.53128  Biso   1.000  O
  O1071    1.0000 0.93846  0.07788  0.71872  Biso   1.000  O
  O1072    1.0000 0.81154  0.07788  0.03128  Biso   1.000  O
  O1073    1.0000 0.18846  0.46872  0.42212  Biso   1.000  O
  O1074    1.0000 0.56154  0.78128  0.92212  Biso   1.000  O
  O1075    1.0000 0.18846  0.78128  0.82788  Biso   1.000  O
  O1076    1.0000 0.56154  0.46872  0.32788  Biso   1.000  O
  O1077    1.0000 0.53128  0.43846  0.67212  Biso   1.000  O
  O1078    1.0000 0.53128  0.81154  0.57788  Biso   1.000  O
  O1079    1.0000 0.21872  0.81154  0.17212  Biso   1.000  O
  O1080    1.0000 0.21872  0.43846  0.07788  Biso   1.000  O
  O1081    1.0000 0.46872  0.92212  0.68846  Biso   1.000  O
  O1082    1.0000 0.78128  0.42212  0.06154  Biso   1.000  O
  O1083    1.0000 0.78128  0.32788  0.68846  Biso   1.000  O
  O1084    1.0000 0.46872  0.82788  0.06154  Biso   1.000  O
  O1085    1.0000 0.07788  0.53128  0.31154  Biso   1.000  O
  O1086    1.0000 0.07788  0.21872  0.43846  Biso   1.000  O
  O1087    1.0000 0.17212  0.03128  0.43846  Biso   1.000  O
  O1088    1.0000 0.67212  0.71872  0.81154  Biso   1.000  O
  O1089    1.0000 0.57788  0.31154  0.03128  Biso   1.000  O
  O1090    1.0000 0.57788  0.43846  0.71872  Biso   1.000  O
  O1091    1.0000 0.67212  0.43846  0.53128  Biso   1.000  O
  O1092    1.0000 0.67212  0.31154  0.21872  Biso   1.000  O
  O1093    1.0000 0.68846  0.32788  0.78128  Biso   1.000  O
  O1094    1.0000 0.56154  0.32788  0.46872  Biso   1.000  O
  O1095    1.0000 0.56154  0.42212  0.28128  Biso   1.000  O
  O1096    1.0000 0.68846  0.42212  0.96872  Biso   1.000  O
  O1097    1.0000 0.31154  0.03128  0.57788  Biso   1.000  O
  O1098    1.0000 0.93846  0.71872  0.07788  Biso   1.000  O
  O1099    1.0000 0.31154  0.71872  0.17212  Biso   1.000  O
  O1100    1.0000 0.93846  0.03128  0.67212  Biso   1.000  O
  O1101    1.0000 0.96872  0.06154  0.32788  Biso   1.000  O
  O1102    1.0000 0.96872  0.68846  0.42212  Biso   1.000  O
  O1103    1.0000 0.28128  0.68846  0.82788  Biso   1.000  O
  O1104    1.0000 0.28128  0.06154  0.92212  Biso   1.000  O
  O1105    1.0000 0.03128  0.57788  0.31154  Biso   1.000  O
  O1106    1.0000 0.71872  0.07788  0.93846  Biso   1.000  O
  O1107    1.0000 0.71872  0.17212  0.31154  Biso   1.000  O
  O1108    1.0000 0.03128  0.67212  0.93846  Biso   1.000  O
  O1109    1.0000 0.42212  0.96872  0.68846  Biso   1.000  O
  O1110    1.0000 0.42212  0.28128  0.56154  Biso   1.000  O
  O1111    1.0000 0.32788  0.46872  0.56154  Biso   1.000  O
  O1112    1.0000 0.82788  0.78128  0.18846  Biso   1.000  O
  O1113    1.0000 0.57788  0.81154  0.53128  Biso   1.000  O
  O1114    1.0000 0.57788  0.93846  0.21872  Biso   1.000  O
  O1115    1.0000 0.67212  0.93846  0.03128  Biso   1.000  O
  O1116    1.0000 0.67212  0.81154  0.71872  Biso   1.000  O
  O1117    1.0000 0.68846  0.82788  0.28128  Biso   1.000  O
  O1118    1.0000 0.56154  0.82788  0.96872  Biso   1.000  O
  O1119    1.0000 0.56154  0.92212  0.78128  Biso   1.000  O
  O1120    1.0000 0.68846  0.92212  0.46872  Biso   1.000  O
  O1121    1.0000 0.31154  0.53128  0.07788  Biso   1.000  O
  O1122    1.0000 0.93846  0.21872  0.57788  Biso   1.000  O
  O1123    1.0000 0.31154  0.21872  0.67212  Biso   1.000  O
  O1124    1.0000 0.93846  0.53128  0.17212  Biso   1.000  O
  O1125    1.0000 0.96872  0.56154  0.82788  Biso   1.000  O
  O1126    1.0000 0.96872  0.18846  0.92212  Biso   1.000  O
  O1127    1.0000 0.28128  0.18846  0.32788  Biso   1.000  O
  O1128    1.0000 0.28128  0.56154  0.42212  Biso   1.000  O
  O1129    1.0000 0.03128  0.07788  0.81154  Biso   1.000  O
  O1130    1.0000 0.71872  0.57788  0.43846  Biso   1.000  O
  O1131    1.0000 0.71872  0.67212  0.81154  Biso   1.000  O
  O1132    1.0000 0.03128  0.17212  0.43846  Biso   1.000  O
  O1133    1.0000 0.42212  0.46872  0.18846  Biso   1.000  O
  O1134    1.0000 0.42212  0.78128  0.06154  Biso   1.000  O
  O1135    1.0000 0.32788  0.96872  0.06154  Biso   1.000  O
  O1136    1.0000 0.82788  0.28128  0.68846  Biso   1.000  O
  O1137    1.0000 0.07788  0.31154  0.53128  Biso   1.000  O
  O1138    1.0000 0.07788  0.43846  0.21872  Biso   1.000  O
  O1139    1.0000 0.17212  0.43846  0.03128  Biso   1.000  O
  O1140    1.0000 0.17212  0.31154  0.71872  Biso   1.000  O
  O1141    1.0000 0.18846  0.32788  0.28128  Biso   1.000  O
  O1142    1.0000 0.06154  0.32788  0.96872  Biso   1.000  O
  O1143    1.0000 0.06154  0.42212  0.78128  Biso   1.000  O
  O1144    1.0000 0.18846  0.42212  0.46872  Biso   1.000  O
  O1145    1.0000 0.81154  0.03128  0.07788  Biso   1.000  O
  O1146    1.0000 0.43846  0.71872  0.57788  Biso   1.000  O
  O1147    1.0000 0.81154  0.71872  0.67212  Biso   1.000  O
  O1148    1.0000 0.43846  0.03128  0.17212  Biso   1.000  O
  O1149    1.0000 0.46872  0.06154  0.82788  Biso   1.000  O
  O1150    1.0000 0.46872  0.68846  0.92212  Biso   1.000  O
  O1151    1.0000 0.78128  0.68846  0.32788  Biso   1.000  O
  O1152    1.0000 0.78128  0.06154  0.42212  Biso   1.000  O
  O1153    1.0000 0.53128  0.57788  0.81154  Biso   1.000  O
  O1154    1.0000 0.21872  0.07788  0.43846  Biso   1.000  O
  O1155    1.0000 0.21872  0.17212  0.81154  Biso   1.000  O
  O1156    1.0000 0.53128  0.67212  0.43846  Biso   1.000  O
  O1157    1.0000 0.92212  0.96872  0.18846  Biso   1.000  O
  O1158    1.0000 0.92212  0.28128  0.06154  Biso   1.000  O
  O1159    1.0000 0.82788  0.46872  0.06154  Biso   1.000  O
  O1160    1.0000 0.32788  0.78128  0.68846  Biso   1.000  O
  O1161    1.0000 0.07788  0.81154  0.03128  Biso   1.000  O
  O1162    1.0000 0.07788  0.93846  0.71872  Biso   1.000  O
  O1163    1.0000 0.17212  0.93846  0.53128  Biso   1.000  O
  O1164    1.0000 0.17212  0.81154  0.21872  Biso   1.000  O
  O1165    1.0000 0.18846  0.82788  0.78128  Biso   1.000  O
  O1166    1.0000 0.06154  0.82788  0.46872  Biso   1.000  O
  O1167    1.0000 0.06154  0.92212  0.28128  Biso   1.000  O
  O1168    1.0000 0.18846  0.92212  0.96872  Biso   1.000  O
  O1169    1.0000 0.81154  0.53128  0.57788  Biso   1.000  O
  O1170    1.0000 0.43846  0.21872  0.07788  Biso   1.000  O
  O1171    1.0000 0.81154  0.21872  0.17212  Biso   1.000  O
  O1172    1.0000 0.43846  0.53128  0.67212  Biso   1.000  O
  O1173    1.0000 0.46872  0.56154  0.32788  Biso   1.000  O
  O1174    1.0000 0.46872  0.18846  0.42212  Biso   1.000  O
  O1175    1.0000 0.78128  0.18846  0.82788  Biso   1.000  O
  O1176    1.0000 0.78128  0.56154  0.92212  Biso   1.000  O
  O1177    1.0000 0.53128  0.07788  0.31154  Biso   1.000  O
  O1178    1.0000 0.21872  0.57788  0.93846  Biso   1.000  O
  O1179    1.0000 0.21872  0.67212  0.31154  Biso   1.000  O
  O1180    1.0000 0.53128  0.17212  0.93846  Biso   1.000  O
  O1181    1.0000 0.92212  0.46872  0.68846  Biso   1.000  O
  O1182    1.0000 0.92212  0.78128  0.56154  Biso   1.000  O
  O1183    1.0000 0.82788  0.96872  0.56154  Biso   1.000  O
  O1184    1.0000 0.32788  0.28128  0.18846  Biso   1.000  O
  O1185    1.0000 0.32214  0.54402  0.02230  Biso   1.000  O
  O1186    1.0000 0.32214  0.70598  0.22770  Biso   1.000  O
  O1187    1.0000 0.42786  0.70598  0.52230  Biso   1.000  O
  O1188    1.0000 0.42786  0.54402  0.72770  Biso   1.000  O
  O1189    1.0000 0.45598  0.57214  0.27230  Biso   1.000  O
  O1190    1.0000 0.29402  0.57214  0.47770  Biso   1.000  O
  O1191    1.0000 0.29402  0.67786  0.77230  Biso   1.000  O
  O1192    1.0000 0.45598  0.67786  0.97770  Biso   1.000  O
  O1193    1.0000 0.54402  0.02230  0.32214  Biso   1.000  O
  O1194    1.0000 0.20598  0.22770  0.82214  Biso   1.000  O
  O1195    1.0000 0.54402  0.22770  0.92786  Biso   1.000  O
  O1196    1.0000 0.20598  0.02230  0.42786  Biso   1.000  O
  O1197    1.0000 0.97770  0.79402  0.57214  Biso   1.000  O
  O1198    1.0000 0.97770  0.45598  0.67786  Biso   1.000  O
  O1199    1.0000 0.77230  0.45598  0.07214  Biso   1.000  O
  O1200    1.0000 0.77230  0.79402  0.17786  Biso   1.000  O
  O1201    1.0000 0.02230  0.32214  0.54402  Biso   1.000  O
  O1202    1.0000 0.22770  0.82214  0.20598  Biso   1.000  O
  O1203    1.0000 0.22770  0.92786  0.54402  Biso   1.000  O
  O1204    1.0000 0.02230  0.42786  0.20598  Biso   1.000  O
  O1205    1.0000 0.67786  0.97770  0.45598  Biso   1.000  O
  O1206    1.0000 0.67786  0.77230  0.29402  Biso   1.000  O
  O1207    1.0000 0.57214  0.47770  0.29402  Biso   1.000  O
  O1208    1.0000 0.07214  0.27230  0.95598  Biso   1.000  O
  O1209    1.0000 0.32214  0.04402  0.52230  Biso   1.000  O
  O1210    1.0000 0.32214  0.20598  0.72770  Biso   1.000  O
  O1211    1.0000 0.42786  0.20598  0.02230  Biso   1.000  O
  O1212    1.0000 0.42786  0.04402  0.22770  Biso   1.000  O
  O1213    1.0000 0.45598  0.07214  0.77230  Biso   1.000  O
  O1214    1.0000 0.29402  0.07214  0.97770  Biso   1.000  O
  O1215    1.0000 0.29402  0.17786  0.27230  Biso   1.000  O
  O1216    1.0000 0.45598  0.17786  0.47770  Biso   1.000  O
  O1217    1.0000 0.54402  0.52230  0.82214  Biso   1.000  O
  O1218    1.0000 0.20598  0.72770  0.32214  Biso   1.000  O
  O1219    1.0000 0.54402  0.72770  0.42786  Biso   1.000  O
  O1220    1.0000 0.20598  0.52230  0.92786  Biso   1.000  O
  O1221    1.0000 0.97770  0.29402  0.07214  Biso   1.000  O
  O1222    1.0000 0.97770  0.95598  0.17786  Biso   1.000  O
  O1223    1.0000 0.77230  0.95598  0.57214  Biso   1.000  O
  O1224    1.0000 0.77230  0.29402  0.67786  Biso   1.000  O
  O1225    1.0000 0.02230  0.82214  0.04402  Biso   1.000  O
  O1226    1.0000 0.22770  0.32214  0.70598  Biso   1.000  O
  O1227    1.0000 0.22770  0.42786  0.04402  Biso   1.000  O
  O1228    1.0000 0.02230  0.92786  0.70598  Biso   1.000  O
  O1229    1.0000 0.67786  0.47770  0.95598  Biso   1.000  O
  O1230    1.0000 0.67786  0.27230  0.79402  Biso   1.000  O
  O1231    1.0000 0.57214  0.97770  0.79402  Biso   1.000  O
  O1232    1.0000 0.07214  0.77230  0.45598  Biso   1.000  O
  O1233    1.0000 0.82214  0.54402  0.52230  Biso   1.000  O
  O1234    1.0000 0.82214  0.70598  0.72770  Biso   1.000  O
  O1235    1.0000 0.92786  0.70598  0.02230  Biso   1.000  O
  O1236    1.0000 0.92786  0.54402  0.22770  Biso   1.000  O
  O1237    1.0000 0.95598  0.57214  0.77230  Biso   1.000  O
  O1238    1.0000 0.79402  0.57214  0.97770  Biso   1.000  O
  O1239    1.0000 0.79402  0.67786  0.27230  Biso   1.000  O
  O1240    1.0000 0.95598  0.67786  0.47770  Biso   1.000  O
  O1241    1.0000 0.04402  0.02230  0.82214  Biso   1.000  O
  O1242    1.0000 0.70598  0.22770  0.32214  Biso   1.000  O
  O1243    1.0000 0.04402  0.22770  0.42786  Biso   1.000  O
  O1244    1.0000 0.70598  0.02230  0.92786  Biso   1.000  O
  O1245    1.0000 0.47770  0.79402  0.07214  Biso   1.000  O
  O1246    1.0000 0.47770  0.45598  0.17786  Biso   1.000  O
  O1247    1.0000 0.27230  0.45598  0.57214  Biso   1.000  O
  O1248    1.0000 0.27230  0.79402  0.67786  Biso   1.000  O
  O1249    1.0000 0.52230  0.32214  0.04402  Biso   1.000  O
  O1250    1.0000 0.72770  0.82214  0.70598  Biso   1.000  O
  O1251    1.0000 0.72770  0.92786  0.04402  Biso   1.000  O
  O1252    1.0000 0.52230  0.42786  0.70598  Biso   1.000  O
  O1253    1.0000 0.17786  0.97770  0.95598  Biso   1.000  O
  O1254    1.0000 0.17786  0.77230  0.79402  Biso   1.000  O
  O1255    1.0000 0.07214  0.47770  0.79402  Biso   1.000  O
  O1256    1.0000 0.57214  0.27230  0.45598  Biso   1.000  O
  O1257    1.0000 0.82214  0.04402  0.02230  Biso   1.000  O
  O1258    1.0000 0.82214  0.20598  0.22770  Biso   1.000  O
  O1259    1.0000 0.92786  0.20598  0.52230  Biso   1.000  O
  O1260    1.0000 0.92786  0.04402  0.72770  Biso   1.000  O
  O1261    1.0000 0.95598  0.07214  0.27230  Biso   1.000  O
  O1262    1.0000 0.79402  0.07214  0.47770  Biso   1.000  O
  O1263    1.0000 0.79402  0.17786  0.77230  Biso   1.000  O
  O1264    1.0000 0.95598  0.17786  0.97770  Biso   1.000  O
  O1265    1.0000 0.04402  0.52230  0.32214  Biso   1.000  O
  O1266    1.0000 0.70598  0.72770  0.82214  Biso   1.000  O
  O1267    1.0000 0.04402  0.72770  0.92786  Biso   1.000  O
  O1268    1.0000 0.70598  0.52230  0.42786  Biso   1.000  O
  O1269    1.0000 0.47770  0.29402  0.57214  Biso   1.000  O
  O1270    1.0000 0.47770  0.95598  0.67786  Biso   1.000  O
  O1271    1.0000 0.27230  0.95598  0.07214  Biso   1.000  O
  O1272    1.0000 0.27230  0.29402  0.17786  Biso   1.000  O
  O1273    1.0000 0.52230  0.82214  0.54402  Biso   1.000  O
  O1274    1.0000 0.72770  0.32214  0.20598  Biso   1.000  O
  O1275    1.0000 0.72770  0.42786  0.54402  Biso   1.000  O
  O1276    1.0000 0.52230  0.92786  0.20598  Biso   1.000  O
  O1277    1.0000 0.17786  0.47770  0.45598  Biso   1.000  O
  O1278    1.0000 0.17786  0.27230  0.29402  Biso   1.000  O
  O1279    1.0000 0.07214  0.97770  0.29402  Biso   1.000  O
  O1280    1.0000 0.57214  0.77230  0.95598  Biso   1.000  O
  O1281    1.0000 0.67786  0.45598  0.97770  Biso   1.000  O
  O1282    1.0000 0.67786  0.29402  0.77230  Biso   1.000  O
  O1283    1.0000 0.57214  0.29402  0.47770  Biso   1.000  O
  O1284    1.0000 0.57214  0.45598  0.27230  Biso   1.000  O
  O1285    1.0000 0.54402  0.42786  0.72770  Biso   1.000  O
  O1286    1.0000 0.70598  0.42786  0.52230  Biso   1.000  O
  O1287    1.0000 0.70598  0.32214  0.22770  Biso   1.000  O
  O1288    1.0000 0.54402  0.32214  0.02230  Biso   1.000  O
  O1289    1.0000 0.45598  0.97770  0.67786  Biso   1.000  O
  O1290    1.0000 0.79402  0.77230  0.17786  Biso   1.000  O
  O1291    1.0000 0.45598  0.77230  0.07214  Biso   1.000  O
  O1292    1.0000 0.79402  0.97770  0.57214  Biso   1.000  O
  O1293    1.0000 0.02230  0.20598  0.42786  Biso   1.000  O
  O1294    1.0000 0.02230  0.54402  0.32214  Biso   1.000  O
  O1295    1.0000 0.22770  0.54402  0.92786  Biso   1.000  O
  O1296    1.0000 0.22770  0.20598  0.82214  Biso   1.000  O
  O1297    1.0000 0.97770  0.67786  0.45598  Biso   1.000  O
  O1298    1.0000 0.77230  0.17786  0.79402  Biso   1.000  O
  O1299    1.0000 0.77230  0.07214  0.45598  Biso   1.000  O
  O1300    1.0000 0.97770  0.57214  0.79402  Biso   1.000  O
  O1301    1.0000 0.32214  0.02230  0.54402  Biso   1.000  O
  O1302    1.0000 0.32214  0.22770  0.70598  Biso   1.000  O
  O1303    1.0000 0.42786  0.52230  0.70598  Biso   1.000  O
  O1304    1.0000 0.92786  0.72770  0.04402  Biso   1.000  O
  O1305    1.0000 0.67786  0.95598  0.47770  Biso   1.000  O
  O1306    1.0000 0.67786  0.79402  0.27230  Biso   1.000  O
  O1307    1.0000 0.57214  0.79402  0.97770  Biso   1.000  O
  O1308    1.0000 0.57214  0.95598  0.77230  Biso   1.000  O
  O1309    1.0000 0.54402  0.92786  0.22770  Biso   1.000  O
  O1310    1.0000 0.70598  0.92786  0.02230  Biso   1.000  O
  O1311    1.0000 0.70598  0.82214  0.72770  Biso   1.000  O
  O1312    1.0000 0.54402  0.82214  0.52230  Biso   1.000  O
  O1313    1.0000 0.45598  0.47770  0.17786  Biso   1.000  O
  O1314    1.0000 0.79402  0.27230  0.67786  Biso   1.000  O
  O1315    1.0000 0.45598  0.27230  0.57214  Biso   1.000  O
  O1316    1.0000 0.79402  0.47770  0.07214  Biso   1.000  O
  O1317    1.0000 0.02230  0.70598  0.92786  Biso   1.000  O
  O1318    1.0000 0.02230  0.04402  0.82214  Biso   1.000  O
  O1319    1.0000 0.22770  0.04402  0.42786  Biso   1.000  O
  O1320    1.0000 0.22770  0.70598  0.32214  Biso   1.000  O
  O1321    1.0000 0.97770  0.17786  0.95598  Biso   1.000  O
  O1322    1.0000 0.77230  0.67786  0.29402  Biso   1.000  O
  O1323    1.0000 0.77230  0.57214  0.95598  Biso   1.000  O
  O1324    1.0000 0.97770  0.07214  0.29402  Biso   1.000  O
  O1325    1.0000 0.32214  0.52230  0.04402  Biso   1.000  O
  O1326    1.0000 0.32214  0.72770  0.20598  Biso   1.000  O
  O1327    1.0000 0.42786  0.02230  0.20598  Biso   1.000  O
  O1328    1.0000 0.92786  0.22770  0.54402  Biso   1.000  O
  O1329    1.0000 0.17786  0.45598  0.47770  Biso   1.000  O
  O1330    1.0000 0.17786  0.29402  0.27230  Biso   1.000  O
  O1331    1.0000 0.07214  0.29402  0.97770  Biso   1.000  O
  O1332    1.0000 0.07214  0.45598  0.77230  Biso   1.000  O
  O1333    1.0000 0.04402  0.42786  0.22770  Biso   1.000  O
  O1334    1.0000 0.20598  0.42786  0.02230  Biso   1.000  O
  O1335    1.0000 0.20598  0.32214  0.72770  Biso   1.000  O
  O1336    1.0000 0.04402  0.32214  0.52230  Biso   1.000  O
  O1337    1.0000 0.95598  0.97770  0.17786  Biso   1.000  O
  O1338    1.0000 0.29402  0.77230  0.67786  Biso   1.000  O
  O1339    1.0000 0.95598  0.77230  0.57214  Biso   1.000  O
  O1340    1.0000 0.29402  0.97770  0.07214  Biso   1.000  O
  O1341    1.0000 0.52230  0.20598  0.92786  Biso   1.000  O
  O1342    1.0000 0.52230  0.54402  0.82214  Biso   1.000  O
  O1343    1.0000 0.72770  0.54402  0.42786  Biso   1.000  O
  O1344    1.0000 0.72770  0.20598  0.32214  Biso   1.000  O
  O1345    1.0000 0.47770  0.67786  0.95598  Biso   1.000  O
  O1346    1.0000 0.27230  0.17786  0.29402  Biso   1.000  O
  O1347    1.0000 0.27230  0.07214  0.95598  Biso   1.000  O
  O1348    1.0000 0.47770  0.57214  0.29402  Biso   1.000  O
  O1349    1.0000 0.82214  0.02230  0.04402  Biso   1.000  O
  O1350    1.0000 0.82214  0.22770  0.20598  Biso   1.000  O
  O1351    1.0000 0.92786  0.52230  0.20598  Biso   1.000  O
  O1352    1.0000 0.42786  0.72770  0.54402  Biso   1.000  O
  O1353    1.0000 0.17786  0.95598  0.97770  Biso   1.000  O
  O1354    1.0000 0.17786  0.79402  0.77230  Biso   1.000  O
  O1355    1.0000 0.07214  0.79402  0.47770  Biso   1.000  O
  O1356    1.0000 0.07214  0.95598  0.27230  Biso   1.000  O
  O1357    1.0000 0.04402  0.92786  0.72770  Biso   1.000  O
  O1358    1.0000 0.20598  0.92786  0.52230  Biso   1.000  O
  O1359    1.0000 0.20598  0.82214  0.22770  Biso   1.000  O
  O1360    1.0000 0.04402  0.82214  0.02230  Biso   1.000  O
  O1361    1.0000 0.95598  0.47770  0.67786  Biso   1.000  O
  O1362    1.0000 0.29402  0.27230  0.17786  Biso   1.000  O
  O1363    1.0000 0.95598  0.27230  0.07214  Biso   1.000  O
  O1364    1.0000 0.29402  0.47770  0.57214  Biso   1.000  O
  O1365    1.0000 0.52230  0.70598  0.42786  Biso   1.000  O
  O1366    1.0000 0.52230  0.04402  0.32214  Biso   1.000  O
  O1367    1.0000 0.72770  0.04402  0.92786  Biso   1.000  O
  O1368    1.0000 0.72770  0.70598  0.82214  Biso   1.000  O
  O1369    1.0000 0.47770  0.17786  0.45598  Biso   1.000  O
  O1370    1.0000 0.27230  0.67786  0.79402  Biso   1.000  O
  O1371    1.0000 0.27230  0.57214  0.45598  Biso   1.000  O
  O1372    1.0000 0.47770  0.07214  0.79402  Biso   1.000  O
  O1373    1.0000 0.82214  0.52230  0.54402  Biso   1.000  O
  O1374    1.0000 0.82214  0.72770  0.70598  Biso   1.000  O
  O1375    1.0000 0.92786  0.02230  0.70598  Biso   1.000  O
  O1376    1.0000 0.42786  0.22770  0.04402  Biso   1.000  O
  O1377    1.0000 0.27596  0.56929  0.02189  Biso   1.000  O
  O1378    1.0000 0.27596  0.68071  0.22811  Biso   1.000  O
  O1379    1.0000 0.47404  0.68071  0.52189  Biso   1.000  O
  O1380    1.0000 0.47404  0.56929  0.72811  Biso   1.000  O
  O1381    1.0000 0.43071  0.52596  0.27189  Biso   1.000  O
  O1382    1.0000 0.31929  0.52596  0.47811  Biso   1.000  O
  O1383    1.0000 0.31929  0.72404  0.77189  Biso   1.000  O
  O1384    1.0000 0.43071  0.72404  0.97811  Biso   1.000  O
  O1385    1.0000 0.56929  0.02189  0.27596  Biso   1.000  O
  O1386    1.0000 0.18071  0.22811  0.77596  Biso   1.000  O
  O1387    1.0000 0.56929  0.22811  0.97404  Biso   1.000  O
  O1388    1.0000 0.18071  0.02189  0.47404  Biso   1.000  O
  O1389    1.0000 0.97811  0.81929  0.52596  Biso   1.000  O
  O1390    1.0000 0.97811  0.43071  0.72404  Biso   1.000  O
  O1391    1.0000 0.77189  0.43071  0.02596  Biso   1.000  O
  O1392    1.0000 0.77189  0.81929  0.22404  Biso   1.000  O
  O1393    1.0000 0.02189  0.27596  0.56929  Biso   1.000  O
  O1394    1.0000 0.22811  0.77596  0.18071  Biso   1.000  O
  O1395    1.0000 0.22811  0.97404  0.56929  Biso   1.000  O
  O1396    1.0000 0.02189  0.47404  0.18071  Biso   1.000  O
  O1397    1.0000 0.72404  0.97811  0.43071  Biso   1.000  O
  O1398    1.0000 0.72404  0.77189  0.31929  Biso   1.000  O
  O1399    1.0000 0.52596  0.47811  0.31929  Biso   1.000  O
  O1400    1.0000 0.02596  0.27189  0.93071  Biso   1.000  O
  O1401    1.0000 0.27596  0.06929  0.52189  Biso   1.000  O
  O1402    1.0000 0.27596  0.18071  0.72811  Biso   1.000  O
  O1403    1.0000 0.47404  0.18071  0.02189  Biso   1.000  O
  O1404    1.0000 0.47404  0.06929  0.22811  Biso   1.000  O
  O1405    1.0000 0.43071  0.02596  0.77189  Biso   1.000  O
  O1406    1.0000 0.31929  0.02596  0.97811  Biso   1.000  O
  O1407    1.0000 0.31929  0.22404  0.27189  Biso   1.000  O
  O1408    1.0000 0.43071  0.22404  0.47811  Biso   1.000  O
  O1409    1.0000 0.56929  0.52189  0.77596  Biso   1.000  O
  O1410    1.0000 0.18071  0.72811  0.27596  Biso   1.000  O
  O1411    1.0000 0.56929  0.72811  0.47404  Biso   1.000  O
  O1412    1.0000 0.18071  0.52189  0.97404  Biso   1.000  O
  O1413    1.0000 0.97811  0.31929  0.02596  Biso   1.000  O
  O1414    1.0000 0.97811  0.93071  0.22404  Biso   1.000  O
  O1415    1.0000 0.77189  0.93071  0.52596  Biso   1.000  O
  O1416    1.0000 0.77189  0.31929  0.72404  Biso   1.000  O
  O1417    1.0000 0.02189  0.77596  0.06929  Biso   1.000  O
  O1418    1.0000 0.22811  0.27596  0.68071  Biso   1.000  O
  O1419    1.0000 0.22811  0.47404  0.06929  Biso   1.000  O
  O1420    1.0000 0.02189  0.97404  0.68071  Biso   1.000  O
  O1421    1.0000 0.72404  0.47811  0.93071  Biso   1.000  O
  O1422    1.0000 0.72404  0.27189  0.81929  Biso   1.000  O
  O1423    1.0000 0.52596  0.97811  0.81929  Biso   1.000  O
  O1424    1.0000 0.02596  0.77189  0.43071  Biso   1.000  O
  O1425    1.0000 0.77596  0.56929  0.52189  Biso   1.000  O
  O1426    1.0000 0.77596  0.68071  0.72811  Biso   1.000  O
  O1427    1.0000 0.97404  0.68071  0.02189  Biso   1.000  O
  O1428    1.0000 0.97404  0.56929  0.22811  Biso   1.000  O
  O1429    1.0000 0.93071  0.52596  0.77189  Biso   1.000  O
  O1430    1.0000 0.81929  0.52596  0.97811  Biso   1.000  O
  O1431    1.0000 0.81929  0.72404  0.27189  Biso   1.000  O
  O1432    1.0000 0.93071  0.72404  0.47811  Biso   1.000  O
  O1433    1.0000 0.06929  0.02189  0.77596  Biso   1.000  O
  O1434    1.0000 0.68071  0.22811  0.27596  Biso   1.000  O
  O1435    1.0000 0.06929  0.22811  0.47404  Biso   1.000  O
  O1436    1.0000 0.68071  0.02189  0.97404  Biso   1.000  O
  O1437    1.0000 0.47811  0.81929  0.02596  Biso   1.000  O
  O1438    1.0000 0.47811  0.43071  0.22404  Biso   1.000  O
  O1439    1.0000 0.27189  0.43071  0.52596  Biso   1.000  O
  O1440    1.0000 0.27189  0.81929  0.72404  Biso   1.000  O
  O1441    1.0000 0.52189  0.27596  0.06929  Biso   1.000  O
  O1442    1.0000 0.72811  0.77596  0.68071  Biso   1.000  O
  O1443    1.0000 0.72811  0.97404  0.06929  Biso   1.000  O
  O1444    1.0000 0.52189  0.47404  0.68071  Biso   1.000  O
  O1445    1.0000 0.22404  0.97811  0.93071  Biso   1.000  O
  O1446    1.0000 0.22404  0.77189  0.81929  Biso   1.000  O
  O1447    1.0000 0.02596  0.47811  0.81929  Biso   1.000  O
  O1448    1.0000 0.52596  0.27189  0.43071  Biso   1.000  O
  O1449    1.0000 0.77596  0.06929  0.02189  Biso   1.000  O
  O1450    1.0000 0.77596  0.18071  0.22811  Biso   1.000  O
  O1451    1.0000 0.97404  0.18071  0.52189  Biso   1.000  O
  O1452    1.0000 0.97404  0.06929  0.72811  Biso   1.000  O
  O1453    1.0000 0.93071  0.02596  0.27189  Biso   1.000  O
  O1454    1.0000 0.81929  0.02596  0.47811  Biso   1.000  O
  O1455    1.0000 0.81929  0.22404  0.77189  Biso   1.000  O
  O1456    1.0000 0.93071  0.22404  0.97811  Biso   1.000  O
  O1457    1.0000 0.06929  0.52189  0.27596  Biso   1.000  O
  O1458    1.0000 0.68071  0.72811  0.77596  Biso   1.000  O
  O1459    1.0000 0.06929  0.72811  0.97404  Biso   1.000  O
  O1460    1.0000 0.68071  0.52189  0.47404  Biso   1.000  O
  O1461    1.0000 0.47811  0.31929  0.52596  Biso   1.000  O
  O1462    1.0000 0.47811  0.93071  0.72404  Biso   1.000  O
  O1463    1.0000 0.27189  0.93071  0.02596  Biso   1.000  O
  O1464    1.0000 0.27189  0.31929  0.22404  Biso   1.000  O
  O1465    1.0000 0.52189  0.77596  0.56929  Biso   1.000  O
  O1466    1.0000 0.72811  0.27596  0.18071  Biso   1.000  O
  O1467    1.0000 0.72811  0.47404  0.56929  Biso   1.000  O
  O1468    1.0000 0.52189  0.97404  0.18071  Biso   1.000  O
  O1469    1.0000 0.22404  0.47811  0.43071  Biso   1.000  O
  O1470    1.0000 0.22404  0.27189  0.31929  Biso   1.000  O
  O1471    1.0000 0.02596  0.97811  0.31929  Biso   1.000  O
  O1472    1.0000 0.52596  0.77189  0.93071  Biso   1.000  O
  O1473    1.0000 0.72404  0.43071  0.97811  Biso   1.000  O
  O1474    1.0000 0.72404  0.31929  0.77189  Biso   1.000  O
  O1475    1.0000 0.52596  0.31929  0.47811  Biso   1.000  O
  O1476    1.0000 0.52596  0.43071  0.27189  Biso   1.000  O
  O1477    1.0000 0.56929  0.47404  0.72811  Biso   1.000  O
  O1478    1.0000 0.68071  0.47404  0.52189  Biso   1.000  O
  O1479    1.0000 0.68071  0.27596  0.22811  Biso   1.000  O
  O1480    1.0000 0.56929  0.27596  0.02189  Biso   1.000  O
  O1481    1.0000 0.43071  0.97811  0.72404  Biso   1.000  O
  O1482    1.0000 0.81929  0.77189  0.22404  Biso   1.000  O
  O1483    1.0000 0.43071  0.77189  0.02596  Biso   1.000  O
  O1484    1.0000 0.81929  0.97811  0.52596  Biso   1.000  O
  O1485    1.0000 0.02189  0.18071  0.47404  Biso   1.000  O
  O1486    1.0000 0.02189  0.56929  0.27596  Biso   1.000  O
  O1487    1.0000 0.22811  0.56929  0.97404  Biso   1.000  O
  O1488    1.0000 0.22811  0.18071  0.77596  Biso   1.000  O
  O1489    1.0000 0.97811  0.72404  0.43071  Biso   1.000  O
  O1490    1.0000 0.77189  0.22404  0.81929  Biso   1.000  O
  O1491    1.0000 0.77189  0.02596  0.43071  Biso   1.000  O
  O1492    1.0000 0.97811  0.52596  0.81929  Biso   1.000  O
  O1493    1.0000 0.27596  0.02189  0.56929  Biso   1.000  O
  O1494    1.0000 0.27596  0.22811  0.68071  Biso   1.000  O
  O1495    1.0000 0.47404  0.52189  0.68071  Biso   1.000  O
  O1496    1.0000 0.97404  0.72811  0.06929  Biso   1.000  O
  O1497    1.0000 0.72404  0.93071  0.47811  Biso   1.000  O
  O1498    1.0000 0.72404  0.81929  0.27189  Biso   1.000  O
  O1499    1.0000 0.52596  0.81929  0.97811  Biso   1.000  O
  O1500    1.0000 0.52596  0.93071  0.77189  Biso   1.000  O
  O1501    1.0000 0.56929  0.97404  0.22811  Biso   1.000  O
  O1502    1.0000 0.68071  0.97404  0.02189  Biso   1.000  O
  O1503    1.0000 0.68071  0.77596  0.72811  Biso   1.000  O
  O1504    1.0000 0.56929  0.77596  0.52189  Biso   1.000  O
  O1505    1.0000 0.43071  0.47811  0.22404  Biso   1.000  O
  O1506    1.0000 0.81929  0.27189  0.72404  Biso   1.000  O
  O1507    1.0000 0.43071  0.27189  0.52596  Biso   1.000  O
  O1508    1.0000 0.81929  0.47811  0.02596  Biso   1.000  O
  O1509    1.0000 0.02189  0.68071  0.97404  Biso   1.000  O
  O1510    1.0000 0.02189  0.06929  0.77596  Biso   1.000  O
  O1511    1.0000 0.22811  0.06929  0.47404  Biso   1.000  O
  O1512    1.0000 0.22811  0.68071  0.27596  Biso   1.000  O
  O1513    1.0000 0.97811  0.22404  0.93071  Biso   1.000  O
  O1514    1.0000 0.77189  0.72404  0.31929  Biso   1.000  O
  O1515    1.0000 0.77189  0.52596  0.93071  Biso   1.000  O
  O1516    1.0000 0.97811  0.02596  0.31929  Biso   1.000  O
  O1517    1.0000 0.27596  0.52189  0.06929  Biso   1.000  O
  O1518    1.0000 0.27596  0.72811  0.18071  Biso   1.000  O
  O1519    1.0000 0.47404  0.02189  0.18071  Biso   1.000  O
  O1520    1.0000 0.97404  0.22811  0.56929  Biso   1.000  O
  O1521    1.0000 0.22404  0.43071  0.47811  Biso   1.000  O
  O1522    1.0000 0.22404  0.31929  0.27189  Biso   1.000  O
  O1523    1.0000 0.02596  0.31929  0.97811  Biso   1.000  O
  O1524    1.0000 0.02596  0.43071  0.77189  Biso   1.000  O
  O1525    1.0000 0.06929  0.47404  0.22811  Biso   1.000  O
  O1526    1.0000 0.18071  0.47404  0.02189  Biso   1.000  O
  O1527    1.0000 0.18071  0.27596  0.72811  Biso   1.000  O
  O1528    1.0000 0.06929  0.27596  0.52189  Biso   1.000  O
  O1529    1.0000 0.93071  0.97811  0.22404  Biso   1.000  O
  O1530    1.0000 0.31929  0.77189  0.72404  Biso   1.000  O
  O1531    1.0000 0.93071  0.77189  0.52596  Biso   1.000  O
  O1532    1.0000 0.31929  0.97811  0.02596  Biso   1.000  O
  O1533    1.0000 0.52189  0.18071  0.97404  Biso   1.000  O
  O1534    1.0000 0.52189  0.56929  0.77596  Biso   1.000  O
  O1535    1.0000 0.72811  0.56929  0.47404  Biso   1.000  O
  O1536    1.0000 0.72811  0.18071  0.27596  Biso   1.000  O
  O1537    1.0000 0.47811  0.72404  0.93071  Biso   1.000  O
  O1538    1.0000 0.27189  0.22404  0.31929  Biso   1.000  O
  O1539    1.0000 0.27189  0.02596  0.93071  Biso   1.000  O
  O1540    1.0000 0.47811  0.52596  0.31929  Biso   1.000  O
  O1541    1.0000 0.77596  0.02189  0.06929  Biso   1.000  O
  O1542    1.0000 0.77596  0.22811  0.18071  Biso   1.000  O
  O1543    1.0000 0.97404  0.52189  0.18071  Biso   1.000  O
  O1544    1.0000 0.47404  0.72811  0.56929  Biso   1.000  O
  O1545    1.0000 0.22404  0.93071  0.97811  Biso   1.000  O
  O1546    1.0000 0.22404  0.81929  0.77189  Biso   1.000  O
  O1547    1.0000 0.02596  0.81929  0.47811  Biso   1.000  O
  O1548    1.0000 0.02596  0.93071  0.27189  Biso   1.000  O
  O1549    1.0000 0.06929  0.97404  0.72811  Biso   1.000  O
  O1550    1.0000 0.18071  0.97404  0.52189  Biso   1.000  O
  O1551    1.0000 0.18071  0.77596  0.22811  Biso   1.000  O
  O1552    1.0000 0.06929  0.77596  0.02189  Biso   1.000  O
  O1553    1.0000 0.93071  0.47811  0.72404  Biso   1.000  O
  O1554    1.0000 0.31929  0.27189  0.22404  Biso   1.000  O
  O1555    1.0000 0.93071  0.27189  0.02596  Biso   1.000  O
  O1556    1.0000 0.31929  0.47811  0.52596  Biso   1.000  O
  O1557    1.0000 0.52189  0.68071  0.47404  Biso   1.000  O
  O1558    1.0000 0.52189  0.06929  0.27596  Biso   1.000  O
  O1559    1.0000 0.72811  0.06929  0.97404  Biso   1.000  O
  O1560    1.0000 0.72811  0.68071  0.77596  Biso   1.000  O
  O1561    1.0000 0.47811  0.22404  0.43071  Biso   1.000  O
  O1562    1.0000 0.27189  0.72404  0.81929  Biso   1.000  O
  O1563    1.0000 0.27189  0.52596  0.43071  Biso   1.000  O
  O1564    1.0000 0.47811  0.02596  0.81929  Biso   1.000  O
  O1565    1.0000 0.77596  0.52189  0.56929  Biso   1.000  O
  O1566    1.0000 0.77596  0.72811  0.68071  Biso   1.000  O
  O1567    1.0000 0.97404  0.02189  0.68071  Biso   1.000  O
  O1568    1.0000 0.47404  0.22811  0.06929  Biso   1.000  O
  O1569    1.0000 0.36047  0.58518  0.97441  Biso   1.000  O
  O1570    1.0000 0.36047  0.66482  0.27559  Biso   1.000  O
  O1571    1.0000 0.38953  0.66482  0.47441  Biso   1.000  O
  O1572    1.0000 0.38953  0.58518  0.77559  Biso   1.000  O
  O1573    1.0000 0.41482  0.61047  0.22441  Biso   1.000  O
  O1574    1.0000 0.33518  0.61047  0.52559  Biso   1.000  O
  O1575    1.0000 0.33518  0.63953  0.72441  Biso   1.000  O
  O1576    1.0000 0.41482  0.63953  0.02559  Biso   1.000  O
  O1577    1.0000 0.58518  0.97441  0.36047  Biso   1.000  O
  O1578    1.0000 0.16482  0.27559  0.86047  Biso   1.000  O
  O1579    1.0000 0.58518  0.27559  0.88953  Biso   1.000  O
  O1580    1.0000 0.16482  0.97441  0.38953  Biso   1.000  O
  O1581    1.0000 0.02559  0.83518  0.61047  Biso   1.000  O
  O1582    1.0000 0.02559  0.41482  0.63953  Biso   1.000  O
  O1583    1.0000 0.72441  0.41482  0.11047  Biso   1.000  O
  O1584    1.0000 0.72441  0.83518  0.13953  Biso   1.000  O
  O1585    1.0000 0.97441  0.36047  0.58518  Biso   1.000  O
  O1586    1.0000 0.27559  0.86047  0.16482  Biso   1.000  O
  O1587    1.0000 0.27559  0.88953  0.58518  Biso   1.000  O
  O1588    1.0000 0.97441  0.38953  0.16482  Biso   1.000  O
  O1589    1.0000 0.63953  0.02559  0.41482  Biso   1.000  O
  O1590    1.0000 0.63953  0.72441  0.33518  Biso   1.000  O
  O1591    1.0000 0.61047  0.52559  0.33518  Biso   1.000  O
  O1592    1.0000 0.11047  0.22441  0.91482  Biso   1.000  O
  O1593    1.0000 0.36047  0.08518  0.47441  Biso   1.000  O
  O1594    1.0000 0.36047  0.16482  0.77559  Biso   1.000  O
  O1595    1.0000 0.38953  0.16482  0.97441  Biso   1.000  O
  O1596    1.0000 0.38953  0.08518  0.27559  Biso   1.000  O
  O1597    1.0000 0.41482  0.11047  0.72441  Biso   1.000  O
  O1598    1.0000 0.33518  0.11047  0.02559  Biso   1.000  O
  O1599    1.0000 0.33518  0.13953  0.22441  Biso   1.000  O
  O1600    1.0000 0.41482  0.13953  0.52559  Biso   1.000  O
  O1601    1.0000 0.58518  0.47441  0.86047  Biso   1.000  O
  O1602    1.0000 0.16482  0.77559  0.36047  Biso   1.000  O
  O1603    1.0000 0.58518  0.77559  0.38953  Biso   1.000  O
  O1604    1.0000 0.16482  0.47441  0.88953  Biso   1.000  O
  O1605    1.0000 0.02559  0.33518  0.11047  Biso   1.000  O
  O1606    1.0000 0.02559  0.91482  0.13953  Biso   1.000  O
  O1607    1.0000 0.72441  0.91482  0.61047  Biso   1.000  O
  O1608    1.0000 0.72441  0.33518  0.63953  Biso   1.000  O
  O1609    1.0000 0.97441  0.86047  0.08518  Biso   1.000  O
  O1610    1.0000 0.27559  0.36047  0.66482  Biso   1.000  O
  O1611    1.0000 0.27559  0.38953  0.08518  Biso   1.000  O
  O1612    1.0000 0.97441  0.88953  0.66482  Biso   1.000  O
  O1613    1.0000 0.63953  0.52559  0.91482  Biso   1.000  O
  O1614    1.0000 0.63953  0.22441  0.83518  Biso   1.000  O
  O1615    1.0000 0.61047  0.02559  0.83518  Biso   1.000  O
  O1616    1.0000 0.11047  0.72441  0.41482  Biso   1.000  O
  O1617    1.0000 0.86047  0.58518  0.47441  Biso   1.000  O
  O1618    1.0000 0.86047  0.66482  0.77559  Biso   1.000  O
  O1619    1.0000 0.88953  0.66482  0.97441  Biso   1.000  O
  O1620    1.0000 0.88953  0.58518  0.27559  Biso   1.000  O
  O1621    1.0000 0.91482  0.61047  0.72441  Biso   1.000  O
  O1622    1.0000 0.83518  0.61047  0.02559  Biso   1.000  O
  O1623    1.0000 0.83518  0.63953  0.22441  Biso   1.000  O
  O1624    1.0000 0.91482  0.63953  0.52559  Biso   1.000  O
  O1625    1.0000 0.08518  0.97441  0.86047  Biso   1.000  O
  O1626    1.0000 0.66482  0.27559  0.36047  Biso   1.000  O
  O1627    1.0000 0.08518  0.27559  0.38953  Biso   1.000  O
  O1628    1.0000 0.66482  0.97441  0.88953  Biso   1.000  O
  O1629    1.0000 0.52559  0.83518  0.11047  Biso   1.000  O
  O1630    1.0000 0.52559  0.41482  0.13953  Biso   1.000  O
  O1631    1.0000 0.22441  0.41482  0.61047  Biso   1.000  O
  O1632    1.0000 0.22441  0.83518  0.63953  Biso   1.000  O
  O1633    1.0000 0.47441  0.36047  0.08518  Biso   1.000  O
  O1634    1.0000 0.77559  0.86047  0.66482  Biso   1.000  O
  O1635    1.0000 0.77559  0.88953  0.08518  Biso   1.000  O
  O1636    1.0000 0.47441  0.38953  0.66482  Biso   1.000  O
  O1637    1.0000 0.13953  0.02559  0.91482  Biso   1.000  O
  O1638    1.0000 0.13953  0.72441  0.83518  Biso   1.000  O
  O1639    1.0000 0.11047  0.52559  0.83518  Biso   1.000  O
  O1640    1.0000 0.61047  0.22441  0.41482  Biso   1.000  O
  O1641    1.0000 0.86047  0.08518  0.97441  Biso   1.000  O
  O1642    1.0000 0.86047  0.16482  0.27559  Biso   1.000  O
  O1643    1.0000 0.88953  0.16482  0.47441  Biso   1.000  O
  O1644    1.0000 0.88953  0.08518  0.77559  Biso   1.000  O
  O1645    1.0000 0.91482  0.11047  0.22441  Biso   1.000  O
  O1646    1.0000 0.83518  0.11047  0.52559  Biso   1.000  O
  O1647    1.0000 0.83518  0.13953  0.72441  Biso   1.000  O
  O1648    1.0000 0.91482  0.13953  0.02559  Biso   1.000  O
  O1649    1.0000 0.08518  0.47441  0.36047  Biso   1.000  O
  O1650    1.0000 0.66482  0.77559  0.86047  Biso   1.000  O
  O1651    1.0000 0.08518  0.77559  0.88953  Biso   1.000  O
  O1652    1.0000 0.66482  0.47441  0.38953  Biso   1.000  O
  O1653    1.0000 0.52559  0.33518  0.61047  Biso   1.000  O
  O1654    1.0000 0.52559  0.91482  0.63953  Biso   1.000  O
  O1655    1.0000 0.22441  0.91482  0.11047  Biso   1.000  O
  O1656    1.0000 0.22441  0.33518  0.13953  Biso   1.000  O
  O1657    1.0000 0.47441  0.86047  0.58518  Biso   1.000  O
  O1658    1.0000 0.77559  0.36047  0.16482  Biso   1.000  O
  O1659    1.0000 0.77559  0.38953  0.58518  Biso   1.000  O
  O1660    1.0000 0.47441  0.88953  0.16482  Biso   1.000  O
  O1661    1.0000 0.13953  0.52559  0.41482  Biso   1.000  O
  O1662    1.0000 0.13953  0.22441  0.33518  Biso   1.000  O
  O1663    1.0000 0.11047  0.02559  0.33518  Biso   1.000  O
  O1664    1.0000 0.61047  0.72441  0.91482  Biso   1.000  O
  O1665    1.0000 0.63953  0.41482  0.02559  Biso   1.000  O
  O1666    1.0000 0.63953  0.33518  0.72441  Biso   1.000  O
  O1667    1.0000 0.61047  0.33518  0.52559  Biso   1.000  O
  O1668    1.0000 0.61047  0.41482  0.22441  Biso   1.000  O
  O1669    1.0000 0.58518  0.38953  0.77559  Biso   1.000  O
  O1670    1.0000 0.66482  0.38953  0.47441  Biso   1.000  O
  O1671    1.0000 0.66482  0.36047  0.27559  Biso   1.000  O
  O1672    1.0000 0.58518  0.36047  0.97441  Biso   1.000  O
  O1673    1.0000 0.41482  0.02559  0.63953  Biso   1.000  O
  O1674    1.0000 0.83518  0.72441  0.13953  Biso   1.000  O
  O1675    1.0000 0.41482  0.72441  0.11047  Biso   1.000  O
  O1676    1.0000 0.83518  0.02559  0.61047  Biso   1.000  O
  O1677    1.0000 0.97441  0.16482  0.38953  Biso   1.000  O
  O1678    1.0000 0.97441  0.58518  0.36047  Biso   1.000  O
  O1679    1.0000 0.27559  0.58518  0.88953  Biso   1.000  O
  O1680    1.0000 0.27559  0.16482  0.86047  Biso   1.000  O
  O1681    1.0000 0.02559  0.63953  0.41482  Biso   1.000  O
  O1682    1.0000 0.72441  0.13953  0.83518  Biso   1.000  O
  O1683    1.0000 0.72441  0.11047  0.41482  Biso   1.000  O
  O1684    1.0000 0.02559  0.61047  0.83518  Biso   1.000  O
  O1685    1.0000 0.36047  0.97441  0.58518  Biso   1.000  O
  O1686    1.0000 0.36047  0.27559  0.66482  Biso   1.000  O
  O1687    1.0000 0.38953  0.47441  0.66482  Biso   1.000  O
  O1688    1.0000 0.88953  0.77559  0.08518  Biso   1.000  O
  O1689    1.0000 0.63953  0.91482  0.52559  Biso   1.000  O
  O1690    1.0000 0.63953  0.83518  0.22441  Biso   1.000  O
  O1691    1.0000 0.61047  0.83518  0.02559  Biso   1.000  O
  O1692    1.0000 0.61047  0.91482  0.72441  Biso   1.000  O
  O1693    1.0000 0.58518  0.88953  0.27559  Biso   1.000  O
  O1694    1.0000 0.66482  0.88953  0.97441  Biso   1.000  O
  O1695    1.0000 0.66482  0.86047  0.77559  Biso   1.000  O
  O1696    1.0000 0.58518  0.86047  0.47441  Biso   1.000  O
  O1697    1.0000 0.41482  0.52559  0.13953  Biso   1.000  O
  O1698    1.0000 0.83518  0.22441  0.63953  Biso   1.000  O
  O1699    1.0000 0.41482  0.22441  0.61047  Biso   1.000  O
  O1700    1.0000 0.83518  0.52559  0.11047  Biso   1.000  O
  O1701    1.0000 0.97441  0.66482  0.88953  Biso   1.000  O
  O1702    1.0000 0.97441  0.08518  0.86047  Biso   1.000  O
  O1703    1.0000 0.27559  0.08518  0.38953  Biso   1.000  O
  O1704    1.0000 0.27559  0.66482  0.36047  Biso   1.000  O
  O1705    1.0000 0.02559  0.13953  0.91482  Biso   1.000  O
  O1706    1.0000 0.72441  0.63953  0.33518  Biso   1.000  O
  O1707    1.0000 0.72441  0.61047  0.91482  Biso   1.000  O
  O1708    1.0000 0.02559  0.11047  0.33518  Biso   1.000  O
  O1709    1.0000 0.36047  0.47441  0.08518  Biso   1.000  O
  O1710    1.0000 0.36047  0.77559  0.16482  Biso   1.000  O
  O1711    1.0000 0.38953  0.97441  0.16482  Biso   1.000  O
  O1712    1.0000 0.88953  0.27559  0.58518  Biso   1.000  O
  O1713    1.0000 0.13953  0.41482  0.52559  Biso   1.000  O
  O1714    1.0000 0.13953  0.33518  0.22441  Biso   1.000  O
  O1715    1.0000 0.11047  0.33518  0.02559  Biso   1.000  O
  O1716    1.0000 0.11047  0.41482  0.72441  Biso   1.000  O
  O1717    1.0000 0.08518  0.38953  0.27559  Biso   1.000  O
  O1718    1.0000 0.16482  0.38953  0.97441  Biso   1.000  O
  O1719    1.0000 0.16482  0.36047  0.77559  Biso   1.000  O
  O1720    1.0000 0.08518  0.36047  0.47441  Biso   1.000  O
  O1721    1.0000 0.91482  0.02559  0.13953  Biso   1.000  O
  O1722    1.0000 0.33518  0.72441  0.63953  Biso   1.000  O
  O1723    1.0000 0.91482  0.72441  0.61047  Biso   1.000  O
  O1724    1.0000 0.33518  0.02559  0.11047  Biso   1.000  O
  O1725    1.0000 0.47441  0.16482  0.88953  Biso   1.000  O
  O1726    1.0000 0.47441  0.58518  0.86047  Biso   1.000  O
  O1727    1.0000 0.77559  0.58518  0.38953  Biso   1.000  O
  O1728    1.0000 0.77559  0.16482  0.36047  Biso   1.000  O
  O1729    1.0000 0.52559  0.63953  0.91482  Biso   1.000  O
  O1730    1.0000 0.22441  0.13953  0.33518  Biso   1.000  O
  O1731    1.0000 0.22441  0.11047  0.91482  Biso   1.000  O
  O1732    1.0000 0.52559  0.61047  0.33518  Biso   1.000  O
  O1733    1.0000 0.86047  0.97441  0.08518  Biso   1.000  O
  O1734    1.0000 0.86047  0.27559  0.16482  Biso   1.000  O
  O1735    1.0000 0.88953  0.47441  0.16482  Biso   1.000  O
  O1736    1.0000 0.38953  0.77559  0.58518  Biso   1.000  O
  O1737    1.0000 0.13953  0.91482  0.02559  Biso   1.000  O
  O1738    1.0000 0.13953  0.83518  0.72441  Biso   1.000  O
  O1739    1.0000 0.11047  0.83518  0.52559  Biso   1.000  O
  O1740    1.0000 0.11047  0.91482  0.22441  Biso   1.000  O
  O1741    1.0000 0.08518  0.88953  0.77559  Biso   1.000  O
  O1742    1.0000 0.16482  0.88953  0.47441  Biso   1.000  O
  O1743    1.0000 0.16482  0.86047  0.27559  Biso   1.000  O
  O1744    1.0000 0.08518  0.86047  0.97441  Biso   1.000  O
  O1745    1.0000 0.91482  0.52559  0.63953  Biso   1.000  O
  O1746    1.0000 0.33518  0.22441  0.13953  Biso   1.000  O
  O1747    1.0000 0.91482  0.22441  0.11047  Biso   1.000  O
  O1748    1.0000 0.33518  0.52559  0.61047  Biso   1.000  O
  O1749    1.0000 0.47441  0.66482  0.38953  Biso   1.000  O
  O1750    1.0000 0.47441  0.08518  0.36047  Biso   1.000  O
  O1751    1.0000 0.77559  0.08518  0.88953  Biso   1.000  O
  O1752    1.0000 0.77559  0.66482  0.86047  Biso   1.000  O
  O1753    1.0000 0.52559  0.13953  0.41482  Biso   1.000  O
  O1754    1.0000 0.22441  0.63953  0.83518  Biso   1.000  O
  O1755    1.0000 0.22441  0.61047  0.41482  Biso   1.000  O
  O1756    1.0000 0.52559  0.11047  0.83518  Biso   1.000  O
  O1757    1.0000 0.86047  0.47441  0.58518  Biso   1.000  O
  O1758    1.0000 0.86047  0.77559  0.66482  Biso   1.000  O
  O1759    1.0000 0.88953  0.97441  0.66482  Biso   1.000  O
  O1760    1.0000 0.38953  0.27559  0.08518  Biso   1.000  O
  O1761    1.0000 0.40650  0.59350  0.00000  Biso   1.000  O
  O1762    1.0000 0.40650  0.65650  0.25000  Biso   1.000  O
  O1763    1.0000 0.34350  0.65650  0.50000  Biso   1.000  O
  O1764    1.0000 0.34350  0.59350  0.75000  Biso   1.000  O
  O1765    1.0000 0.59350  0.00000  0.40650  Biso   1.000  O
  O1766    1.0000 0.15650  0.25000  0.90650  Biso   1.000  O
  O1767    1.0000 0.59350  0.25000  0.84350  Biso   1.000  O
  O1768    1.0000 0.15650  0.00000  0.34350  Biso   1.000  O
  O1769    1.0000 0.00000  0.84350  0.65650  Biso   1.000  O
  O1770    1.0000 0.00000  0.40650  0.59350  Biso   1.000  O
  O1771    1.0000 0.75000  0.40650  0.15650  Biso   1.000  O
  O1772    1.0000 0.75000  0.84350  0.09350  Biso   1.000  O
  O1773    1.0000 0.25000  0.90650  0.15650  Biso   1.000  O
  O1774    1.0000 0.25000  0.84350  0.59350  Biso   1.000  O
  O1775    1.0000 0.00000  0.34350  0.15650  Biso   1.000  O
  O1776    1.0000 0.59350  0.75000  0.34350  Biso   1.000  O
  O1777    1.0000 0.65650  0.50000  0.34350  Biso   1.000  O
  O1778    1.0000 0.40650  0.09350  0.50000  Biso   1.000  O
  O1779    1.0000 0.40650  0.15650  0.75000  Biso   1.000  O
  O1780    1.0000 0.34350  0.15650  0.00000  Biso   1.000  O
  O1781    1.0000 0.34350  0.09350  0.25000  Biso   1.000  O
  O1782    1.0000 0.59350  0.50000  0.90650  Biso   1.000  O
  O1783    1.0000 0.15650  0.75000  0.40650  Biso   1.000  O
  O1784    1.0000 0.15650  0.50000  0.84350  Biso   1.000  O
  O1785    1.0000 0.00000  0.90650  0.09350  Biso   1.000  O
  O1786    1.0000 0.75000  0.90650  0.65650  Biso   1.000  O
  O1787    1.0000 0.75000  0.34350  0.59350  Biso   1.000  O
  O1788    1.0000 0.25000  0.40650  0.65650  Biso   1.000  O
  O1789    1.0000 0.25000  0.34350  0.09350  Biso   1.000  O
  O1790    1.0000 0.65650  0.00000  0.84350  Biso   1.000  O
  O1791    1.0000 0.90650  0.59350  0.50000  Biso   1.000  O
  O1792    1.0000 0.90650  0.65650  0.75000  Biso   1.000  O
  O1793    1.0000 0.84350  0.65650  0.00000  Biso   1.000  O
  O1794    1.0000 0.84350  0.59350  0.25000  Biso   1.000  O
  O1795    1.0000 0.09350  0.00000  0.90650  Biso   1.000  O
  O1796    1.0000 0.65650  0.25000  0.40650  Biso   1.000  O
  O1797    1.0000 0.09350  0.25000  0.34350  Biso   1.000  O
  O1798    1.0000 0.50000  0.84350  0.15650  Biso   1.000  O
  O1799    1.0000 0.50000  0.40650  0.09350  Biso   1.000  O
  O1800    1.0000 0.50000  0.34350  0.65650  Biso   1.000  O
  O1801    1.0000 0.09350  0.75000  0.84350  Biso   1.000  O
  O1802    1.0000 0.90650  0.09350  0.00000  Biso   1.000  O
  O1803    1.0000 0.90650  0.15650  0.25000  Biso   1.000  O
  O1804    1.0000 0.84350  0.15650  0.50000  Biso   1.000  O
  O1805    1.0000 0.84350  0.09350  0.75000  Biso   1.000  O
  O1806    1.0000 0.09350  0.50000  0.40650  Biso   1.000  O
  O1807    1.0000 0.65650  0.75000  0.90650  Biso   1.000  O
  O1808    1.0000 0.50000  0.90650  0.59350  Biso   1.000  O
  O1809    1.0000 0.59350  0.40650  0.00000  Biso   1.000  O
  O1810    1.0000 0.59350  0.34350  0.75000  Biso   1.000  O
  O1811    1.0000 0.65650  0.34350  0.50000  Biso   1.000  O
  O1812    1.0000 0.65650  0.40650  0.25000  Biso   1.000  O
  O1813    1.0000 0.40650  0.00000  0.59350  Biso   1.000  O
  O1814    1.0000 0.84350  0.75000  0.09350  Biso   1.000  O
  O1815    1.0000 0.40650  0.75000  0.15650  Biso   1.000  O
  O1816    1.0000 0.84350  0.00000  0.65650  Biso   1.000  O
  O1817    1.0000 0.00000  0.15650  0.34350  Biso   1.000  O
  O1818    1.0000 0.00000  0.59350  0.40650  Biso   1.000  O
  O1819    1.0000 0.25000  0.59350  0.84350  Biso   1.000  O
  O1820    1.0000 0.25000  0.15650  0.90650  Biso   1.000  O
  O1821    1.0000 0.75000  0.09350  0.84350  Biso   1.000  O
  O1822    1.0000 0.75000  0.15650  0.40650  Biso   1.000  O
  O1823    1.0000 0.00000  0.65650  0.84350  Biso   1.000  O
  O1824    1.0000 0.40650  0.25000  0.65650  Biso   1.000  O
  O1825    1.0000 0.34350  0.50000  0.65650  Biso   1.000  O
  O1826    1.0000 0.59350  0.90650  0.50000  Biso   1.000  O
  O1827    1.0000 0.59350  0.84350  0.25000  Biso   1.000  O
  O1828    1.0000 0.65650  0.84350  0.00000  Biso   1.000  O
  O1829    1.0000 0.65650  0.90650  0.75000  Biso   1.000  O
  O1830    1.0000 0.40650  0.50000  0.09350  Biso   1.000  O
  O1831    1.0000 0.84350  0.25000  0.59350  Biso   1.000  O
  O1832    1.0000 0.84350  0.50000  0.15650  Biso   1.000  O
  O1833    1.0000 0.00000  0.09350  0.90650  Biso   1.000  O
  O1834    1.0000 0.25000  0.09350  0.34350  Biso   1.000  O
  O1835    1.0000 0.25000  0.65650  0.40650  Biso   1.000  O
  O1836    1.0000 0.75000  0.59350  0.34350  Biso   1.000  O
  O1837    1.0000 0.75000  0.65650  0.90650  Biso   1.000  O
  O1838    1.0000 0.34350  0.00000  0.15650  Biso   1.000  O
  O1839    1.0000 0.09350  0.40650  0.50000  Biso   1.000  O
  O1840    1.0000 0.09350  0.34350  0.25000  Biso   1.000  O
  O1841    1.0000 0.15650  0.34350  0.00000  Biso   1.000  O
  O1842    1.0000 0.15650  0.40650  0.75000  Biso   1.000  O
  O1843    1.0000 0.90650  0.00000  0.09350  Biso   1.000  O
  O1844    1.0000 0.34350  0.75000  0.59350  Biso   1.000  O
  O1845    1.0000 0.90650  0.75000  0.65650  Biso   1.000  O
  O1846    1.0000 0.50000  0.15650  0.84350  Biso   1.000  O
  O1847    1.0000 0.50000  0.59350  0.90650  Biso   1.000  O
  O1848    1.0000 0.50000  0.65650  0.34350  Biso   1.000  O
  O1849    1.0000 0.90650  0.25000  0.15650  Biso   1.000  O
  O1850    1.0000 0.09350  0.90650  0.00000  Biso   1.000  O
  O1851    1.0000 0.09350  0.84350  0.75000  Biso   1.000  O
  O1852    1.0000 0.15650  0.84350  0.50000  Biso   1.000  O
  O1853    1.0000 0.15650  0.90650  0.25000  Biso   1.000  O
  O1854    1.0000 0.90650  0.50000  0.59350  Biso   1.000  O
  O1855    1.0000 0.34350  0.25000  0.09350  Biso   1.000  O
  O1856    1.0000 0.50000  0.09350  0.40650  Biso   1.000  O
  O1857    1.0000 0.38254  0.61332  0.97692  Biso   1.000  O
  O1858    1.0000 0.38254  0.63668  0.27308  Biso   1.000  O
  O1859    1.0000 0.36746  0.63668  0.47692  Biso   1.000  O
  O1860    1.0000 0.36746  0.61332  0.77308  Biso   1.000  O
  O1861    1.0000 0.38668  0.63254  0.22692  Biso   1.000  O
  O1862    1.0000 0.36332  0.63254  0.52308  Biso   1.000  O
  O1863    1.0000 0.36332  0.61746  0.72692  Biso   1.000  O
  O1864    1.0000 0.38668  0.61746  0.02308  Biso   1.000  O
  O1865    1.0000 0.61332  0.97692  0.38254  Biso   1.000  O
  O1866    1.0000 0.13668  0.27308  0.88254  Biso   1.000  O
  O1867    1.0000 0.61332  0.27308  0.86746  Biso   1.000  O
  O1868    1.0000 0.13668  0.97692  0.36746  Biso   1.000  O
  O1869    1.0000 0.02308  0.86332  0.63254  Biso   1.000  O
  O1870    1.0000 0.02308  0.38668  0.61746  Biso   1.000  O
  O1871    1.0000 0.72692  0.38668  0.13254  Biso   1.000  O
  O1872    1.0000 0.72692  0.86332  0.11746  Biso   1.000  O
  O1873    1.0000 0.97692  0.38254  0.61332  Biso   1.000  O
  O1874    1.0000 0.27308  0.88254  0.13668  Biso   1.000  O
  O1875    1.0000 0.27308  0.86746  0.61332  Biso   1.000  O
  O1876    1.0000 0.97692  0.36746  0.13668  Biso   1.000  O
  O1877    1.0000 0.61746  0.02308  0.38668  Biso   1.000  O
  O1878    1.0000 0.61746  0.72692  0.36332  Biso   1.000  O
  O1879    1.0000 0.63254  0.52308  0.36332  Biso   1.000  O
  O1880    1.0000 0.13254  0.22692  0.88668  Biso   1.000  O
  O1881    1.0000 0.38254  0.11332  0.47692  Biso   1.000  O
  O1882    1.0000 0.38254  0.13668  0.77308  Biso   1.000  O
  O1883    1.0000 0.36746  0.13668  0.97692  Biso   1.000  O
  O1884    1.0000 0.36746  0.11332  0.27308  Biso   1.000  O
  O1885    1.0000 0.38668  0.13254  0.72692  Biso   1.000  O
  O1886    1.0000 0.36332  0.13254  0.02308  Biso   1.000  O
  O1887    1.0000 0.36332  0.11746  0.22692  Biso   1.000  O
  O1888    1.0000 0.38668  0.11746  0.52308  Biso   1.000  O
  O1889    1.0000 0.61332  0.47692  0.88254  Biso   1.000  O
  O1890    1.0000 0.13668  0.77308  0.38254  Biso   1.000  O
  O1891    1.0000 0.61332  0.77308  0.36746  Biso   1.000  O
  O1892    1.0000 0.13668  0.47692  0.86746  Biso   1.000  O
  O1893    1.0000 0.02308  0.36332  0.13254  Biso   1.000  O
  O1894    1.0000 0.02308  0.88668  0.11746  Biso   1.000  O
  O1895    1.0000 0.72692  0.88668  0.63254  Biso   1.000  O
  O1896    1.0000 0.72692  0.36332  0.61746  Biso   1.000  O
  O1897    1.0000 0.97692  0.88254  0.11332  Biso   1.000  O
  O1898    1.0000 0.27308  0.38254  0.63668  Biso   1.000  O
  O1899    1.0000 0.27308  0.36746  0.11332  Biso   1.000  O
  O1900    1.0000 0.97692  0.86746  0.63668  Biso   1.000  O
  O1901    1.0000 0.61746  0.52308  0.88668  Biso   1.000  O
  O1902    1.0000 0.61746  0.22692  0.86332  Biso   1.000  O
  O1903    1.0000 0.63254  0.02308  0.86332  Biso   1.000  O
  O1904    1.0000 0.13254  0.72692  0.38668  Biso   1.000  O
  O1905    1.0000 0.88254  0.61332  0.47692  Biso   1.000  O
  O1906    1.0000 0.88254  0.63668  0.77308  Biso   1.000  O
  O1907    1.0000 0.86746  0.63668  0.97692  Biso   1.000  O
  O1908    1.0000 0.86746  0.61332  0.27308  Biso   1.000  O
  O1909    1.0000 0.88668  0.63254  0.72692  Biso   1.000  O
  O1910    1.0000 0.86332  0.63254  0.02308  Biso   1.000  O
  O1911    1.0000 0.86332  0.61746  0.22692  Biso   1.000  O
  O1912    1.0000 0.88668  0.61746  0.52308  Biso   1.000  O
  O1913    1.0000 0.11332  0.97692  0.88254  Biso   1.000  O
  O1914    1.0000 0.63668  0.27308  0.38254  Biso   1.000  O
  O1915    1.0000 0.11332  0.27308  0.36746  Biso   1.000  O
  O1916    1.0000 0.63668  0.97692  0.86746  Biso   1.000  O
  O1917    1.0000 0.52308  0.86332  0.13254  Biso   1.000  O
  O1918    1.0000 0.52308  0.38668  0.11746  Biso   1.000  O
  O1919    1.0000 0.22692  0.38668  0.63254  Biso   1.000  O
  O1920    1.0000 0.22692  0.86332  0.61746  Biso   1.000  O
  O1921    1.0000 0.47692  0.38254  0.11332  Biso   1.000  O
  O1922    1.0000 0.77308  0.88254  0.63668  Biso   1.000  O
  O1923    1.0000 0.77308  0.86746  0.11332  Biso   1.000  O
  O1924    1.0000 0.47692  0.36746  0.63668  Biso   1.000  O
  O1925    1.0000 0.11746  0.02308  0.88668  Biso   1.000  O
  O1926    1.0000 0.11746  0.72692  0.86332  Biso   1.000  O
  O1927    1.0000 0.13254  0.52308  0.86332  Biso   1.000  O
  O1928    1.0000 0.63254  0.22692  0.38668  Biso   1.000  O
  O1929    1.0000 0.88254  0.11332  0.97692  Biso   1.000  O
  O1930    1.0000 0.88254  0.13668  0.27308  Biso   1.000  O
  O1931    1.0000 0.86746  0.13668  0.47692  Biso   1.000  O
  O1932    1.0000 0.86746  0.11332  0.77308  Biso   1.000  O
  O1933    1.0000 0.88668  0.13254  0.22692  Biso   1.000  O
  O1934    1.0000 0.86332  0.13254  0.52308  Biso   1.000  O
  O1935    1.0000 0.86332  0.11746  0.72692  Biso   1.000  O
  O1936    1.0000 0.88668  0.11746  0.02308  Biso   1.000  O
  O1937    1.0000 0.11332  0.47692  0.38254  Biso   1.000  O
  O1938    1.0000 0.63668  0.77308  0.88254  Biso   1.000  O
  O1939    1.0000 0.11332  0.77308  0.86746  Biso   1.000  O
  O1940    1.0000 0.63668  0.47692  0.36746  Biso   1.000  O
  O1941    1.0000 0.52308  0.36332  0.63254  Biso   1.000  O
  O1942    1.0000 0.52308  0.88668  0.61746  Biso   1.000  O
  O1943    1.0000 0.22692  0.88668  0.13254  Biso   1.000  O
  O1944    1.0000 0.22692  0.36332  0.11746  Biso   1.000  O
  O1945    1.0000 0.47692  0.88254  0.61332  Biso   1.000  O
  O1946    1.0000 0.77308  0.38254  0.13668  Biso   1.000  O
  O1947    1.0000 0.77308  0.36746  0.61332  Biso   1.000  O
  O1948    1.0000 0.47692  0.86746  0.13668  Biso   1.000  O
  O1949    1.0000 0.11746  0.52308  0.38668  Biso   1.000  O
  O1950    1.0000 0.11746  0.22692  0.36332  Biso   1.000  O
  O1951    1.0000 0.13254  0.02308  0.36332  Biso   1.000  O
  O1952    1.0000 0.63254  0.72692  0.88668  Biso   1.000  O
  O1953    1.0000 0.61746  0.38668  0.02308  Biso   1.000  O
  O1954    1.0000 0.61746  0.36332  0.72692  Biso   1.000  O
  O1955    1.0000 0.63254  0.36332  0.52308  Biso   1.000  O
  O1956    1.0000 0.63254  0.38668  0.22692  Biso   1.000  O
  O1957    1.0000 0.61332  0.36746  0.77308  Biso   1.000  O
  O1958    1.0000 0.63668  0.36746  0.47692  Biso   1.000  O
  O1959    1.0000 0.63668  0.38254  0.27308  Biso   1.000  O
  O1960    1.0000 0.61332  0.38254  0.97692  Biso   1.000  O
  O1961    1.0000 0.38668  0.02308  0.61746  Biso   1.000  O
  O1962    1.0000 0.86332  0.72692  0.11746  Biso   1.000  O
  O1963    1.0000 0.38668  0.72692  0.13254  Biso   1.000  O
  O1964    1.0000 0.86332  0.02308  0.63254  Biso   1.000  O
  O1965    1.0000 0.97692  0.13668  0.36746  Biso   1.000  O
  O1966    1.0000 0.97692  0.61332  0.38254  Biso   1.000  O
  O1967    1.0000 0.27308  0.61332  0.86746  Biso   1.000  O
  O1968    1.0000 0.27308  0.13668  0.88254  Biso   1.000  O
  O1969    1.0000 0.02308  0.61746  0.38668  Biso   1.000  O
  O1970    1.0000 0.72692  0.11746  0.86332  Biso   1.000  O
  O1971    1.0000 0.72692  0.13254  0.38668  Biso   1.000  O
  O1972    1.0000 0.02308  0.63254  0.86332  Biso   1.000  O
  O1973    1.0000 0.38254  0.97692  0.61332  Biso   1.000  O
  O1974    1.0000 0.38254  0.27308  0.63668  Biso   1.000  O
  O1975    1.0000 0.36746  0.47692  0.63668  Biso   1.000  O
  O1976    1.0000 0.86746  0.77308  0.11332  Biso   1.000  O
  O1977    1.0000 0.61746  0.88668  0.52308  Biso   1.000  O
  O1978    1.0000 0.61746  0.86332  0.22692  Biso   1.000  O
  O1979    1.0000 0.63254  0.86332  0.02308  Biso   1.000  O
  O1980    1.0000 0.63254  0.88668  0.72692  Biso   1.000  O
  O1981    1.0000 0.61332  0.86746  0.27308  Biso   1.000  O
  O1982    1.0000 0.63668  0.86746  0.97692  Biso   1.000  O
  O1983    1.0000 0.63668  0.88254  0.77308  Biso   1.000  O
  O1984    1.0000 0.61332  0.88254  0.47692  Biso   1.000  O
  O1985    1.0000 0.38668  0.52308  0.11746  Biso   1.000  O
  O1986    1.0000 0.86332  0.22692  0.61746  Biso   1.000  O
  O1987    1.0000 0.38668  0.22692  0.63254  Biso   1.000  O
  O1988    1.0000 0.86332  0.52308  0.13254  Biso   1.000  O
  O1989    1.0000 0.97692  0.63668  0.86746  Biso   1.000  O
  O1990    1.0000 0.97692  0.11332  0.88254  Biso   1.000  O
  O1991    1.0000 0.27308  0.11332  0.36746  Biso   1.000  O
  O1992    1.0000 0.27308  0.63668  0.38254  Biso   1.000  O
  O1993    1.0000 0.02308  0.11746  0.88668  Biso   1.000  O
  O1994    1.0000 0.72692  0.61746  0.36332  Biso   1.000  O
  O1995    1.0000 0.72692  0.63254  0.88668  Biso   1.000  O
  O1996    1.0000 0.02308  0.13254  0.36332  Biso   1.000  O
  O1997    1.0000 0.38254  0.47692  0.11332  Biso   1.000  O
  O1998    1.0000 0.38254  0.77308  0.13668  Biso   1.000  O
  O1999    1.0000 0.36746  0.97692  0.13668  Biso   1.000  O
  O2000    1.0000 0.86746  0.27308  0.61332  Biso   1.000  O
  O2001    1.0000 0.11746  0.38668  0.52308  Biso   1.000  O
  O2002    1.0000 0.11746  0.36332  0.22692  Biso   1.000  O
  O2003    1.0000 0.13254  0.36332  0.02308  Biso   1.000  O
  O2004    1.0000 0.13254  0.38668  0.72692  Biso   1.000  O
  O2005    1.0000 0.11332  0.36746  0.27308  Biso   1.000  O
  O2006    1.0000 0.13668  0.36746  0.97692  Biso   1.000  O
  O2007    1.0000 0.13668  0.38254  0.77308  Biso   1.000  O
  O2008    1.0000 0.11332  0.38254  0.47692  Biso   1.000  O
  O2009    1.0000 0.88668  0.02308  0.11746  Biso   1.000  O
  O2010    1.0000 0.36332  0.72692  0.61746  Biso   1.000  O
  O2011    1.0000 0.88668  0.72692  0.63254  Biso   1.000  O
  O2012    1.0000 0.36332  0.02308  0.13254  Biso   1.000  O
  O2013    1.0000 0.47692  0.13668  0.86746  Biso   1.000  O
  O2014    1.0000 0.47692  0.61332  0.88254  Biso   1.000  O
  O2015    1.0000 0.77308  0.61332  0.36746  Biso   1.000  O
  O2016    1.0000 0.77308  0.13668  0.38254  Biso   1.000  O
  O2017    1.0000 0.52308  0.61746  0.88668  Biso   1.000  O
  O2018    1.0000 0.22692  0.11746  0.36332  Biso   1.000  O
  O2019    1.0000 0.22692  0.13254  0.88668  Biso   1.000  O
  O2020    1.0000 0.52308  0.63254  0.36332  Biso   1.000  O
  O2021    1.0000 0.88254  0.97692  0.11332  Biso   1.000  O
  O2022    1.0000 0.88254  0.27308  0.13668  Biso   1.000  O
  O2023    1.0000 0.86746  0.47692  0.13668  Biso   1.000  O
  O2024    1.0000 0.36746  0.77308  0.61332  Biso   1.000  O
  O2025    1.0000 0.11746  0.88668  0.02308  Biso   1.000  O
  O2026    1.0000 0.11746  0.86332  0.72692  Biso   1.000  O
  O2027    1.0000 0.13254  0.86332  0.52308  Biso   1.000  O
  O2028    1.0000 0.13254  0.88668  0.22692  Biso   1.000  O
  O2029    1.0000 0.11332  0.86746  0.77308  Biso   1.000  O
  O2030    1.0000 0.13668  0.86746  0.47692  Biso   1.000  O
  O2031    1.0000 0.13668  0.88254  0.27308  Biso   1.000  O
  O2032    1.0000 0.11332  0.88254  0.97692  Biso   1.000  O
  O2033    1.0000 0.88668  0.52308  0.61746  Biso   1.000  O
  O2034    1.0000 0.36332  0.22692  0.11746  Biso   1.000  O
  O2035    1.0000 0.88668  0.22692  0.13254  Biso   1.000  O
  O2036    1.0000 0.36332  0.52308  0.63254  Biso   1.000  O
  O2037    1.0000 0.47692  0.63668  0.36746  Biso   1.000  O
  O2038    1.0000 0.47692  0.11332  0.38254  Biso   1.000  O
  O2039    1.0000 0.77308  0.11332  0.86746  Biso   1.000  O
  O2040    1.0000 0.77308  0.63668  0.88254  Biso   1.000  O
  O2041    1.0000 0.52308  0.11746  0.38668  Biso   1.000  O
  O2042    1.0000 0.22692  0.61746  0.86332  Biso   1.000  O
  O2043    1.0000 0.22692  0.63254  0.38668  Biso   1.000  O
  O2044    1.0000 0.52308  0.13254  0.86332  Biso   1.000  O
  O2045    1.0000 0.88254  0.47692  0.61332  Biso   1.000  O
  O2046    1.0000 0.88254  0.77308  0.63668  Biso   1.000  O
  O2047    1.0000 0.86746  0.97692  0.63668  Biso   1.000  O
  O2048    1.0000 0.36746  0.27308  0.11332  Biso   1.000  O
  O2049    1.0000 0.38026  0.56526  0.99570  Biso   1.000  O
  O2050    1.0000 0.38026  0.68474  0.25430  Biso   1.000  O
  O2051    1.0000 0.36974  0.68474  0.49570  Biso   1.000  O
  O2052    1.0000 0.36974  0.56526  0.75430  Biso   1.000  O
  O2053    1.0000 0.43474  0.63026  0.24570  Biso   1.000  O
  O2054    1.0000 0.31526  0.63026  0.50430  Biso   1.000  O
  O2055    1.0000 0.31526  0.61974  0.74570  Biso   1.000  O
  O2056    1.0000 0.43474  0.61974  0.00430  Biso   1.000  O
  O2057    1.0000 0.56526  0.99570  0.38026  Biso   1.000  O
  O2058    1.0000 0.18474  0.25430  0.88026  Biso   1.000  O
  O2059    1.0000 0.56526  0.25430  0.86974  Biso   1.000  O
  O2060    1.0000 0.18474  0.99570  0.36974  Biso   1.000  O
  O2061    1.0000 0.00430  0.81526  0.63026  Biso   1.000  O
  O2062    1.0000 0.00430  0.43474  0.61974  Biso   1.000  O
  O2063    1.0000 0.74570  0.43474  0.13026  Biso   1.000  O
  O2064    1.0000 0.74570  0.81526  0.11974  Biso   1.000  O
  O2065    1.0000 0.99570  0.38026  0.56526  Biso   1.000  O
  O2066    1.0000 0.25430  0.88026  0.18474  Biso   1.000  O
  O2067    1.0000 0.25430  0.86974  0.56526  Biso   1.000  O
  O2068    1.0000 0.99570  0.36974  0.18474  Biso   1.000  O
  O2069    1.0000 0.61974  0.00430  0.43474  Biso   1.000  O
  O2070    1.0000 0.61974  0.74570  0.31526  Biso   1.000  O
  O2071    1.0000 0.63026  0.50430  0.31526  Biso   1.000  O
  O2072    1.0000 0.13026  0.24570  0.93474  Biso   1.000  O
  O2073    1.0000 0.38026  0.06526  0.49570  Biso   1.000  O
  O2074    1.0000 0.38026  0.18474  0.75430  Biso   1.000  O
  O2075    1.0000 0.36974  0.18474  0.99570  Biso   1.000  O
  O2076    1.0000 0.36974  0.06526  0.25430  Biso   1.000  O
  O2077    1.0000 0.43474  0.13026  0.74570  Biso   1.000  O
  O2078    1.0000 0.31526  0.13026  0.00430  Biso   1.000  O
  O2079    1.0000 0.31526  0.11974  0.24570  Biso   1.000  O
  O2080    1.0000 0.43474  0.11974  0.50430  Biso   1.000  O
  O2081    1.0000 0.56526  0.49570  0.88026  Biso   1.000  O
  O2082    1.0000 0.18474  0.75430  0.38026  Biso   1.000  O
  O2083    1.0000 0.56526  0.75430  0.36974  Biso   1.000  O
  O2084    1.0000 0.18474  0.49570  0.86974  Biso   1.000  O
  O2085    1.0000 0.00430  0.31526  0.13026  Biso   1.000  O
  O2086    1.0000 0.00430  0.93474  0.11974  Biso   1.000  O
  O2087    1.0000 0.74570  0.93474  0.63026  Biso   1.000  O
  O2088    1.0000 0.74570  0.31526  0.61974  Biso   1.000  O
  O2089    1.0000 0.99570  0.88026  0.06526  Biso   1.000  O
  O2090    1.0000 0.25430  0.38026  0.68474  Biso   1.000  O
  O2091    1.0000 0.25430  0.36974  0.06526  Biso   1.000  O
  O2092    1.0000 0.99570  0.86974  0.68474  Biso   1.000  O
  O2093    1.0000 0.61974  0.50430  0.93474  Biso   1.000  O
  O2094    1.0000 0.61974  0.24570  0.81526  Biso   1.000  O
  O2095    1.0000 0.63026  0.00430  0.81526  Biso   1.000  O
  O2096    1.0000 0.13026  0.74570  0.43474  Biso   1.000  O
  O2097    1.0000 0.88026  0.56526  0.49570  Biso   1.000  O
  O2098    1.0000 0.88026  0.68474  0.75430  Biso   1.000  O
  O2099    1.0000 0.86974  0.68474  0.99570  Biso   1.000  O
  O2100    1.0000 0.86974  0.56526  0.25430  Biso   1.000  O
  O2101    1.0000 0.93474  0.63026  0.74570  Biso   1.000  O
  O2102    1.0000 0.81526  0.63026  0.00430  Biso   1.000  O
  O2103    1.0000 0.81526  0.61974  0.24570  Biso   1.000  O
  O2104    1.0000 0.93474  0.61974  0.50430  Biso   1.000  O
  O2105    1.0000 0.06526  0.99570  0.88026  Biso   1.000  O
  O2106    1.0000 0.68474  0.25430  0.38026  Biso   1.000  O
  O2107    1.0000 0.06526  0.25430  0.36974  Biso   1.000  O
  O2108    1.0000 0.68474  0.99570  0.86974  Biso   1.000  O
  O2109    1.0000 0.50430  0.81526  0.13026  Biso   1.000  O
  O2110    1.0000 0.50430  0.43474  0.11974  Biso   1.000  O
  O2111    1.0000 0.24570  0.43474  0.63026  Biso   1.000  O
  O2112    1.0000 0.24570  0.81526  0.61974  Biso   1.000  O
  O2113    1.0000 0.49570  0.38026  0.06526  Biso   1.000  O
  O2114    1.0000 0.75430  0.88026  0.68474  Biso   1.000  O
  O2115    1.0000 0.75430  0.86974  0.06526  Biso   1.000  O
  O2116    1.0000 0.49570  0.36974  0.68474  Biso   1.000  O
  O2117    1.0000 0.11974  0.00430  0.93474  Biso   1.000  O
  O2118    1.0000 0.11974  0.74570  0.81526  Biso   1.000  O
  O2119    1.0000 0.13026  0.50430  0.81526  Biso   1.000  O
  O2120    1.0000 0.63026  0.24570  0.43474  Biso   1.000  O
  O2121    1.0000 0.88026  0.06526  0.99570  Biso   1.000  O
  O2122    1.0000 0.88026  0.18474  0.25430  Biso   1.000  O
  O2123    1.0000 0.86974  0.18474  0.49570  Biso   1.000  O
  O2124    1.0000 0.86974  0.06526  0.75430  Biso   1.000  O
  O2125    1.0000 0.93474  0.13026  0.24570  Biso   1.000  O
  O2126    1.0000 0.81526  0.13026  0.50430  Biso   1.000  O
  O2127    1.0000 0.81526  0.11974  0.74570  Biso   1.000  O
  O2128    1.0000 0.93474  0.11974  0.00430  Biso   1.000  O
  O2129    1.0000 0.06526  0.49570  0.38026  Biso   1.000  O
  O2130    1.0000 0.68474  0.75430  0.88026  Biso   1.000  O
  O2131    1.0000 0.06526  0.75430  0.86974  Biso   1.000  O
  O2132    1.0000 0.68474  0.49570  0.36974  Biso   1.000  O
  O2133    1.0000 0.50430  0.31526  0.63026  Biso   1.000  O
  O2134    1.0000 0.50430  0.93474  0.61974  Biso   1.000  O
  O2135    1.0000 0.24570  0.93474  0.13026  Biso   1.000  O
  O2136    1.0000 0.24570  0.31526  0.11974  Biso   1.000  O
  O2137    1.0000 0.49570  0.88026  0.56526  Biso   1.000  O
  O2138    1.0000 0.75430  0.38026  0.18474  Biso   1.000  O
  O2139    1.0000 0.75430  0.36974  0.56526  Biso   1.000  O
  O2140    1.0000 0.49570  0.86974  0.18474  Biso   1.000  O
  O2141    1.0000 0.11974  0.50430  0.43474  Biso   1.000  O
  O2142    1.0000 0.11974  0.24570  0.31526  Biso   1.000  O
  O2143    1.0000 0.13026  0.00430  0.31526  Biso   1.000  O
  O2144    1.0000 0.63026  0.74570  0.93474  Biso   1.000  O
  O2145    1.0000 0.61974  0.43474  0.00430  Biso   1.000  O
  O2146    1.0000 0.61974  0.31526  0.74570  Biso   1.000  O
  O2147    1.0000 0.63026  0.31526  0.50430  Biso   1.000  O
  O2148    1.0000 0.63026  0.43474  0.24570  Biso   1.000  O
  O2149    1.0000 0.56526  0.36974  0.75430  Biso   1.000  O
  O2150    1.0000 0.68474  0.36974  0.49570  Biso   1.000  O
  O2151    1.0000 0.68474  0.38026  0.25430  Biso   1.000  O
  O2152    1.0000 0.56526  0.38026  0.99570  Biso   1.000  O
  O2153    1.0000 0.43474  0.00430  0.61974  Biso   1.000  O
  O2154    1.0000 0.81526  0.74570  0.11974  Biso   1.000  O
  O2155    1.0000 0.43474  0.74570  0.13026  Biso   1.000  O
  O2156    1.0000 0.81526  0.00430  0.63026  Biso   1.000  O
  O2157    1.0000 0.99570  0.18474  0.36974  Biso   1.000  O
  O2158    1.0000 0.99570  0.56526  0.38026  Biso   1.000  O
  O2159    1.0000 0.25430  0.56526  0.86974  Biso   1.000  O
  O2160    1.0000 0.25430  0.18474  0.88026  Biso   1.000  O
  O2161    1.0000 0.00430  0.61974  0.43474  Biso   1.000  O
  O2162    1.0000 0.74570  0.11974  0.81526  Biso   1.000  O
  O2163    1.0000 0.74570  0.13026  0.43474  Biso   1.000  O
  O2164    1.0000 0.00430  0.63026  0.81526  Biso   1.000  O
  O2165    1.0000 0.38026  0.99570  0.56526  Biso   1.000  O
  O2166    1.0000 0.38026  0.25430  0.68474  Biso   1.000  O
  O2167    1.0000 0.36974  0.49570  0.68474  Biso   1.000  O
  O2168    1.0000 0.86974  0.75430  0.06526  Biso   1.000  O
  O2169    1.0000 0.61974  0.93474  0.50430  Biso   1.000  O
  O2170    1.0000 0.61974  0.81526  0.24570  Biso   1.000  O
  O2171    1.0000 0.63026  0.81526  0.00430  Biso   1.000  O
  O2172    1.0000 0.63026  0.93474  0.74570  Biso   1.000  O
  O2173    1.0000 0.56526  0.86974  0.25430  Biso   1.000  O
  O2174    1.0000 0.68474  0.86974  0.99570  Biso   1.000  O
  O2175    1.0000 0.68474  0.88026  0.75430  Biso   1.000  O
  O2176    1.0000 0.56526  0.88026  0.49570  Biso   1.000  O
  O2177    1.0000 0.43474  0.50430  0.11974  Biso   1.000  O
  O2178    1.0000 0.81526  0.24570  0.61974  Biso   1.000  O
  O2179    1.0000 0.43474  0.24570  0.63026  Biso   1.000  O
  O2180    1.0000 0.81526  0.50430  0.13026  Biso   1.000  O
  O2181    1.0000 0.99570  0.68474  0.86974  Biso   1.000  O
  O2182    1.0000 0.99570  0.06526  0.88026  Biso   1.000  O
  O2183    1.0000 0.25430  0.06526  0.36974  Biso   1.000  O
  O2184    1.0000 0.25430  0.68474  0.38026  Biso   1.000  O
  O2185    1.0000 0.00430  0.11974  0.93474  Biso   1.000  O
  O2186    1.0000 0.74570  0.61974  0.31526  Biso   1.000  O
  O2187    1.0000 0.74570  0.63026  0.93474  Biso   1.000  O
  O2188    1.0000 0.00430  0.13026  0.31526  Biso   1.000  O
  O2189    1.0000 0.38026  0.49570  0.06526  Biso   1.000  O
  O2190    1.0000 0.38026  0.75430  0.18474  Biso   1.000  O
  O2191    1.0000 0.36974  0.99570  0.18474  Biso   1.000  O
  O2192    1.0000 0.86974  0.25430  0.56526  Biso   1.000  O
  O2193    1.0000 0.11974  0.43474  0.50430  Biso   1.000  O
  O2194    1.0000 0.11974  0.31526  0.24570  Biso   1.000  O
  O2195    1.0000 0.13026  0.31526  0.00430  Biso   1.000  O
  O2196    1.0000 0.13026  0.43474  0.74570  Biso   1.000  O
  O2197    1.0000 0.06526  0.36974  0.25430  Biso   1.000  O
  O2198    1.0000 0.18474  0.36974  0.99570  Biso   1.000  O
  O2199    1.0000 0.18474  0.38026  0.75430  Biso   1.000  O
  O2200    1.0000 0.06526  0.38026  0.49570  Biso   1.000  O
  O2201    1.0000 0.93474  0.00430  0.11974  Biso   1.000  O
  O2202    1.0000 0.31526  0.74570  0.61974  Biso   1.000  O
  O2203    1.0000 0.93474  0.74570  0.63026  Biso   1.000  O
  O2204    1.0000 0.31526  0.00430  0.13026  Biso   1.000  O
  O2205    1.0000 0.49570  0.18474  0.86974  Biso   1.000  O
  O2206    1.0000 0.49570  0.56526  0.88026  Biso   1.000  O
  O2207    1.0000 0.75430  0.56526  0.36974  Biso   1.000  O
  O2208    1.0000 0.75430  0.18474  0.38026  Biso   1.000  O
  O2209    1.0000 0.50430  0.61974  0.93474  Biso   1.000  O
  O2210    1.0000 0.24570  0.11974  0.31526  Biso   1.000  O
  O2211    1.0000 0.24570  0.13026  0.93474  Biso   1.000  O
  O2212    1.0000 0.50430  0.63026  0.31526  Biso   1.000  O
  O2213    1.0000 0.88026  0.99570  0.06526  Biso   1.000  O
  O2214    1.0000 0.88026  0.25430  0.18474  Biso   1.000  O
  O2215    1.0000 0.86974  0.49570  0.18474  Biso   1.000  O
  O2216    1.0000 0.36974  0.75430  0.56526  Biso   1.000  O
  O2217    1.0000 0.11974  0.93474  0.00430  Biso   1.000  O
  O2218    1.0000 0.11974  0.81526  0.74570  Biso   1.000  O
  O2219    1.0000 0.13026  0.81526  0.50430  Biso   1.000  O
  O2220    1.0000 0.13026  0.93474  0.24570  Biso   1.000  O
  O2221    1.0000 0.06526  0.86974  0.75430  Biso   1.000  O
  O2222    1.0000 0.18474  0.86974  0.49570  Biso   1.000  O
  O2223    1.0000 0.18474  0.88026  0.25430  Biso   1.000  O
  O2224    1.0000 0.06526  0.88026  0.99570  Biso   1.000  O
  O2225    1.0000 0.93474  0.50430  0.61974  Biso   1.000  O
  O2226    1.0000 0.31526  0.24570  0.11974  Biso   1.000  O
  O2227    1.0000 0.93474  0.24570  0.13026  Biso   1.000  O
  O2228    1.0000 0.31526  0.50430  0.63026  Biso   1.000  O
  O2229    1.0000 0.49570  0.68474  0.36974  Biso   1.000  O
  O2230    1.0000 0.49570  0.06526  0.38026  Biso   1.000  O
  O2231    1.0000 0.75430  0.06526  0.86974  Biso   1.000  O
  O2232    1.0000 0.75430  0.68474  0.88026  Biso   1.000  O
  O2233    1.0000 0.50430  0.11974  0.43474  Biso   1.000  O
  O2234    1.0000 0.24570  0.61974  0.81526  Biso   1.000  O
  O2235    1.0000 0.24570  0.63026  0.43474  Biso   1.000  O
  O2236    1.0000 0.50430  0.13026  0.81526  Biso   1.000  O
  O2237    1.0000 0.88026  0.49570  0.56526  Biso   1.000  O
  O2238    1.0000 0.88026  0.75430  0.68474  Biso   1.000  O
  O2239    1.0000 0.86974  0.99570  0.68474  Biso   1.000  O
  O2240    1.0000 0.36974  0.25430  0.06526  Biso   1.000  O
  O2241    1.0000 0.39473  0.58219  0.96469  Biso   1.000  O
  O2242    1.0000 0.39473  0.66781  0.28531  Biso   1.000  O
  O2243    1.0000 0.35527  0.66781  0.46469  Biso   1.000  O
  O2244    1.0000 0.35527  0.58219  0.78531  Biso   1.000  O
  O2245    1.0000 0.41781  0.64473  0.21469  Biso   1.000  O
  O2246    1.0000 0.33219  0.64473  0.53531  Biso   1.000  O
  O2247    1.0000 0.33219  0.60527  0.71469  Biso   1.000  O
  O2248    1.0000 0.41781  0.60527  0.03531  Biso   1.000  O
  O2249    1.0000 0.58219  0.96469  0.39473  Biso   1.000  O
  O2250    1.0000 0.16781  0.28531  0.89473  Biso   1.000  O
  O2251    1.0000 0.58219  0.28531  0.85527  Biso   1.000  O
  O2252    1.0000 0.16781  0.96469  0.35527  Biso   1.000  O
  O2253    1.0000 0.03531  0.83219  0.64473  Biso   1.000  O
  O2254    1.0000 0.03531  0.41781  0.60527  Biso   1.000  O
  O2255    1.0000 0.71469  0.41781  0.14473  Biso   1.000  O
  O2256    1.0000 0.71469  0.83219  0.10527  Biso   1.000  O
  O2257    1.0000 0.96469  0.39473  0.58219  Biso   1.000  O
  O2258    1.0000 0.28531  0.89473  0.16781  Biso   1.000  O
  O2259    1.0000 0.28531  0.85527  0.58219  Biso   1.000  O
  O2260    1.0000 0.96469  0.35527  0.16781  Biso   1.000  O
  O2261    1.0000 0.60527  0.03531  0.41781  Biso   1.000  O
  O2262    1.0000 0.60527  0.71469  0.33219  Biso   1.000  O
  O2263    1.0000 0.64473  0.53531  0.33219  Biso   1.000  O
  O2264    1.0000 0.14473  0.21469  0.91781  Biso   1.000  O
  O2265    1.0000 0.39473  0.08219  0.46469  Biso   1.000  O
  O2266    1.0000 0.39473  0.16781  0.78531  Biso   1.000  O
  O2267    1.0000 0.35527  0.16781  0.96469  Biso   1.000  O
  O2268    1.0000 0.35527  0.08219  0.28531  Biso   1.000  O
  O2269    1.0000 0.41781  0.14473  0.71469  Biso   1.000  O
  O2270    1.0000 0.33219  0.14473  0.03531  Biso   1.000  O
  O2271    1.0000 0.33219  0.10527  0.21469  Biso   1.000  O
  O2272    1.0000 0.41781  0.10527  0.53531  Biso   1.000  O
  O2273    1.0000 0.58219  0.46469  0.89473  Biso   1.000  O
  O2274    1.0000 0.16781  0.78531  0.39473  Biso   1.000  O
  O2275    1.0000 0.58219  0.78531  0.35527  Biso   1.000  O
  O2276    1.0000 0.16781  0.46469  0.85527  Biso   1.000  O
  O2277    1.0000 0.03531  0.33219  0.14473  Biso   1.000  O
  O2278    1.0000 0.03531  0.91781  0.10527  Biso   1.000  O
  O2279    1.0000 0.71469  0.91781  0.64473  Biso   1.000  O
  O2280    1.0000 0.71469  0.33219  0.60527  Biso   1.000  O
  O2281    1.0000 0.96469  0.89473  0.08219  Biso   1.000  O
  O2282    1.0000 0.28531  0.39473  0.66781  Biso   1.000  O
  O2283    1.0000 0.28531  0.35527  0.08219  Biso   1.000  O
  O2284    1.0000 0.96469  0.85527  0.66781  Biso   1.000  O
  O2285    1.0000 0.60527  0.53531  0.91781  Biso   1.000  O
  O2286    1.0000 0.60527  0.21469  0.83219  Biso   1.000  O
  O2287    1.0000 0.64473  0.03531  0.83219  Biso   1.000  O
  O2288    1.0000 0.14473  0.71469  0.41781  Biso   1.000  O
  O2289    1.0000 0.89473  0.58219  0.46469  Biso   1.000  O
  O2290    1.0000 0.89473  0.66781  0.78531  Biso   1.000  O
  O2291    1.0000 0.85527  0.66781  0.96469  Biso   1.000  O
  O2292    1.0000 0.85527  0.58219  0.28531  Biso   1.000  O
  O2293    1.0000 0.91781  0.64473  0.71469  Biso   1.000  O
  O2294    1.0000 0.83219  0.64473  0.03531  Biso   1.000  O
  O2295    1.0000 0.83219  0.60527  0.21469  Biso   1.000  O
  O2296    1.0000 0.91781  0.60527  0.53531  Biso   1.000  O
  O2297    1.0000 0.08219  0.96469  0.89473  Biso   1.000  O
  O2298    1.0000 0.66781  0.28531  0.39473  Biso   1.000  O
  O2299    1.0000 0.08219  0.28531  0.35527  Biso   1.000  O
  O2300    1.0000 0.66781  0.96469  0.85527  Biso   1.000  O
  O2301    1.0000 0.53531  0.83219  0.14473  Biso   1.000  O
  O2302    1.0000 0.53531  0.41781  0.10527  Biso   1.000  O
  O2303    1.0000 0.21469  0.41781  0.64473  Biso   1.000  O
  O2304    1.0000 0.21469  0.83219  0.60527  Biso   1.000  O
  O2305    1.0000 0.46469  0.39473  0.08219  Biso   1.000  O
  O2306    1.0000 0.78531  0.89473  0.66781  Biso   1.000  O
  O2307    1.0000 0.78531  0.85527  0.08219  Biso   1.000  O
  O2308    1.0000 0.46469  0.35527  0.66781  Biso   1.000  O
  O2309    1.0000 0.10527  0.03531  0.91781  Biso   1.000  O
  O2310    1.0000 0.10527  0.71469  0.83219  Biso   1.000  O
  O2311    1.0000 0.14473  0.53531  0.83219  Biso   1.000  O
  O2312    1.0000 0.64473  0.21469  0.41781  Biso   1.000  O
  O2313    1.0000 0.89473  0.08219  0.96469  Biso   1.000  O
  O2314    1.0000 0.89473  0.16781  0.28531  Biso   1.000  O
  O2315    1.0000 0.85527  0.16781  0.46469  Biso   1.000  O
  O2316    1.0000 0.85527  0.08219  0.78531  Biso   1.000  O
  O2317    1.0000 0.91781  0.14473  0.21469  Biso   1.000  O
  O2318    1.0000 0.83219  0.14473  0.53531  Biso   1.000  O
  O2319    1.0000 0.83219  0.10527  0.71469  Biso   1.000  O
  O2320    1.0000 0.91781  0.10527  0.03531  Biso   1.000  O
  O2321    1.0000 0.08219  0.46469  0.39473  Biso   1.000  O
  O2322    1.0000 0.66781  0.78531  0.89473  Biso   1.000  O
  O2323    1.0000 0.08219  0.78531  0.85527  Biso   1.000  O
  O2324    1.0000 0.66781  0.46469  0.35527  Biso   1.000  O
  O2325    1.0000 0.53531  0.33219  0.64473  Biso   1.000  O
  O2326    1.0000 0.53531  0.91781  0.60527  Biso   1.000  O
  O2327    1.0000 0.21469  0.91781  0.14473  Biso   1.000  O
  O2328    1.0000 0.21469  0.33219  0.10527  Biso   1.000  O
  O2329    1.0000 0.46469  0.89473  0.58219  Biso   1.000  O
  O2330    1.0000 0.78531  0.39473  0.16781  Biso   1.000  O
  O2331    1.0000 0.78531  0.35527  0.58219  Biso   1.000  O
  O2332    1.0000 0.46469  0.85527  0.16781  Biso   1.000  O
  O2333    1.0000 0.10527  0.53531  0.41781  Biso   1.000  O
  O2334    1.0000 0.10527  0.21469  0.33219  Biso   1.000  O
  O2335    1.0000 0.14473  0.03531  0.33219  Biso   1.000  O
  O2336    1.0000 0.64473  0.71469  0.91781  Biso   1.000  O
  O2337    1.0000 0.60527  0.41781  0.03531  Biso   1.000  O
  O2338    1.0000 0.60527  0.33219  0.71469  Biso   1.000  O
  O2339    1.0000 0.64473  0.33219  0.53531  Biso   1.000  O
  O2340    1.0000 0.64473  0.41781  0.21469  Biso   1.000  O
  O2341    1.0000 0.58219  0.35527  0.78531  Biso   1.000  O
  O2342    1.0000 0.66781  0.35527  0.46469  Biso   1.000  O
  O2343    1.0000 0.66781  0.39473  0.28531  Biso   1.000  O
  O2344    1.0000 0.58219  0.39473  0.96469  Biso   1.000  O
  O2345    1.0000 0.41781  0.03531  0.60527  Biso   1.000  O
  O2346    1.0000 0.83219  0.71469  0.10527  Biso   1.000  O
  O2347    1.0000 0.41781  0.71469  0.14473  Biso   1.000  O
  O2348    1.0000 0.83219  0.03531  0.64473  Biso   1.000  O
  O2349    1.0000 0.96469  0.16781  0.35527  Biso   1.000  O
  O2350    1.0000 0.96469  0.58219  0.39473  Biso   1.000  O
  O2351    1.0000 0.28531  0.58219  0.85527  Biso   1.000  O
  O2352    1.0000 0.28531  0.16781  0.89473  Biso   1.000  O
  O2353    1.0000 0.03531  0.60527  0.41781  Biso   1.000  O
  O2354    1.0000 0.71469  0.10527  0.83219  Biso   1.000  O
  O2355    1.0000 0.71469  0.14473  0.41781  Biso   1.000  O
  O2356    1.0000 0.03531  0.64473  0.83219  Biso   1.000  O
  O2357    1.0000 0.39473  0.96469  0.58219  Biso   1.000  O
  O2358    1.0000 0.39473  0.28531  0.66781  Biso   1.000  O
  O2359    1.0000 0.35527  0.46469  0.66781  Biso   1.000  O
  O2360    1.0000 0.85527  0.78531  0.08219  Biso   1.000  O
  O2361    1.0000 0.60527  0.91781  0.53531  Biso   1.000  O
  O2362    1.0000 0.60527  0.83219  0.21469  Biso   1.000  O
  O2363    1.0000 0.64473  0.83219  0.03531  Biso   1.000  O
  O2364    1.0000 0.64473  0.91781  0.71469  Biso   1.000  O
  O2365    1.0000 0.58219  0.85527  0.28531  Biso   1.000  O
  O2366    1.0000 0.66781  0.85527  0.96469  Biso   1.000  O
  O2367    1.0000 0.66781  0.89473  0.78531  Biso   1.000  O
  O2368    1.0000 0.58219  0.89473  0.46469  Biso   1.000  O
  O2369    1.0000 0.41781  0.53531  0.10527  Biso   1.000  O
  O2370    1.0000 0.83219  0.21469  0.60527  Biso   1.000  O
  O2371    1.0000 0.41781  0.21469  0.64473  Biso   1.000  O
  O2372    1.0000 0.83219  0.53531  0.14473  Biso   1.000  O
  O2373    1.0000 0.96469  0.66781  0.85527  Biso   1.000  O
  O2374    1.0000 0.96469  0.08219  0.89473  Biso   1.000  O
  O2375    1.0000 0.28531  0.08219  0.35527  Biso   1.000  O
  O2376    1.0000 0.28531  0.66781  0.39473  Biso   1.000  O
  O2377    1.0000 0.03531  0.10527  0.91781  Biso   1.000  O
  O2378    1.0000 0.71469  0.60527  0.33219  Biso   1.000  O
  O2379    1.0000 0.71469  0.64473  0.91781  Biso   1.000  O
  O2380    1.0000 0.03531  0.14473  0.33219  Biso   1.000  O
  O2381    1.0000 0.39473  0.46469  0.08219  Biso   1.000  O
  O2382    1.0000 0.39473  0.78531  0.16781  Biso   1.000  O
  O2383    1.0000 0.35527  0.96469  0.16781  Biso   1.000  O
  O2384    1.0000 0.85527  0.28531  0.58219  Biso   1.000  O
  O2385    1.0000 0.10527  0.41781  0.53531  Biso   1.000  O
  O2386    1.0000 0.10527  0.33219  0.21469  Biso   1.000  O
  O2387    1.0000 0.14473  0.33219  0.03531  Biso   1.000  O
  O2388    1.0000 0.14473  0.41781  0.71469  Biso   1.000  O
  O2389    1.0000 0.08219  0.35527  0.28531  Biso   1.000  O
  O2390    1.0000 0.16781  0.35527  0.96469  Biso   1.000  O
  O2391    1.0000 0.16781  0.39473  0.78531  Biso   1.000  O
  O2392    1.0000 0.08219  0.39473  0.46469  Biso   1.000  O
  O2393    1.0000 0.91781  0.03531  0.10527  Biso   1.000  O
  O2394    1.0000 0.33219  0.71469  0.60527  Biso   1.000  O
  O2395    1.0000 0.91781  0.71469  0.64473  Biso   1.000  O
  O2396    1.0000 0.33219  0.03531  0.14473  Biso   1.000  O
  O2397    1.0000 0.46469  0.16781  0.85527  Biso   1.000  O
  O2398    1.0000 0.46469  0.58219  0.89473  Biso   1.000  O
  O2399    1.0000 0.78531  0.58219  0.35527  Biso   1.000  O
  O2400    1.0000 0.78531  0.16781  0.39473  Biso   1.000  O
  O2401    1.0000 0.53531  0.60527  0.91781  Biso   1.000  O
  O2402    1.0000 0.21469  0.10527  0.33219  Biso   1.000  O
  O2403    1.0000 0.21469  0.14473  0.91781  Biso   1.000  O
  O2404    1.0000 0.53531  0.64473  0.33219  Biso   1.000  O
  O2405    1.0000 0.89473  0.96469  0.08219  Biso   1.000  O
  O2406    1.0000 0.89473  0.28531  0.16781  Biso   1.000  O
  O2407    1.0000 0.85527  0.46469  0.16781  Biso   1.000  O
  O2408    1.0000 0.35527  0.78531  0.58219  Biso   1.000  O
  O2409    1.0000 0.10527  0.91781  0.03531  Biso   1.000  O
  O2410    1.0000 0.10527  0.83219  0.71469  Biso   1.000  O
  O2411    1.0000 0.14473  0.83219  0.53531  Biso   1.000  O
  O2412    1.0000 0.14473  0.91781  0.21469  Biso   1.000  O
  O2413    1.0000 0.08219  0.85527  0.78531  Biso   1.000  O
  O2414    1.0000 0.16781  0.85527  0.46469  Biso   1.000  O
  O2415    1.0000 0.16781  0.89473  0.28531  Biso   1.000  O
  O2416    1.0000 0.08219  0.89473  0.96469  Biso   1.000  O
  O2417    1.0000 0.91781  0.53531  0.60527  Biso   1.000  O
  O2418    1.0000 0.33219  0.21469  0.10527  Biso   1.000  O
  O2419    1.0000 0.91781  0.21469  0.14473  Biso   1.000  O
  O2420    1.0000 0.33219  0.53531  0.64473  Biso   1.000  O
  O2421    1.0000 0.46469  0.66781  0.35527  Biso   1.000  O
  O2422    1.0000 0.46469  0.08219  0.39473  Biso   1.000  O
  O2423    1.0000 0.78531  0.08219  0.85527  Biso   1.000  O
  O2424    1.0000 0.78531  0.66781  0.89473  Biso   1.000  O
  O2425    1.0000 0.53531  0.10527  0.41781  Biso   1.000  O
  O2426    1.0000 0.21469  0.60527  0.83219  Biso   1.000  O
  O2427    1.0000 0.21469  0.64473  0.41781  Biso   1.000  O
  O2428    1.0000 0.53531  0.14473  0.83219  Biso   1.000  O
  O2429    1.0000 0.89473  0.46469  0.58219  Biso   1.000  O
  O2430    1.0000 0.89473  0.78531  0.66781  Biso   1.000  O
  O2431    1.0000 0.85527  0.96469  0.66781  Biso   1.000  O
  O2432    1.0000 0.35527  0.28531  0.08219  Biso   1.000  O
  O2433    1.0000 0.40281  0.63058  0.99237  Biso   1.000  O
  O2434    1.0000 0.40281  0.61942  0.25763  Biso   1.000  O
  O2435    1.0000 0.34719  0.61942  0.49237  Biso   1.000  O
  O2436    1.0000 0.34719  0.63058  0.75763  Biso   1.000  O
  O2437    1.0000 0.36942  0.65281  0.24237  Biso   1.000  O
  O2438    1.0000 0.38058  0.65281  0.50763  Biso   1.000  O
  O2439    1.0000 0.38058  0.59719  0.74237  Biso   1.000  O
  O2440    1.0000 0.36942  0.59719  0.00763  Biso   1.000  O
  O2441    1.0000 0.63058  0.99237  0.40281  Biso   1.000  O
  O2442    1.0000 0.11942  0.25763  0.90281  Biso   1.000  O
  O2443    1.0000 0.63058  0.25763  0.84719  Biso   1.000  O
  O2444    1.0000 0.11942  0.99237  0.34719  Biso   1.000  O
  O2445    1.0000 0.00763  0.88058  0.65281  Biso   1.000  O
  O2446    1.0000 0.00763  0.36942  0.59719  Biso   1.000  O
  O2447    1.0000 0.74237  0.36942  0.15281  Biso   1.000  O
  O2448    1.0000 0.74237  0.88058  0.09719  Biso   1.000  O
  O2449    1.0000 0.99237  0.40281  0.63058  Biso   1.000  O
  O2450    1.0000 0.25763  0.90281  0.11942  Biso   1.000  O
  O2451    1.0000 0.25763  0.84719  0.63058  Biso   1.000  O
  O2452    1.0000 0.99237  0.34719  0.11942  Biso   1.000  O
  O2453    1.0000 0.59719  0.00763  0.36942  Biso   1.000  O
  O2454    1.0000 0.59719  0.74237  0.38058  Biso   1.000  O
  O2455    1.0000 0.65281  0.50763  0.38058  Biso   1.000  O
  O2456    1.0000 0.15281  0.24237  0.86942  Biso   1.000  O
  O2457    1.0000 0.40281  0.13058  0.49237  Biso   1.000  O
  O2458    1.0000 0.40281  0.11942  0.75763  Biso   1.000  O
  O2459    1.0000 0.34719  0.11942  0.99237  Biso   1.000  O
  O2460    1.0000 0.34719  0.13058  0.25763  Biso   1.000  O
  O2461    1.0000 0.36942  0.15281  0.74237  Biso   1.000  O
  O2462    1.0000 0.38058  0.15281  0.00763  Biso   1.000  O
  O2463    1.0000 0.38058  0.09719  0.24237  Biso   1.000  O
  O2464    1.0000 0.36942  0.09719  0.50763  Biso   1.000  O
  O2465    1.0000 0.63058  0.49237  0.90281  Biso   1.000  O
  O2466    1.0000 0.11942  0.75763  0.40281  Biso   1.000  O
  O2467    1.0000 0.63058  0.75763  0.34719  Biso   1.000  O
  O2468    1.0000 0.11942  0.49237  0.84719  Biso   1.000  O
  O2469    1.0000 0.00763  0.38058  0.15281  Biso   1.000  O
  O2470    1.0000 0.00763  0.86942  0.09719  Biso   1.000  O
  O2471    1.0000 0.74237  0.86942  0.65281  Biso   1.000  O
  O2472    1.0000 0.74237  0.38058  0.59719  Biso   1.000  O
  O2473    1.0000 0.99237  0.90281  0.13058  Biso   1.000  O
  O2474    1.0000 0.25763  0.40281  0.61942  Biso   1.000  O
  O2475    1.0000 0.25763  0.34719  0.13058  Biso   1.000  O
  O2476    1.0000 0.99237  0.84719  0.61942  Biso   1.000  O
  O2477    1.0000 0.59719  0.50763  0.86942  Biso   1.000  O
  O2478    1.0000 0.59719  0.24237  0.88058  Biso   1.000  O
  O2479    1.0000 0.65281  0.00763  0.88058  Biso   1.000  O
  O2480    1.0000 0.15281  0.74237  0.36942  Biso   1.000  O
  O2481    1.0000 0.90281  0.63058  0.49237  Biso   1.000  O
  O2482    1.0000 0.90281  0.61942  0.75763  Biso   1.000  O
  O2483    1.0000 0.84719  0.61942  0.99237  Biso   1.000  O
  O2484    1.0000 0.84719  0.63058  0.25763  Biso   1.000  O
  O2485    1.0000 0.86942  0.65281  0.74237  Biso   1.000  O
  O2486    1.0000 0.88058  0.65281  0.00763  Biso   1.000  O
  O2487    1.0000 0.88058  0.59719  0.24237  Biso   1.000  O
  O2488    1.0000 0.86942  0.59719  0.50763  Biso   1.000  O
  O2489    1.0000 0.13058  0.99237  0.90281  Biso   1.000  O
  O2490    1.0000 0.61942  0.25763  0.40281  Biso   1.000  O
  O2491    1.0000 0.13058  0.25763  0.34719  Biso   1.000  O
  O2492    1.0000 0.61942  0.99237  0.84719  Biso   1.000  O
  O2493    1.0000 0.50763  0.88058  0.15281  Biso   1.000  O
  O2494    1.0000 0.50763  0.36942  0.09719  Biso   1.000  O
  O2495    1.0000 0.24237  0.36942  0.65281  Biso   1.000  O
  O2496    1.0000 0.24237  0.88058  0.59719  Biso   1.000  O
  O2497    1.0000 0.49237  0.40281  0.13058  Biso   1.000  O
  O2498    1.0000 0.75763  0.90281  0.61942  Biso   1.000  O
  O2499    1.0000 0.75763  0.84719  0.13058  Biso   1.000  O
  O2500    1.0000 0.49237  0.34719  0.61942  Biso   1.000  O
  O2501    1.0000 0.09719  0.00763  0.86942  Biso   1.000  O
  O2502    1.0000 0.09719  0.74237  0.88058  Biso   1.000  O
  O2503    1.0000 0.15281  0.50763  0.88058  Biso   1.000  O
  O2504    1.0000 0.65281  0.24237  0.36942  Biso   1.000  O
  O2505    1.0000 0.90281  0.13058  0.99237  Biso   1.000  O
  O2506    1.0000 0.90281  0.11942  0.25763  Biso   1.000  O
  O2507    1.0000 0.84719  0.11942  0.49237  Biso   1.000  O
  O2508    1.0000 0.84719  0.13058  0.75763  Biso   1.000  O
  O2509    1.0000 0.86942  0.15281  0.24237  Biso   1.000  O
  O2510    1.0000 0.88058  0.15281  0.50763  Biso   1.000  O
  O2511    1.0000 0.88058  0.09719  0.74237  Biso   1.000  O
  O2512    1.0000 0.86942  0.09719  0.00763  Biso   1.000  O
  O2513    1.0000 0.13058  0.49237  0.40281  Biso   1.000  O
  O2514    1.0000 0.61942  0.75763  0.90281  Biso   1.000  O
  O2515    1.0000 0.13058  0.75763  0.84719  Biso   1.000  O
  O2516    1.0000 0.61942  0.49237  0.34719  Biso   1.000  O
  O2517    1.0000 0.50763  0.38058  0.65281  Biso   1.000  O
  O2518    1.0000 0.50763  0.86942  0.59719  Biso   1.000  O
  O2519    1.0000 0.24237  0.86942  0.15281  Biso   1.000  O
  O2520    1.0000 0.24237  0.38058  0.09719  Biso   1.000  O
  O2521    1.0000 0.49237  0.90281  0.63058  Biso   1.000  O
  O2522    1.0000 0.75763  0.40281  0.11942  Biso   1.000  O
  O2523    1.0000 0.75763  0.34719  0.63058  Biso   1.000  O
  O2524    1.0000 0.49237  0.84719  0.11942  Biso   1.000  O
  O2525    1.0000 0.09719  0.50763  0.36942  Biso   1.000  O
  O2526    1.0000 0.09719  0.24237  0.38058  Biso   1.000  O
  O2527    1.0000 0.15281  0.00763  0.38058  Biso   1.000  O
  O2528    1.0000 0.65281  0.74237  0.86942  Biso   1.000  O
  O2529    1.0000 0.59719  0.36942  0.00763  Biso   1.000  O
  O2530    1.0000 0.59719  0.38058  0.74237  Biso   1.000  O
  O2531    1.0000 0.65281  0.38058  0.50763  Biso   1.000  O
  O2532    1.0000 0.65281  0.36942  0.24237  Biso   1.000  O
  O2533    1.0000 0.63058  0.34719  0.75763  Biso   1.000  O
  O2534    1.0000 0.61942  0.34719  0.49237  Biso   1.000  O
  O2535    1.0000 0.61942  0.40281  0.25763  Biso   1.000  O
  O2536    1.0000 0.63058  0.40281  0.99237  Biso   1.000  O
  O2537    1.0000 0.36942  0.00763  0.59719  Biso   1.000  O
  O2538    1.0000 0.88058  0.74237  0.09719  Biso   1.000  O
  O2539    1.0000 0.36942  0.74237  0.15281  Biso   1.000  O
  O2540    1.0000 0.88058  0.00763  0.65281  Biso   1.000  O
  O2541    1.0000 0.99237  0.11942  0.34719  Biso   1.000  O
  O2542    1.0000 0.99237  0.63058  0.40281  Biso   1.000  O
  O2543    1.0000 0.25763  0.63058  0.84719  Biso   1.000  O
  O2544    1.0000 0.25763  0.11942  0.90281  Biso   1.000  O
  O2545    1.0000 0.00763  0.59719  0.36942  Biso   1.000  O
  O2546    1.0000 0.74237  0.09719  0.88058  Biso   1.000  O
  O2547    1.0000 0.74237  0.15281  0.36942  Biso   1.000  O
  O2548    1.0000 0.00763  0.65281  0.88058  Biso   1.000  O
  O2549    1.0000 0.40281  0.99237  0.63058  Biso   1.000  O
  O2550    1.0000 0.40281  0.25763  0.61942  Biso   1.000  O
  O2551    1.0000 0.34719  0.49237  0.61942  Biso   1.000  O
  O2552    1.0000 0.84719  0.75763  0.13058  Biso   1.000  O
  O2553    1.0000 0.59719  0.86942  0.50763  Biso   1.000  O
  O2554    1.0000 0.59719  0.88058  0.24237  Biso   1.000  O
  O2555    1.0000 0.65281  0.88058  0.00763  Biso   1.000  O
  O2556    1.0000 0.65281  0.86942  0.74237  Biso   1.000  O
  O2557    1.0000 0.63058  0.84719  0.25763  Biso   1.000  O
  O2558    1.0000 0.61942  0.84719  0.99237  Biso   1.000  O
  O2559    1.0000 0.61942  0.90281  0.75763  Biso   1.000  O
  O2560    1.0000 0.63058  0.90281  0.49237  Biso   1.000  O
  O2561    1.0000 0.36942  0.50763  0.09719  Biso   1.000  O
  O2562    1.0000 0.88058  0.24237  0.59719  Biso   1.000  O
  O2563    1.0000 0.36942  0.24237  0.65281  Biso   1.000  O
  O2564    1.0000 0.88058  0.50763  0.15281  Biso   1.000  O
  O2565    1.0000 0.99237  0.61942  0.84719  Biso   1.000  O
  O2566    1.0000 0.99237  0.13058  0.90281  Biso   1.000  O
  O2567    1.0000 0.25763  0.13058  0.34719  Biso   1.000  O
  O2568    1.0000 0.25763  0.61942  0.40281  Biso   1.000  O
  O2569    1.0000 0.00763  0.09719  0.86942  Biso   1.000  O
  O2570    1.0000 0.74237  0.59719  0.38058  Biso   1.000  O
  O2571    1.0000 0.74237  0.65281  0.86942  Biso   1.000  O
  O2572    1.0000 0.00763  0.15281  0.38058  Biso   1.000  O
  O2573    1.0000 0.40281  0.49237  0.13058  Biso   1.000  O
  O2574    1.0000 0.40281  0.75763  0.11942  Biso   1.000  O
  O2575    1.0000 0.34719  0.99237  0.11942  Biso   1.000  O
  O2576    1.0000 0.84719  0.25763  0.63058  Biso   1.000  O
  O2577    1.0000 0.09719  0.36942  0.50763  Biso   1.000  O
  O2578    1.0000 0.09719  0.38058  0.24237  Biso   1.000  O
  O2579    1.0000 0.15281  0.38058  0.00763  Biso   1.000  O
  O2580    1.0000 0.15281  0.36942  0.74237  Biso   1.000  O
  O2581    1.0000 0.13058  0.34719  0.25763  Biso   1.000  O
  O2582    1.0000 0.11942  0.34719  0.99237  Biso   1.000  O
  O2583    1.0000 0.11942  0.40281  0.75763  Biso   1.000  O
  O2584    1.0000 0.13058  0.40281  0.49237  Biso   1.000  O
  O2585    1.0000 0.86942  0.00763  0.09719  Biso   1.000  O
  O2586    1.0000 0.38058  0.74237  0.59719  Biso   1.000  O
  O2587    1.0000 0.86942  0.74237  0.65281  Biso   1.000  O
  O2588    1.0000 0.38058  0.00763  0.15281  Biso   1.000  O
  O2589    1.0000 0.49237  0.11942  0.84719  Biso   1.000  O
  O2590    1.0000 0.49237  0.63058  0.90281  Biso   1.000  O
  O2591    1.0000 0.75763  0.63058  0.34719  Biso   1.000  O
  O2592    1.0000 0.75763  0.11942  0.40281  Biso   1.000  O
  O2593    1.0000 0.50763  0.59719  0.86942  Biso   1.000  O
  O2594    1.0000 0.24237  0.09719  0.38058  Biso   1.000  O
  O2595    1.0000 0.24237  0.15281  0.86942  Biso   1.000  O
  O2596    1.0000 0.50763  0.65281  0.38058  Biso   1.000  O
  O2597    1.0000 0.90281  0.99237  0.13058  Biso   1.000  O
  O2598    1.0000 0.90281  0.25763  0.11942  Biso   1.000  O
  O2599    1.0000 0.84719  0.49237  0.11942  Biso   1.000  O
  O2600    1.0000 0.34719  0.75763  0.63058  Biso   1.000  O
  O2601    1.0000 0.09719  0.86942  0.00763  Biso   1.000  O
  O2602    1.0000 0.09719  0.88058  0.74237  Biso   1.000  O
  O2603    1.0000 0.15281  0.88058  0.50763  Biso   1.000  O
  O2604    1.0000 0.15281  0.86942  0.24237  Biso   1.000  O
  O2605    1.0000 0.13058  0.84719  0.75763  Biso   1.000  O
  O2606    1.0000 0.11942  0.84719  0.49237  Biso   1.000  O
  O2607    1.0000 0.11942  0.90281  0.25763  Biso   1.000  O
  O2608    1.0000 0.13058  0.90281  0.99237  Biso   1.000  O
  O2609    1.0000 0.86942  0.50763  0.59719  Biso   1.000  O
  O2610    1.0000 0.38058  0.24237  0.09719  Biso   1.000  O
  O2611    1.0000 0.86942  0.24237  0.15281  Biso   1.000  O
  O2612    1.0000 0.38058  0.50763  0.65281  Biso   1.000  O
  O2613    1.0000 0.49237  0.61942  0.34719  Biso   1.000  O
  O2614    1.0000 0.49237  0.13058  0.40281  Biso   1.000  O
  O2615    1.0000 0.75763  0.13058  0.84719  Biso   1.000  O
  O2616    1.0000 0.75763  0.61942  0.90281  Biso   1.000  O
  O2617    1.0000 0.50763  0.09719  0.36942  Biso   1.000  O
  O2618    1.0000 0.24237  0.59719  0.88058  Biso   1.000  O
  O2619    1.0000 0.24237  0.65281  0.36942  Biso   1.000  O
  O2620    1.0000 0.50763  0.15281  0.88058  Biso   1.000  O
  O2621    1.0000 0.90281  0.49237  0.63058  Biso   1.000  O
  O2622    1.0000 0.90281  0.75763  0.61942  Biso   1.000  O
  O2623    1.0000 0.84719  0.99237  0.61942  Biso   1.000  O
  O2624    1.0000 0.34719  0.25763  0.13058  Biso   1.000  O
  O2625    1.0000 0.37500  0.62900  0.87500  Biso   1.000  O
  O2626    1.0000 0.37500  0.62100  0.37500  Biso   1.000  O
  O2627    1.0000 0.37100  0.62500  0.12500  Biso   1.000  O
  O2628    1.0000 0.37900  0.62500  0.62500  Biso   1.000  O
  O2629    1.0000 0.62900  0.87500  0.37500  Biso   1.000  O
  O2630    1.0000 0.12100  0.37500  0.87500  Biso   1.000  O
  O2631    1.0000 0.62900  0.37500  0.87500  Biso   1.000  O
  O2632    1.0000 0.12100  0.87500  0.37500  Biso   1.000  O
  O2633    1.0000 0.12500  0.87900  0.62500  Biso   1.000  O
  O2634    1.0000 0.12500  0.37100  0.62500  Biso   1.000  O
  O2635    1.0000 0.62500  0.37100  0.12500  Biso   1.000  O
  O2636    1.0000 0.62500  0.87900  0.12500  Biso   1.000  O
  O2637    1.0000 0.87500  0.37500  0.62900  Biso   1.000  O
  O2638    1.0000 0.37500  0.87500  0.12100  Biso   1.000  O
  O2639    1.0000 0.37500  0.87500  0.62900  Biso   1.000  O
  O2640    1.0000 0.87500  0.37500  0.12100  Biso   1.000  O
  O2641    1.0000 0.62500  0.12500  0.37100  Biso   1.000  O
  O2642    1.0000 0.62500  0.62500  0.37900  Biso   1.000  O
  O2643    1.0000 0.12500  0.12500  0.87100  Biso   1.000  O
  O2644    1.0000 0.37500  0.12900  0.37500  Biso   1.000  O
  O2645    1.0000 0.37500  0.12100  0.87500  Biso   1.000  O
  O2646    1.0000 0.37100  0.12500  0.62500  Biso   1.000  O
  O2647    1.0000 0.37900  0.12500  0.12500  Biso   1.000  O
  O2648    1.0000 0.12500  0.37900  0.12500  Biso   1.000  O
  O2649    1.0000 0.12500  0.87100  0.12500  Biso   1.000  O
  O2650    1.0000 0.62500  0.87100  0.62500  Biso   1.000  O
  O2651    1.0000 0.62500  0.37900  0.62500  Biso   1.000  O
  O2652    1.0000 0.87500  0.87500  0.12900  Biso   1.000  O
  O2653    1.0000 0.37500  0.37500  0.62100  Biso   1.000  O
  O2654    1.0000 0.37500  0.37500  0.12900  Biso   1.000  O
  O2655    1.0000 0.87500  0.87500  0.62100  Biso   1.000  O
  O2656    1.0000 0.62500  0.62500  0.87100  Biso   1.000  O
  O2657    1.0000 0.62500  0.12500  0.87900  Biso   1.000  O
  O2658    1.0000 0.12500  0.62500  0.37100  Biso   1.000  O
  O2659    1.0000 0.87500  0.62900  0.37500  Biso   1.000  O
  O2660    1.0000 0.87500  0.62100  0.87500  Biso   1.000  O
  O2661    1.0000 0.87100  0.62500  0.62500  Biso   1.000  O
  O2662    1.0000 0.87900  0.62500  0.12500  Biso   1.000  O
  O2663    1.0000 0.12900  0.87500  0.87500  Biso   1.000  O
  O2664    1.0000 0.62100  0.37500  0.37500  Biso   1.000  O
  O2665    1.0000 0.12900  0.37500  0.37500  Biso   1.000  O
  O2666    1.0000 0.62100  0.87500  0.87500  Biso   1.000  O
  O2667    1.0000 0.12500  0.62500  0.87900  Biso   1.000  O
  O2668    1.0000 0.87500  0.12900  0.87500  Biso   1.000  O
  O2669    1.0000 0.87500  0.12100  0.37500  Biso   1.000  O
  O2670    1.0000 0.87100  0.12500  0.12500  Biso   1.000  O
  O2671    1.0000 0.87900  0.12500  0.62500  Biso   1.000  O
  O2672    1.0000 0.12500  0.12500  0.37900  Biso   1.000  O
  O2673    1.0000 0.40698  0.60180  0.84302  Biso   1.000  O
  O2674    1.0000 0.40698  0.64820  0.40698  Biso   1.000  O
  O2675    1.0000 0.34302  0.64820  0.34302  Biso   1.000  O
  O2676    1.0000 0.34302  0.60180  0.90698  Biso   1.000  O
  O2677    1.0000 0.39820  0.65698  0.09302  Biso   1.000  O
  O2678    1.0000 0.35180  0.65698  0.65698  Biso   1.000  O
  O2679    1.0000 0.35180  0.59302  0.59302  Biso   1.000  O
  O2680    1.0000 0.39820  0.59302  0.15698  Biso   1.000  O
  O2681    1.0000 0.60180  0.84302  0.40698  Biso   1.000  O
  O2682    1.0000 0.14820  0.40698  0.90698  Biso   1.000  O
  O2683    1.0000 0.60180  0.40698  0.84302  Biso   1.000  O
  O2684    1.0000 0.14820  0.84302  0.34302  Biso   1.000  O
  O2685    1.0000 0.15698  0.85180  0.65698  Biso   1.000  O
  O2686    1.0000 0.15698  0.39820  0.59302  Biso   1.000  O
  O2687    1.0000 0.59302  0.39820  0.15698  Biso   1.000  O
  O2688    1.0000 0.59302  0.85180  0.09302  Biso   1.000  O
  O2689    1.0000 0.84302  0.40698  0.60180  Biso   1.000  O
  O2690    1.0000 0.40698  0.90698  0.14820  Biso   1.000  O
  O2691    1.0000 0.40698  0.84302  0.60180  Biso   1.000  O
  O2692    1.0000 0.84302  0.34302  0.14820  Biso   1.000  O
  O2693    1.0000 0.59302  0.15698  0.39820  Biso   1.000  O
  O2694    1.0000 0.59302  0.59302  0.35180  Biso   1.000  O
  O2695    1.0000 0.65698  0.65698  0.35180  Biso   1.000  O
  O2696    1.0000 0.15698  0.09302  0.89820  Biso   1.000  O
  O2697    1.0000 0.40698  0.10180  0.34302  Biso   1.000  O
  O2698    1.0000 0.40698  0.14820  0.90698  Biso   1.000  O
  O2699    1.0000 0.34302  0.14820  0.84302  Biso   1.000  O
  O2700    1.0000 0.34302  0.10180  0.40698  Biso   1.000  O
  O2701    1.0000 0.39820  0.15698  0.59302  Biso   1.000  O
  O2702    1.0000 0.35180  0.15698  0.15698  Biso   1.000  O
  O2703    1.0000 0.35180  0.09302  0.09302  Biso   1.000  O
  O2704    1.0000 0.39820  0.09302  0.65698  Biso   1.000  O
  O2705    1.0000 0.60180  0.34302  0.90698  Biso   1.000  O
  O2706    1.0000 0.14820  0.90698  0.40698  Biso   1.000  O
  O2707    1.0000 0.60180  0.90698  0.34302  Biso   1.000  O
  O2708    1.0000 0.14820  0.34302  0.84302  Biso   1.000  O
  O2709    1.0000 0.15698  0.35180  0.15698  Biso   1.000  O
  O2710    1.0000 0.15698  0.89820  0.09302  Biso   1.000  O
  O2711    1.0000 0.59302  0.89820  0.65698  Biso   1.000  O
  O2712    1.0000 0.59302  0.35180  0.59302  Biso   1.000  O
  O2713    1.0000 0.84302  0.90698  0.10180  Biso   1.000  O
  O2714    1.0000 0.40698  0.40698  0.64820  Biso   1.000  O
  O2715    1.0000 0.40698  0.34302  0.10180  Biso   1.000  O
  O2716    1.0000 0.84302  0.84302  0.64820  Biso   1.000  O
  O2717    1.0000 0.59302  0.65698  0.89820  Biso   1.000  O
  O2718    1.0000 0.59302  0.09302  0.85180  Biso   1.000  O
  O2719    1.0000 0.65698  0.15698  0.85180  Biso   1.000  O
  O2720    1.0000 0.15698  0.59302  0.39820  Biso   1.000  O
  O2721    1.0000 0.90698  0.60180  0.34302  Biso   1.000  O
  O2722    1.0000 0.90698  0.64820  0.90698  Biso   1.000  O
  O2723    1.0000 0.84302  0.64820  0.84302  Biso   1.000  O
  O2724    1.0000 0.84302  0.60180  0.40698  Biso   1.000  O
  O2725    1.0000 0.89820  0.65698  0.59302  Biso   1.000  O
  O2726    1.0000 0.85180  0.65698  0.15698  Biso   1.000  O
  O2727    1.0000 0.85180  0.59302  0.09302  Biso   1.000  O
  O2728    1.0000 0.89820  0.59302  0.65698  Biso   1.000  O
  O2729    1.0000 0.10180  0.84302  0.90698  Biso   1.000  O
  O2730    1.0000 0.64820  0.40698  0.40698  Biso   1.000  O
  O2731    1.0000 0.10180  0.40698  0.34302  Biso   1.000  O
  O2732    1.0000 0.64820  0.84302  0.84302  Biso   1.000  O
  O2733    1.0000 0.65698  0.85180  0.15698  Biso   1.000  O
  O2734    1.0000 0.65698  0.39820  0.09302  Biso   1.000  O
  O2735    1.0000 0.09302  0.39820  0.65698  Biso   1.000  O
  O2736    1.0000 0.09302  0.85180  0.59302  Biso   1.000  O
  O2737    1.0000 0.34302  0.40698  0.10180  Biso   1.000  O
  O2738    1.0000 0.90698  0.90698  0.64820  Biso   1.000  O
  O2739    1.0000 0.90698  0.84302  0.10180  Biso   1.000  O
  O2740    1.0000 0.34302  0.34302  0.64820  Biso   1.000  O
  O2741    1.0000 0.09302  0.15698  0.89820  Biso   1.000  O
  O2742    1.0000 0.09302  0.59302  0.85180  Biso   1.000  O
  O2743    1.0000 0.15698  0.65698  0.85180  Biso   1.000  O
  O2744    1.0000 0.65698  0.09302  0.39820  Biso   1.000  O
  O2745    1.0000 0.90698  0.10180  0.84302  Biso   1.000  O
  O2746    1.0000 0.90698  0.14820  0.40698  Biso   1.000  O
  O2747    1.0000 0.84302  0.14820  0.34302  Biso   1.000  O
  O2748    1.0000 0.84302  0.10180  0.90698  Biso   1.000  O
  O2749    1.0000 0.89820  0.15698  0.09302  Biso   1.000  O
  O2750    1.0000 0.85180  0.15698  0.65698  Biso   1.000  O
  O2751    1.0000 0.85180  0.09302  0.59302  Biso   1.000  O
  O2752    1.0000 0.89820  0.09302  0.15698  Biso   1.000  O
  O2753    1.0000 0.10180  0.34302  0.40698  Biso   1.000  O
  O2754    1.0000 0.64820  0.90698  0.90698  Biso   1.000  O
  O2755    1.0000 0.10180  0.90698  0.84302  Biso   1.000  O
  O2756    1.0000 0.64820  0.34302  0.34302  Biso   1.000  O
  O2757    1.0000 0.65698  0.35180  0.65698  Biso   1.000  O
  O2758    1.0000 0.65698  0.89820  0.59302  Biso   1.000  O
  O2759    1.0000 0.09302  0.89820  0.15698  Biso   1.000  O
  O2760    1.0000 0.09302  0.35180  0.09302  Biso   1.000  O
  O2761    1.0000 0.34302  0.90698  0.60180  Biso   1.000  O
  O2762    1.0000 0.90698  0.40698  0.14820  Biso   1.000  O
  O2763    1.0000 0.90698  0.34302  0.60180  Biso   1.000  O
  O2764    1.0000 0.34302  0.84302  0.14820  Biso   1.000  O
  O2765    1.0000 0.09302  0.65698  0.39820  Biso   1.000  O
  O2766    1.0000 0.09302  0.09302  0.35180  Biso   1.000  O
  O2767    1.0000 0.15698  0.15698  0.35180  Biso   1.000  O
  O2768    1.0000 0.65698  0.59302  0.89820  Biso   1.000  O
  O2769    1.0000 0.36487  0.62994  0.91227  Biso   1.000  O
  O2770    1.0000 0.36487  0.62006  0.33773  Biso   1.000  O
  O2771    1.0000 0.38513  0.62006  0.41227  Biso   1.000  O
  O2772    1.0000 0.38513  0.62994  0.83773  Biso   1.000  O
  O2773    1.0000 0.37006  0.61487  0.16227  Biso   1.000  O
  O2774    1.0000 0.37994  0.61487  0.58773  Biso   1.000  O
  O2775    1.0000 0.37994  0.63513  0.66227  Biso   1.000  O
  O2776    1.0000 0.37006  0.63513  0.08773  Biso   1.000  O
  O2777    1.0000 0.62994  0.91227  0.36487  Biso   1.000  O
  O2778    1.0000 0.12006  0.33773  0.86487  Biso   1.000  O
  O2779    1.0000 0.62994  0.33773  0.88513  Biso   1.000  O
  O2780    1.0000 0.12006  0.91227  0.38513  Biso   1.000  O
  O2781    1.0000 0.08773  0.87994  0.61487  Biso   1.000  O
  O2782    1.0000 0.08773  0.37006  0.63513  Biso   1.000  O
  O2783    1.0000 0.66227  0.37006  0.11487  Biso   1.000  O
  O2784    1.0000 0.66227  0.87994  0.13513  Biso   1.000  O
  O2785    1.0000 0.91227  0.36487  0.62994  Biso   1.000  O
  O2786    1.0000 0.33773  0.86487  0.12006  Biso   1.000  O
  O2787    1.0000 0.33773  0.88513  0.62994  Biso   1.000  O
  O2788    1.0000 0.91227  0.38513  0.12006  Biso   1.000  O
  O2789    1.0000 0.63513  0.08773  0.37006  Biso   1.000  O
  O2790    1.0000 0.63513  0.66227  0.37994  Biso   1.000  O
  O2791    1.0000 0.61487  0.58773  0.37994  Biso   1.000  O
  O2792    1.0000 0.11487  0.16227  0.87006  Biso   1.000  O
  O2793    1.0000 0.36487  0.12994  0.41227  Biso   1.000  O
  O2794    1.0000 0.36487  0.12006  0.83773  Biso   1.000  O
  O2795    1.0000 0.38513  0.12006  0.91227  Biso   1.000  O
  O2796    1.0000 0.38513  0.12994  0.33773  Biso   1.000  O
  O2797    1.0000 0.37006  0.11487  0.66227  Biso   1.000  O
  O2798    1.0000 0.37994  0.11487  0.08773  Biso   1.000  O
  O2799    1.0000 0.37994  0.13513  0.16227  Biso   1.000  O
  O2800    1.0000 0.37006  0.13513  0.58773  Biso   1.000  O
  O2801    1.0000 0.62994  0.41227  0.86487  Biso   1.000  O
  O2802    1.0000 0.12006  0.83773  0.36487  Biso   1.000  O
  O2803    1.0000 0.62994  0.83773  0.38513  Biso   1.000  O
  O2804    1.0000 0.12006  0.41227  0.88513  Biso   1.000  O
  O2805    1.0000 0.08773  0.37994  0.11487  Biso   1.000  O
  O2806    1.0000 0.08773  0.87006  0.13513  Biso   1.000  O
  O2807    1.0000 0.66227  0.87006  0.61487  Biso   1.000  O
  O2808    1.0000 0.66227  0.37994  0.63513  Biso   1.000  O
  O2809    1.0000 0.91227  0.86487  0.12994  Biso   1.000  O
  O2810    1.0000 0.33773  0.36487  0.62006  Biso   1.000  O
  O2811    1.0000 0.33773  0.38513  0.12994  Biso   1.000  O
  O2812    1.0000 0.91227  0.88513  0.62006  Biso   1.000  O
  O2813    1.0000 0.63513  0.58773  0.87006  Biso   1.000  O
  O2814    1.0000 0.63513  0.16227  0.87994  Biso   1.000  O
  O2815    1.0000 0.61487  0.08773  0.87994  Biso   1.000  O
  O2816    1.0000 0.11487  0.66227  0.37006  Biso   1.000  O
  O2817    1.0000 0.86487  0.62994  0.41227  Biso   1.000  O
  O2818    1.0000 0.86487  0.62006  0.83773  Biso   1.000  O
  O2819    1.0000 0.88513  0.62006  0.91227  Biso   1.000  O
  O2820    1.0000 0.88513  0.62994  0.33773  Biso   1.000  O
  O2821    1.0000 0.87006  0.61487  0.66227  Biso   1.000  O
  O2822    1.0000 0.87994  0.61487  0.08773  Biso   1.000  O
  O2823    1.0000 0.87994  0.63513  0.16227  Biso   1.000  O
  O2824    1.0000 0.87006  0.63513  0.58773  Biso   1.000  O
  O2825    1.0000 0.12994  0.91227  0.86487  Biso   1.000  O
  O2826    1.0000 0.62006  0.33773  0.36487  Biso   1.000  O
  O2827    1.0000 0.12994  0.33773  0.38513  Biso   1.000  O
  O2828    1.0000 0.62006  0.91227  0.88513  Biso   1.000  O
  O2829    1.0000 0.58773  0.87994  0.11487  Biso   1.000  O
  O2830    1.0000 0.58773  0.37006  0.13513  Biso   1.000  O
  O2831    1.0000 0.16227  0.37006  0.61487  Biso   1.000  O
  O2832    1.0000 0.16227  0.87994  0.63513  Biso   1.000  O
  O2833    1.0000 0.41227  0.36487  0.12994  Biso   1.000  O
  O2834    1.0000 0.83773  0.86487  0.62006  Biso   1.000  O
  O2835    1.0000 0.83773  0.88513  0.12994  Biso   1.000  O
  O2836    1.0000 0.41227  0.38513  0.62006  Biso   1.000  O
  O2837    1.0000 0.13513  0.08773  0.87006  Biso   1.000  O
  O2838    1.0000 0.13513  0.66227  0.87994  Biso   1.000  O
  O2839    1.0000 0.11487  0.58773  0.87994  Biso   1.000  O
  O2840    1.0000 0.61487  0.16227  0.37006  Biso   1.000  O
  O2841    1.0000 0.86487  0.12994  0.91227  Biso   1.000  O
  O2842    1.0000 0.86487  0.12006  0.33773  Biso   1.000  O
  O2843    1.0000 0.88513  0.12006  0.41227  Biso   1.000  O
  O2844    1.0000 0.88513  0.12994  0.83773  Biso   1.000  O
  O2845    1.0000 0.87006  0.11487  0.16227  Biso   1.000  O
  O2846    1.0000 0.87994  0.11487  0.58773  Biso   1.000  O
  O2847    1.0000 0.87994  0.13513  0.66227  Biso   1.000  O
  O2848    1.0000 0.87006  0.13513  0.08773  Biso   1.000  O
  O2849    1.0000 0.12994  0.41227  0.36487  Biso   1.000  O
  O2850    1.0000 0.62006  0.83773  0.86487  Biso   1.000  O
  O2851    1.0000 0.12994  0.83773  0.88513  Biso   1.000  O
  O2852    1.0000 0.62006  0.41227  0.38513  Biso   1.000  O
  O2853    1.0000 0.58773  0.37994  0.61487  Biso   1.000  O
  O2854    1.0000 0.58773  0.87006  0.63513  Biso   1.000  O
  O2855    1.0000 0.16227  0.87006  0.11487  Biso   1.000  O
  O2856    1.0000 0.16227  0.37994  0.13513  Biso   1.000  O
  O2857    1.0000 0.41227  0.86487  0.62994  Biso   1.000  O
  O2858    1.0000 0.83773  0.36487  0.12006  Biso   1.000  O
  O2859    1.0000 0.83773  0.38513  0.62994  Biso   1.000  O
  O2860    1.0000 0.41227  0.88513  0.12006  Biso   1.000  O
  O2861    1.0000 0.13513  0.58773  0.37006  Biso   1.000  O
  O2862    1.0000 0.13513  0.16227  0.37994  Biso   1.000  O
  O2863    1.0000 0.11487  0.08773  0.37994  Biso   1.000  O
  O2864    1.0000 0.61487  0.66227  0.87006  Biso   1.000  O
  O2865    1.0000 0.63513  0.37006  0.08773  Biso   1.000  O
  O2866    1.0000 0.63513  0.37994  0.66227  Biso   1.000  O
  O2867    1.0000 0.61487  0.37994  0.58773  Biso   1.000  O
  O2868    1.0000 0.61487  0.37006  0.16227  Biso   1.000  O
  O2869    1.0000 0.62994  0.38513  0.83773  Biso   1.000  O
  O2870    1.0000 0.62006  0.38513  0.41227  Biso   1.000  O
  O2871    1.0000 0.62006  0.36487  0.33773  Biso   1.000  O
  O2872    1.0000 0.62994  0.36487  0.91227  Biso   1.000  O
  O2873    1.0000 0.37006  0.08773  0.63513  Biso   1.000  O
  O2874    1.0000 0.87994  0.66227  0.13513  Biso   1.000  O
  O2875    1.0000 0.37006  0.66227  0.11487  Biso   1.000  O
  O2876    1.0000 0.87994  0.08773  0.61487  Biso   1.000  O
  O2877    1.0000 0.91227  0.12006  0.38513  Biso   1.000  O
  O2878    1.0000 0.91227  0.62994  0.36487  Biso   1.000  O
  O2879    1.0000 0.33773  0.62994  0.88513  Biso   1.000  O
  O2880    1.0000 0.33773  0.12006  0.86487  Biso   1.000  O
  O2881    1.0000 0.08773  0.63513  0.37006  Biso   1.000  O
  O2882    1.0000 0.66227  0.13513  0.87994  Biso   1.000  O
  O2883    1.0000 0.66227  0.11487  0.37006  Biso   1.000  O
  O2884    1.0000 0.08773  0.61487  0.87994  Biso   1.000  O
  O2885    1.0000 0.36487  0.91227  0.62994  Biso   1.000  O
  O2886    1.0000 0.36487  0.33773  0.62006  Biso   1.000  O
  O2887    1.0000 0.38513  0.41227  0.62006  Biso   1.000  O
  O2888    1.0000 0.88513  0.83773  0.12994  Biso   1.000  O
  O2889    1.0000 0.63513  0.87006  0.58773  Biso   1.000  O
  O2890    1.0000 0.63513  0.87994  0.16227  Biso   1.000  O
  O2891    1.0000 0.61487  0.87994  0.08773  Biso   1.000  O
  O2892    1.0000 0.61487  0.87006  0.66227  Biso   1.000  O
  O2893    1.0000 0.62994  0.88513  0.33773  Biso   1.000  O
  O2894    1.0000 0.62006  0.88513  0.91227  Biso   1.000  O
  O2895    1.0000 0.62006  0.86487  0.83773  Biso   1.000  O
  O2896    1.0000 0.62994  0.86487  0.41227  Biso   1.000  O
  O2897    1.0000 0.37006  0.58773  0.13513  Biso   1.000  O
  O2898    1.0000 0.87994  0.16227  0.63513  Biso   1.000  O
  O2899    1.0000 0.37006  0.16227  0.61487  Biso   1.000  O
  O2900    1.0000 0.87994  0.58773  0.11487  Biso   1.000  O
  O2901    1.0000 0.91227  0.62006  0.88513  Biso   1.000  O
  O2902    1.0000 0.91227  0.12994  0.86487  Biso   1.000  O
  O2903    1.0000 0.33773  0.12994  0.38513  Biso   1.000  O
  O2904    1.0000 0.33773  0.62006  0.36487  Biso   1.000  O
  O2905    1.0000 0.08773  0.13513  0.87006  Biso   1.000  O
  O2906    1.0000 0.66227  0.63513  0.37994  Biso   1.000  O
  O2907    1.0000 0.66227  0.61487  0.87006  Biso   1.000  O
  O2908    1.0000 0.08773  0.11487  0.37994  Biso   1.000  O
  O2909    1.0000 0.36487  0.41227  0.12994  Biso   1.000  O
  O2910    1.0000 0.36487  0.83773  0.12006  Biso   1.000  O
  O2911    1.0000 0.38513  0.91227  0.12006  Biso   1.000  O
  O2912    1.0000 0.88513  0.33773  0.62994  Biso   1.000  O
  O2913    1.0000 0.13513  0.37006  0.58773  Biso   1.000  O
  O2914    1.0000 0.13513  0.37994  0.16227  Biso   1.000  O
  O2915    1.0000 0.11487  0.37994  0.08773  Biso   1.000  O
  O2916    1.0000 0.11487  0.37006  0.66227  Biso   1.000  O
  O2917    1.0000 0.12994  0.38513  0.33773  Biso   1.000  O
  O2918    1.0000 0.12006  0.38513  0.91227  Biso   1.000  O
  O2919    1.0000 0.12006  0.36487  0.83773  Biso   1.000  O
  O2920    1.0000 0.12994  0.36487  0.41227  Biso   1.000  O
  O2921    1.0000 0.87006  0.08773  0.13513  Biso   1.000  O
  O2922    1.0000 0.37994  0.66227  0.63513  Biso   1.000  O
  O2923    1.0000 0.87006  0.66227  0.61487  Biso   1.000  O
  O2924    1.0000 0.37994  0.08773  0.11487  Biso   1.000  O
  O2925    1.0000 0.41227  0.12006  0.88513  Biso   1.000  O
  O2926    1.0000 0.41227  0.62994  0.86487  Biso   1.000  O
  O2927    1.0000 0.83773  0.62994  0.38513  Biso   1.000  O
  O2928    1.0000 0.83773  0.12006  0.36487  Biso   1.000  O
  O2929    1.0000 0.58773  0.63513  0.87006  Biso   1.000  O
  O2930    1.0000 0.16227  0.13513  0.37994  Biso   1.000  O
  O2931    1.0000 0.16227  0.11487  0.87006  Biso   1.000  O
  O2932    1.0000 0.58773  0.61487  0.37994  Biso   1.000  O
  O2933    1.0000 0.86487  0.91227  0.12994  Biso   1.000  O
  O2934    1.0000 0.86487  0.33773  0.12006  Biso   1.000  O
  O2935    1.0000 0.88513  0.41227  0.12006  Biso   1.000  O
  O2936    1.0000 0.38513  0.83773  0.62994  Biso   1.000  O
  O2937    1.0000 0.13513  0.87006  0.08773  Biso   1.000  O
  O2938    1.0000 0.13513  0.87994  0.66227  Biso   1.000  O
  O2939    1.0000 0.11487  0.87994  0.58773  Biso   1.000  O
  O2940    1.0000 0.11487  0.87006  0.16227  Biso   1.000  O
  O2941    1.0000 0.12994  0.88513  0.83773  Biso   1.000  O
  O2942    1.0000 0.12006  0.88513  0.41227  Biso   1.000  O
  O2943    1.0000 0.12006  0.86487  0.33773  Biso   1.000  O
  O2944    1.0000 0.12994  0.86487  0.91227  Biso   1.000  O
  O2945    1.0000 0.87006  0.58773  0.63513  Biso   1.000  O
  O2946    1.0000 0.37994  0.16227  0.13513  Biso   1.000  O
  O2947    1.0000 0.87006  0.16227  0.11487  Biso   1.000  O
  O2948    1.0000 0.37994  0.58773  0.61487  Biso   1.000  O
  O2949    1.0000 0.41227  0.62006  0.38513  Biso   1.000  O
  O2950    1.0000 0.41227  0.12994  0.36487  Biso   1.000  O
  O2951    1.0000 0.83773  0.12994  0.88513  Biso   1.000  O
  O2952    1.0000 0.83773  0.62006  0.86487  Biso   1.000  O
  O2953    1.0000 0.58773  0.13513  0.37006  Biso   1.000  O
  O2954    1.0000 0.16227  0.63513  0.87994  Biso   1.000  O
  O2955    1.0000 0.16227  0.61487  0.37006  Biso   1.000  O
  O2956    1.0000 0.58773  0.11487  0.87994  Biso   1.000  O
  O2957    1.0000 0.86487  0.41227  0.62994  Biso   1.000  O
  O2958    1.0000 0.86487  0.83773  0.62006  Biso   1.000  O
  O2959    1.0000 0.88513  0.91227  0.62006  Biso   1.000  O
  O2960    1.0000 0.38513  0.33773  0.12994  Biso   1.000  O
  O2961    1.0000 0.39992  0.59911  0.87808  Biso   1.000  O
  O2962    1.0000 0.39992  0.65089  0.37192  Biso   1.000  O
  O2963    1.0000 0.35008  0.65089  0.37808  Biso   1.000  O
  O2964    1.0000 0.35008  0.59911  0.87192  Biso   1.000  O
  O2965    1.0000 0.40089  0.64992  0.12808  Biso   1.000  O
  O2966    1.0000 0.34911  0.64992  0.62192  Biso   1.000  O
  O2967    1.0000 0.34911  0.60008  0.62808  Biso   1.000  O
  O2968    1.0000 0.40089  0.60008  0.12192  Biso   1.000  O
  O2969    1.0000 0.59911  0.87808  0.39992  Biso   1.000  O
  O2970    1.0000 0.15089  0.37192  0.89992  Biso   1.000  O
  O2971    1.0000 0.59911  0.37192  0.85008  Biso   1.000  O
  O2972    1.0000 0.15089  0.87808  0.35008  Biso   1.000  O
  O2973    1.0000 0.12192  0.84911  0.64992  Biso   1.000  O
  O2974    1.0000 0.12192  0.40089  0.60008  Biso   1.000  O
  O2975    1.0000 0.62808  0.40089  0.14992  Biso   1.000  O
  O2976    1.0000 0.62808  0.84911  0.10008  Biso   1.000  O
  O2977    1.0000 0.87808  0.39992  0.59911  Biso   1.000  O
  O2978    1.0000 0.37192  0.89992  0.15089  Biso   1.000  O
  O2979    1.0000 0.37192  0.85008  0.59911  Biso   1.000  O
  O2980    1.0000 0.87808  0.35008  0.15089  Biso   1.000  O
  O2981    1.0000 0.60008  0.12192  0.40089  Biso   1.000  O
  O2982    1.0000 0.60008  0.62808  0.34911  Biso   1.000  O
  O2983    1.0000 0.64992  0.62192  0.34911  Biso   1.000  O
  O2984    1.0000 0.14992  0.12808  0.90089  Biso   1.000  O
  O2985    1.0000 0.39992  0.09911  0.37808  Biso   1.000  O
  O2986    1.0000 0.39992  0.15089  0.87192  Biso   1.000  O
  O2987    1.0000 0.35008  0.15089  0.87808  Biso   1.000  O
  O2988    1.0000 0.35008  0.09911  0.37192  Biso   1.000  O
  O2989    1.0000 0.40089  0.14992  0.62808  Biso   1.000  O
  O2990    1.0000 0.34911  0.14992  0.12192  Biso   1.000  O
  O2991    1.0000 0.34911  0.10008  0.12808  Biso   1.000  O
  O2992    1.0000 0.40089  0.10008  0.62192  Biso   1.000  O
  O2993    1.0000 0.59911  0.37808  0.89992  Biso   1.000  O
  O2994    1.0000 0.15089  0.87192  0.39992  Biso   1.000  O
  O2995    1.0000 0.59911  0.87192  0.35008  Biso   1.000  O
  O2996    1.0000 0.15089  0.37808  0.85008  Biso   1.000  O
  O2997    1.0000 0.12192  0.34911  0.14992  Biso   1.000  O
  O2998    1.0000 0.12192  0.90089  0.10008  Biso   1.000  O
  O2999    1.0000 0.62808  0.90089  0.64992  Biso   1.000  O
  O3000    1.0000 0.62808  0.34911  0.60008  Biso   1.000  O
  O3001    1.0000 0.87808  0.89992  0.09911  Biso   1.000  O
  O3002    1.0000 0.37192  0.39992  0.65089  Biso   1.000  O
  O3003    1.0000 0.37192  0.35008  0.09911  Biso   1.000  O
  O3004    1.0000 0.87808  0.85008  0.65089  Biso   1.000  O
  O3005    1.0000 0.60008  0.62192  0.90089  Biso   1.000  O
  O3006    1.0000 0.60008  0.12808  0.84911  Biso   1.000  O
  O3007    1.0000 0.64992  0.12192  0.84911  Biso   1.000  O
  O3008    1.0000 0.14992  0.62808  0.40089  Biso   1.000  O
  O3009    1.0000 0.89992  0.59911  0.37808  Biso   1.000  O
  O3010    1.0000 0.89992  0.65089  0.87192  Biso   1.000  O
  O3011    1.0000 0.85008  0.65089  0.87808  Biso   1.000  O
  O3012    1.0000 0.85008  0.59911  0.37192  Biso   1.000  O
  O3013    1.0000 0.90089  0.64992  0.62808  Biso   1.000  O
  O3014    1.0000 0.84911  0.64992  0.12192  Biso   1.000  O
  O3015    1.0000 0.84911  0.60008  0.12808  Biso   1.000  O
  O3016    1.0000 0.90089  0.60008  0.62192  Biso   1.000  O
  O3017    1.0000 0.09911  0.87808  0.89992  Biso   1.000  O
  O3018    1.0000 0.65089  0.37192  0.39992  Biso   1.000  O
  O3019    1.0000 0.09911  0.37192  0.35008  Biso   1.000  O
  O3020    1.0000 0.65089  0.87808  0.85008  Biso   1.000  O
  O3021    1.0000 0.62192  0.84911  0.14992  Biso   1.000  O
  O3022    1.0000 0.62192  0.40089  0.10008  Biso   1.000  O
  O3023    1.0000 0.12808  0.40089  0.64992  Biso   1.000  O
  O3024    1.0000 0.12808  0.84911  0.60008  Biso   1.000  O
  O3025    1.0000 0.37808  0.39992  0.09911  Biso   1.000  O
  O3026    1.0000 0.87192  0.89992  0.65089  Biso   1.000  O
  O3027    1.0000 0.87192  0.85008  0.09911  Biso   1.000  O
  O3028    1.0000 0.37808  0.35008  0.65089  Biso   1.000  O
  O3029    1.0000 0.10008  0.12192  0.90089  Biso   1.000  O
  O3030    1.0000 0.10008  0.62808  0.84911  Biso   1.000  O
  O3031    1.0000 0.14992  0.62192  0.84911  Biso   1.000  O
  O3032    1.0000 0.64992  0.12808  0.40089  Biso   1.000  O
  O3033    1.0000 0.89992  0.09911  0.87808  Biso   1.000  O
  O3034    1.0000 0.89992  0.15089  0.37192  Biso   1.000  O
  O3035    1.0000 0.85008  0.15089  0.37808  Biso   1.000  O
  O3036    1.0000 0.85008  0.09911  0.87192  Biso   1.000  O
  O3037    1.0000 0.90089  0.14992  0.12808  Biso   1.000  O
  O3038    1.0000 0.84911  0.14992  0.62192  Biso   1.000  O
  O3039    1.0000 0.84911  0.10008  0.62808  Biso   1.000  O
  O3040    1.0000 0.90089  0.10008  0.12192  Biso   1.000  O
  O3041    1.0000 0.09911  0.37808  0.39992  Biso   1.000  O
  O3042    1.0000 0.65089  0.87192  0.89992  Biso   1.000  O
  O3043    1.0000 0.09911  0.87192  0.85008  Biso   1.000  O
  O3044    1.0000 0.65089  0.37808  0.35008  Biso   1.000  O
  O3045    1.0000 0.62192  0.34911  0.64992  Biso   1.000  O
  O3046    1.0000 0.62192  0.90089  0.60008  Biso   1.000  O
  O3047    1.0000 0.12808  0.90089  0.14992  Biso   1.000  O
  O3048    1.0000 0.12808  0.34911  0.10008  Biso   1.000  O
  O3049    1.0000 0.37808  0.89992  0.59911  Biso   1.000  O
  O3050    1.0000 0.87192  0.39992  0.15089  Biso   1.000  O
  O3051    1.0000 0.87192  0.35008  0.59911  Biso   1.000  O
  O3052    1.0000 0.37808  0.85008  0.15089  Biso   1.000  O
  O3053    1.0000 0.10008  0.62192  0.40089  Biso   1.000  O
  O3054    1.0000 0.10008  0.12808  0.34911  Biso   1.000  O
  O3055    1.0000 0.14992  0.12192  0.34911  Biso   1.000  O
  O3056    1.0000 0.64992  0.62808  0.90089  Biso   1.000  O
  O3057    1.0000 0.60008  0.40089  0.12192  Biso   1.000  O
  O3058    1.0000 0.60008  0.34911  0.62808  Biso   1.000  O
  O3059    1.0000 0.64992  0.34911  0.62192  Biso   1.000  O
  O3060    1.0000 0.64992  0.40089  0.12808  Biso   1.000  O
  O3061    1.0000 0.59911  0.35008  0.87192  Biso   1.000  O
  O3062    1.0000 0.65089  0.35008  0.37808  Biso   1.000  O
  O3063    1.0000 0.65089  0.39992  0.37192  Biso   1.000  O
  O3064    1.0000 0.59911  0.39992  0.87808  Biso   1.000  O
  O3065    1.0000 0.40089  0.12192  0.60008  Biso   1.000  O
  O3066    1.0000 0.84911  0.62808  0.10008  Biso   1.000  O
  O3067    1.0000 0.40089  0.62808  0.14992  Biso   1.000  O
  O3068    1.0000 0.84911  0.12192  0.64992  Biso   1.000  O
  O3069    1.0000 0.87808  0.15089  0.35008  Biso   1.000  O
  O3070    1.0000 0.87808  0.59911  0.39992  Biso   1.000  O
  O3071    1.0000 0.37192  0.59911  0.85008  Biso   1.000  O
  O3072    1.0000 0.37192  0.15089  0.89992  Biso   1.000  O
  O3073    1.0000 0.12192  0.60008  0.40089  Biso   1.000  O
  O3074    1.0000 0.62808  0.10008  0.84911  Biso   1.000  O
  O3075    1.0000 0.62808  0.14992  0.40089  Biso   1.000  O
  O3076    1.0000 0.12192  0.64992  0.84911  Biso   1.000  O
  O3077    1.0000 0.39992  0.87808  0.59911  Biso   1.000  O
  O3078    1.0000 0.39992  0.37192  0.65089  Biso   1.000  O
  O3079    1.0000 0.35008  0.37808  0.65089  Biso   1.000  O
  O3080    1.0000 0.85008  0.87192  0.09911  Biso   1.000  O
  O3081    1.0000 0.60008  0.90089  0.62192  Biso   1.000  O
  O3082    1.0000 0.60008  0.84911  0.12808  Biso   1.000  O
  O3083    1.0000 0.64992  0.84911  0.12192  Biso   1.000  O
  O3084    1.0000 0.64992  0.90089  0.62808  Biso   1.000  O
  O3085    1.0000 0.59911  0.85008  0.37192  Biso   1.000  O
  O3086    1.0000 0.65089  0.85008  0.87808  Biso   1.000  O
  O3087    1.0000 0.65089  0.89992  0.87192  Biso   1.000  O
  O3088    1.0000 0.59911  0.89992  0.37808  Biso   1.000  O
  O3089    1.0000 0.40089  0.62192  0.10008  Biso   1.000  O
  O3090    1.0000 0.84911  0.12808  0.60008  Biso   1.000  O
  O3091    1.0000 0.40089  0.12808  0.64992  Biso   1.000  O
  O3092    1.0000 0.84911  0.62192  0.14992  Biso   1.000  O
  O3093    1.0000 0.87808  0.65089  0.85008  Biso   1.000  O
  O3094    1.0000 0.87808  0.09911  0.89992  Biso   1.000  O
  O3095    1.0000 0.37192  0.09911  0.35008  Biso   1.000  O
  O3096    1.0000 0.37192  0.65089  0.39992  Biso   1.000  O
  O3097    1.0000 0.12192  0.10008  0.90089  Biso   1.000  O
  O3098    1.0000 0.62808  0.60008  0.34911  Biso   1.000  O
  O3099    1.0000 0.62808  0.64992  0.90089  Biso   1.000  O
  O3100    1.0000 0.12192  0.14992  0.34911  Biso   1.000  O
  O3101    1.0000 0.39992  0.37808  0.09911  Biso   1.000  O
  O3102    1.0000 0.39992  0.87192  0.15089  Biso   1.000  O
  O3103    1.0000 0.35008  0.87808  0.15089  Biso   1.000  O
  O3104    1.0000 0.85008  0.37192  0.59911  Biso   1.000  O
  O3105    1.0000 0.10008  0.40089  0.62192  Biso   1.000  O
  O3106    1.0000 0.10008  0.34911  0.12808  Biso   1.000  O
  O3107    1.0000 0.14992  0.34911  0.12192  Biso   1.000  O
  O3108    1.0000 0.14992  0.40089  0.62808  Biso   1.000  O
  O3109    1.0000 0.09911  0.35008  0.37192  Biso   1.000  O
  O3110    1.0000 0.15089  0.35008  0.87808  Biso   1.000  O
  O3111    1.0000 0.15089  0.39992  0.87192  Biso   1.000  O
  O3112    1.0000 0.09911  0.39992  0.37808  Biso   1.000  O
  O3113    1.0000 0.90089  0.12192  0.10008  Biso   1.000  O
  O3114    1.0000 0.34911  0.62808  0.60008  Biso   1.000  O
  O3115    1.0000 0.90089  0.62808  0.64992  Biso   1.000  O
  O3116    1.0000 0.34911  0.12192  0.14992  Biso   1.000  O
  O3117    1.0000 0.37808  0.15089  0.85008  Biso   1.000  O
  O3118    1.0000 0.37808  0.59911  0.89992  Biso   1.000  O
  O3119    1.0000 0.87192  0.59911  0.35008  Biso   1.000  O
  O3120    1.0000 0.87192  0.15089  0.39992  Biso   1.000  O
  O3121    1.0000 0.62192  0.60008  0.90089  Biso   1.000  O
  O3122    1.0000 0.12808  0.10008  0.34911  Biso   1.000  O
  O3123    1.0000 0.12808  0.14992  0.90089  Biso   1.000  O
  O3124    1.0000 0.62192  0.64992  0.34911  Biso   1.000  O
  O3125    1.0000 0.89992  0.87808  0.09911  Biso   1.000  O
  O3126    1.0000 0.89992  0.37192  0.15089  Biso   1.000  O
  O3127    1.0000 0.85008  0.37808  0.15089  Biso   1.000  O
  O3128    1.0000 0.35008  0.87192  0.59911  Biso   1.000  O
  O3129    1.0000 0.10008  0.90089  0.12192  Biso   1.000  O
  O3130    1.0000 0.10008  0.84911  0.62808  Biso   1.000  O
  O3131    1.0000 0.14992  0.84911  0.62192  Biso   1.000  O
  O3132    1.0000 0.14992  0.90089  0.12808  Biso   1.000  O
  O3133    1.0000 0.09911  0.85008  0.87192  Biso   1.000  O
  O3134    1.0000 0.15089  0.85008  0.37808  Biso   1.000  O
  O3135    1.0000 0.15089  0.89992  0.37192  Biso   1.000  O
  O3136    1.0000 0.09911  0.89992  0.87808  Biso   1.000  O
  O3137    1.0000 0.90089  0.62192  0.60008  Biso   1.000  O
  O3138    1.0000 0.34911  0.12808  0.10008  Biso   1.000  O
  O3139    1.0000 0.90089  0.12808  0.14992  Biso   1.000  O
  O3140    1.0000 0.34911  0.62192  0.64992  Biso   1.000  O
  O3141    1.0000 0.37808  0.65089  0.35008  Biso   1.000  O
  O3142    1.0000 0.37808  0.09911  0.39992  Biso   1.000  O
  O3143    1.0000 0.87192  0.09911  0.85008  Biso   1.000  O
  O3144    1.0000 0.87192  0.65089  0.89992  Biso   1.000  O
  O3145    1.0000 0.62192  0.10008  0.40089  Biso   1.000  O
  O3146    1.0000 0.12808  0.60008  0.84911  Biso   1.000  O
  O3147    1.0000 0.12808  0.64992  0.40089  Biso   1.000  O
  O3148    1.0000 0.62192  0.14992  0.84911  Biso   1.000  O
  O3149    1.0000 0.89992  0.37808  0.59911  Biso   1.000  O
  O3150    1.0000 0.89992  0.87192  0.65089  Biso   1.000  O
  O3151    1.0000 0.85008  0.87808  0.65089  Biso   1.000  O
  O3152    1.0000 0.35008  0.37192  0.09911  Biso   1.000  O
  O3153    1.0000 0.42263  0.57143  0.97254  Biso   1.000  O
  O3154    1.0000 0.42263  0.67857  0.27746  Biso   1.000  O
  O3155    1.0000 0.32737  0.67857  0.47254  Biso   1.000  O
  O3156    1.0000 0.32737  0.57143  0.77746  Biso   1.000  O
  O3157    1.0000 0.42857  0.67263  0.22254  Biso   1.000  O
  O3158    1.0000 0.32143  0.67263  0.52746  Biso   1.000  O
  O3159    1.0000 0.32143  0.57737  0.72254  Biso   1.000  O
  O3160    1.0000 0.42857  0.57737  0.02746  Biso   1.000  O
  O3161    1.0000 0.57143  0.97254  0.42263  Biso   1.000  O
  O3162    1.0000 0.17857  0.27746  0.92263  Biso   1.000  O
  O3163    1.0000 0.57143  0.27746  0.82737  Biso   1.000  O
  O3164    1.0000 0.17857  0.97254  0.32737  Biso   1.000  O
  O3165    1.0000 0.02746  0.82143  0.67263  Biso   1.000  O
  O3166    1.0000 0.02746  0.42857  0.57737  Biso   1.000  O
  O3167    1.0000 0.72254  0.42857  0.17263  Biso   1.000  O
  O3168    1.0000 0.72254  0.82143  0.07737  Biso   1.000  O
  O3169    1.0000 0.97254  0.42263  0.57143  Biso   1.000  O
  O3170    1.0000 0.27746  0.92263  0.17857  Biso   1.000  O
  O3171    1.0000 0.27746  0.82737  0.57143  Biso   1.000  O
  O3172    1.0000 0.97254  0.32737  0.17857  Biso   1.000  O
  O3173    1.0000 0.57737  0.02746  0.42857  Biso   1.000  O
  O3174    1.0000 0.57737  0.72254  0.32143  Biso   1.000  O
  O3175    1.0000 0.67263  0.52746  0.32143  Biso   1.000  O
  O3176    1.0000 0.17263  0.22254  0.92857  Biso   1.000  O
  O3177    1.0000 0.42263  0.07143  0.47254  Biso   1.000  O
  O3178    1.0000 0.42263  0.17857  0.77746  Biso   1.000  O
  O3179    1.0000 0.32737  0.17857  0.97254  Biso   1.000  O
  O3180    1.0000 0.32737  0.07143  0.27746  Biso   1.000  O
  O3181    1.0000 0.42857  0.17263  0.72254  Biso   1.000  O
  O3182    1.0000 0.32143  0.17263  0.02746  Biso   1.000  O
  O3183    1.0000 0.32143  0.07737  0.22254  Biso   1.000  O
  O3184    1.0000 0.42857  0.07737  0.52746  Biso   1.000  O
  O3185    1.0000 0.57143  0.47254  0.92263  Biso   1.000  O
  O3186    1.0000 0.17857  0.77746  0.42263  Biso   1.000  O
  O3187    1.0000 0.57143  0.77746  0.32737  Biso   1.000  O
  O3188    1.0000 0.17857  0.47254  0.82737  Biso   1.000  O
  O3189    1.0000 0.02746  0.32143  0.17263  Biso   1.000  O
  O3190    1.0000 0.02746  0.92857  0.07737  Biso   1.000  O
  O3191    1.0000 0.72254  0.92857  0.67263  Biso   1.000  O
  O3192    1.0000 0.72254  0.32143  0.57737  Biso   1.000  O
  O3193    1.0000 0.97254  0.92263  0.07143  Biso   1.000  O
  O3194    1.0000 0.27746  0.42263  0.67857  Biso   1.000  O
  O3195    1.0000 0.27746  0.32737  0.07143  Biso   1.000  O
  O3196    1.0000 0.97254  0.82737  0.67857  Biso   1.000  O
  O3197    1.0000 0.57737  0.52746  0.92857  Biso   1.000  O
  O3198    1.0000 0.57737  0.22254  0.82143  Biso   1.000  O
  O3199    1.0000 0.67263  0.02746  0.82143  Biso   1.000  O
  O3200    1.0000 0.17263  0.72254  0.42857  Biso   1.000  O
  O3201    1.0000 0.92263  0.57143  0.47254  Biso   1.000  O
  O3202    1.0000 0.92263  0.67857  0.77746  Biso   1.000  O
  O3203    1.0000 0.82737  0.67857  0.97254  Biso   1.000  O
  O3204    1.0000 0.82737  0.57143  0.27746  Biso   1.000  O
  O3205    1.0000 0.92857  0.67263  0.72254  Biso   1.000  O
  O3206    1.0000 0.82143  0.67263  0.02746  Biso   1.000  O
  O3207    1.0000 0.82143  0.57737  0.22254  Biso   1.000  O
  O3208    1.0000 0.92857  0.57737  0.52746  Biso   1.000  O
  O3209    1.0000 0.07143  0.97254  0.92263  Biso   1.000  O
  O3210    1.0000 0.67857  0.27746  0.42263  Biso   1.000  O
  O3211    1.0000 0.07143  0.27746  0.32737  Biso   1.000  O
  O3212    1.0000 0.67857  0.97254  0.82737  Biso   1.000  O
  O3213    1.0000 0.52746  0.82143  0.17263  Biso   1.000  O
  O3214    1.0000 0.52746  0.42857  0.07737  Biso   1.000  O
  O3215    1.0000 0.22254  0.42857  0.67263  Biso   1.000  O
  O3216    1.0000 0.22254  0.82143  0.57737  Biso   1.000  O
  O3217    1.0000 0.47254  0.42263  0.07143  Biso   1.000  O
  O3218    1.0000 0.77746  0.92263  0.67857  Biso   1.000  O
  O3219    1.0000 0.77746  0.82737  0.07143  Biso   1.000  O
  O3220    1.0000 0.47254  0.32737  0.67857  Biso   1.000  O
  O3221    1.0000 0.07737  0.02746  0.92857  Biso   1.000  O
  O3222    1.0000 0.07737  0.72254  0.82143  Biso   1.000  O
  O3223    1.0000 0.17263  0.52746  0.82143  Biso   1.000  O
  O3224    1.0000 0.67263  0.22254  0.42857  Biso   1.000  O
  O3225    1.0000 0.92263  0.07143  0.97254  Biso   1.000  O
  O3226    1.0000 0.92263  0.17857  0.27746  Biso   1.000  O
  O3227    1.0000 0.82737  0.17857  0.47254  Biso   1.000  O
  O3228    1.0000 0.82737  0.07143  0.77746  Biso   1.000  O
  O3229    1.0000 0.92857  0.17263  0.22254  Biso   1.000  O
  O3230    1.0000 0.82143  0.17263  0.52746  Biso   1.000  O
  O3231    1.0000 0.82143  0.07737  0.72254  Biso   1.000  O
  O3232    1.0000 0.92857  0.07737  0.02746  Biso   1.000  O
  O3233    1.0000 0.07143  0.47254  0.42263  Biso   1.000  O
  O3234    1.0000 0.67857  0.77746  0.92263  Biso   1.000  O
  O3235    1.0000 0.07143  0.77746  0.82737  Biso   1.000  O
  O3236    1.0000 0.67857  0.47254  0.32737  Biso   1.000  O
  O3237    1.0000 0.52746  0.32143  0.67263  Biso   1.000  O
  O3238    1.0000 0.52746  0.92857  0.57737  Biso   1.000  O
  O3239    1.0000 0.22254  0.92857  0.17263  Biso   1.000  O
  O3240    1.0000 0.22254  0.32143  0.07737  Biso   1.000  O
  O3241    1.0000 0.47254  0.92263  0.57143  Biso   1.000  O
  O3242    1.0000 0.77746  0.42263  0.17857  Biso   1.000  O
  O3243    1.0000 0.77746  0.32737  0.57143  Biso   1.000  O
  O3244    1.0000 0.47254  0.82737  0.17857  Biso   1.000  O
  O3245    1.0000 0.07737  0.52746  0.42857  Biso   1.000  O
  O3246    1.0000 0.07737  0.22254  0.32143  Biso   1.000  O
  O3247    1.0000 0.17263  0.02746  0.32143  Biso   1.000  O
  O3248    1.0000 0.67263  0.72254  0.92857  Biso   1.000  O
  O3249    1.0000 0.57737  0.42857  0.02746  Biso   1.000  O
  O3250    1.0000 0.57737  0.32143  0.72254  Biso   1.000  O
  O3251    1.0000 0.67263  0.32143  0.52746  Biso   1.000  O
  O3252    1.0000 0.67263  0.42857  0.22254  Biso   1.000  O
  O3253    1.0000 0.57143  0.32737  0.77746  Biso   1.000  O
  O3254    1.0000 0.67857  0.32737  0.47254  Biso   1.000  O
  O3255    1.0000 0.67857  0.42263  0.27746  Biso   1.000  O
  O3256    1.0000 0.57143  0.42263  0.97254  Biso   1.000  O
  O3257    1.0000 0.42857  0.02746  0.57737  Biso   1.000  O
  O3258    1.0000 0.82143  0.72254  0.07737  Biso   1.000  O
  O3259    1.0000 0.42857  0.72254  0.17263  Biso   1.000  O
  O3260    1.0000 0.82143  0.02746  0.67263  Biso   1.000  O
  O3261    1.0000 0.97254  0.17857  0.32737  Biso   1.000  O
  O3262    1.0000 0.97254  0.57143  0.42263  Biso   1.000  O
  O3263    1.0000 0.27746  0.57143  0.82737  Biso   1.000  O
  O3264    1.0000 0.27746  0.17857  0.92263  Biso   1.000  O
  O3265    1.0000 0.02746  0.57737  0.42857  Biso   1.000  O
  O3266    1.0000 0.72254  0.07737  0.82143  Biso   1.000  O
  O3267    1.0000 0.72254  0.17263  0.42857  Biso   1.000  O
  O3268    1.0000 0.02746  0.67263  0.82143  Biso   1.000  O
  O3269    1.0000 0.42263  0.97254  0.57143  Biso   1.000  O
  O3270    1.0000 0.42263  0.27746  0.67857  Biso   1.000  O
  O3271    1.0000 0.32737  0.47254  0.67857  Biso   1.000  O
  O3272    1.0000 0.82737  0.77746  0.07143  Biso   1.000  O
  O3273    1.0000 0.57737  0.92857  0.52746  Biso   1.000  O
  O3274    1.0000 0.57737  0.82143  0.22254  Biso   1.000  O
  O3275    1.0000 0.67263  0.82143  0.02746  Biso   1.000  O
  O3276    1.0000 0.67263  0.92857  0.72254  Biso   1.000  O
  O3277    1.0000 0.57143  0.82737  0.27746  Biso   1.000  O
  O3278    1.0000 0.67857  0.82737  0.97254  Biso   1.000  O
  O3279    1.0000 0.67857  0.92263  0.77746  Biso   1.000  O
  O3280    1.0000 0.57143  0.92263  0.47254  Biso   1.000  O
  O3281    1.0000 0.42857  0.52746  0.07737  Biso   1.000  O
  O3282    1.0000 0.82143  0.22254  0.57737  Biso   1.000  O
  O3283    1.0000 0.42857  0.22254  0.67263  Biso   1.000  O
  O3284    1.0000 0.82143  0.52746  0.17263  Biso   1.000  O
  O3285    1.0000 0.97254  0.67857  0.82737  Biso   1.000  O
  O3286    1.0000 0.97254  0.07143  0.92263  Biso   1.000  O
  O3287    1.0000 0.27746  0.07143  0.32737  Biso   1.000  O
  O3288    1.0000 0.27746  0.67857  0.42263  Biso   1.000  O
  O3289    1.0000 0.02746  0.07737  0.92857  Biso   1.000  O
  O3290    1.0000 0.72254  0.57737  0.32143  Biso   1.000  O
  O3291    1.0000 0.72254  0.67263  0.92857  Biso   1.000  O
  O3292    1.0000 0.02746  0.17263  0.32143  Biso   1.000  O
  O3293    1.0000 0.42263  0.47254  0.07143  Biso   1.000  O
  O3294    1.0000 0.42263  0.77746  0.17857  Biso   1.000  O
  O3295    1.0000 0.32737  0.97254  0.17857  Biso   1.000  O
  O3296    1.0000 0.82737  0.27746  0.57143  Biso   1.000  O
  O3297    1.0000 0.07737  0.42857  0.52746  Biso   1.000  O
  O3298    1.0000 0.07737  0.32143  0.22254  Biso   1.000  O
  O3299    1.0000 0.17263  0.32143  0.02746  Biso   1.000  O
  O3300    1.0000 0.17263  0.42857  0.72254  Biso   1.000  O
  O3301    1.0000 0.07143  0.32737  0.27746  Biso   1.000  O
  O3302    1.0000 0.17857  0.32737  0.97254  Biso   1.000  O
  O3303    1.0000 0.17857  0.42263  0.77746  Biso   1.000  O
  O3304    1.0000 0.07143  0.42263  0.47254  Biso   1.000  O
  O3305    1.0000 0.92857  0.02746  0.07737  Biso   1.000  O
  O3306    1.0000 0.32143  0.72254  0.57737  Biso   1.000  O
  O3307    1.0000 0.92857  0.72254  0.67263  Biso   1.000  O
  O3308    1.0000 0.32143  0.02746  0.17263  Biso   1.000  O
  O3309    1.0000 0.47254  0.17857  0.82737  Biso   1.000  O
  O3310    1.0000 0.47254  0.57143  0.92263  Biso   1.000  O
  O3311    1.0000 0.77746  0.57143  0.32737  Biso   1.000  O
  O3312    1.0000 0.77746  0.17857  0.42263  Biso   1.000  O
  O3313    1.0000 0.52746  0.57737  0.92857  Biso   1.000  O
  O3314    1.0000 0.22254  0.07737  0.32143  Biso   1.000  O
  O3315    1.0000 0.22254  0.17263  0.92857  Biso   1.000  O
  O3316    1.0000 0.52746  0.67263  0.32143  Biso   1.000  O
  O3317    1.0000 0.92263  0.97254  0.07143  Biso   1.000  O
  O3318    1.0000 0.92263  0.27746  0.17857  Biso   1.000  O
  O3319    1.0000 0.82737  0.47254  0.17857  Biso   1.000  O
  O3320    1.0000 0.32737  0.77746  0.57143  Biso   1.000  O
  O3321    1.0000 0.07737  0.92857  0.02746  Biso   1.000  O
  O3322    1.0000 0.07737  0.82143  0.72254  Biso   1.000  O
  O3323    1.0000 0.17263  0.82143  0.52746  Biso   1.000  O
  O3324    1.0000 0.17263  0.92857  0.22254  Biso   1.000  O
  O3325    1.0000 0.07143  0.82737  0.77746  Biso   1.000  O
  O3326    1.0000 0.17857  0.82737  0.47254  Biso   1.000  O
  O3327    1.0000 0.17857  0.92263  0.27746  Biso   1.000  O
  O3328    1.0000 0.07143  0.92263  0.97254  Biso   1.000  O
  O3329    1.0000 0.92857  0.52746  0.57737  Biso   1.000  O
  O3330    1.0000 0.32143  0.22254  0.07737  Biso   1.000  O
  O3331    1.0000 0.92857  0.22254  0.17263  Biso   1.000  O
  O3332    1.0000 0.32143  0.52746  0.67263  Biso   1.000  O
  O3333    1.0000 0.47254  0.67857  0.32737  Biso   1.000  O
  O3334    1.0000 0.47254  0.07143  0.42263  Biso   1.000  O
  O3335    1.0000 0.77746  0.07143  0.82737  Biso   1.000  O
  O3336    1.0000 0.77746  0.67857  0.92263  Biso   1.000  O
  O3337    1.0000 0.52746  0.07737  0.42857  Biso   1.000  O
  O3338    1.0000 0.22254  0.57737  0.82143  Biso   1.000  O
  O3339    1.0000 0.22254  0.67263  0.42857  Biso   1.000  O
  O3340    1.0000 0.52746  0.17263  0.82143  Biso   1.000  O
  O3341    1.0000 0.92263  0.47254  0.57143  Biso   1.000  O
  O3342    1.0000 0.92263  0.77746  0.67857  Biso   1.000  O
  O3343    1.0000 0.82737  0.97254  0.67857  Biso   1.000  O
  O3344    1.0000 0.32737  0.27746  0.07143  Biso   1.000  O
  O3345    1.0000 0.40782  0.55513  0.00599  Biso   1.000  O
  O3346    1.0000 0.40782  0.69487  0.24401  Biso   1.000  O
  O3347    1.0000 0.34218  0.69487  0.50599  Biso   1.000  O
  O3348    1.0000 0.34218  0.55513  0.74401  Biso   1.000  O
  O3349    1.0000 0.44487  0.65782  0.25599  Biso   1.000  O
  O3350    1.0000 0.30513  0.65782  0.49401  Biso   1.000  O
  O3351    1.0000 0.30513  0.59218  0.75599  Biso   1.000  O
  O3352    1.0000 0.44487  0.59218  0.99401  Biso   1.000  O
  O3353    1.0000 0.55513  0.00599  0.40782  Biso   1.000  O
  O3354    1.0000 0.19487  0.24401  0.90782  Biso   1.000  O
  O3355    1.0000 0.55513  0.24401  0.84218  Biso   1.000  O
  O3356    1.0000 0.19487  0.00599  0.34218  Biso   1.000  O
  O3357    1.0000 0.99401  0.80513  0.65782  Biso   1.000  O
  O3358    1.0000 0.99401  0.44487  0.59218  Biso   1.000  O
  O3359    1.0000 0.75599  0.44487  0.15782  Biso   1.000  O
  O3360    1.0000 0.75599  0.80513  0.09218  Biso   1.000  O
  O3361    1.0000 0.00599  0.40782  0.55513  Biso   1.000  O
  O3362    1.0000 0.24401  0.90782  0.19487  Biso   1.000  O
  O3363    1.0000 0.24401  0.84218  0.55513  Biso   1.000  O
  O3364    1.0000 0.00599  0.34218  0.19487  Biso   1.000  O
  O3365    1.0000 0.59218  0.99401  0.44487  Biso   1.000  O
  O3366    1.0000 0.59218  0.75599  0.30513  Biso   1.000  O
  O3367    1.0000 0.65782  0.49401  0.30513  Biso   1.000  O
  O3368    1.0000 0.15782  0.25599  0.94487  Biso   1.000  O
  O3369    1.0000 0.40782  0.05513  0.50599  Biso   1.000  O
  O3370    1.0000 0.40782  0.19487  0.74401  Biso   1.000  O
  O3371    1.0000 0.34218  0.19487  0.00599  Biso   1.000  O
  O3372    1.0000 0.34218  0.05513  0.24401  Biso   1.000  O
  O3373    1.0000 0.44487  0.15782  0.75599  Biso   1.000  O
  O3374    1.0000 0.30513  0.15782  0.99401  Biso   1.000  O
  O3375    1.0000 0.30513  0.09218  0.25599  Biso   1.000  O
  O3376    1.0000 0.44487  0.09218  0.49401  Biso   1.000  O
  O3377    1.0000 0.55513  0.50599  0.90782  Biso   1.000  O
  O3378    1.0000 0.19487  0.74401  0.40782  Biso   1.000  O
  O3379    1.0000 0.55513  0.74401  0.34218  Biso   1.000  O
  O3380    1.0000 0.19487  0.50599  0.84218  Biso   1.000  O
  O3381    1.0000 0.99401  0.30513  0.15782  Biso   1.000  O
  O3382    1.0000 0.99401  0.94487  0.09218  Biso   1.000  O
  O3383    1.0000 0.75599  0.94487  0.65782  Biso   1.000  O
  O3384    1.0000 0.75599  0.30513  0.59218  Biso   1.000  O
  O3385    1.0000 0.00599  0.90782  0.05513  Biso   1.000  O
  O3386    1.0000 0.24401  0.40782  0.69487  Biso   1.000  O
  O3387    1.0000 0.24401  0.34218  0.05513  Biso   1.000  O
  O3388    1.0000 0.00599  0.84218  0.69487  Biso   1.000  O
  O3389    1.0000 0.59218  0.49401  0.94487  Biso   1.000  O
  O3390    1.0000 0.59218  0.25599  0.80513  Biso   1.000  O
  O3391    1.0000 0.65782  0.99401  0.80513  Biso   1.000  O
  O3392    1.0000 0.15782  0.75599  0.44487  Biso   1.000  O
  O3393    1.0000 0.90782  0.55513  0.50599  Biso   1.000  O
  O3394    1.0000 0.90782  0.69487  0.74401  Biso   1.000  O
  O3395    1.0000 0.84218  0.69487  0.00599  Biso   1.000  O
  O3396    1.0000 0.84218  0.55513  0.24401  Biso   1.000  O
  O3397    1.0000 0.94487  0.65782  0.75599  Biso   1.000  O
  O3398    1.0000 0.80513  0.65782  0.99401  Biso   1.000  O
  O3399    1.0000 0.80513  0.59218  0.25599  Biso   1.000  O
  O3400    1.0000 0.94487  0.59218  0.49401  Biso   1.000  O
  O3401    1.0000 0.05513  0.00599  0.90782  Biso   1.000  O
  O3402    1.0000 0.69487  0.24401  0.40782  Biso   1.000  O
  O3403    1.0000 0.05513  0.24401  0.34218  Biso   1.000  O
  O3404    1.0000 0.69487  0.00599  0.84218  Biso   1.000  O
  O3405    1.0000 0.49401  0.80513  0.15782  Biso   1.000  O
  O3406    1.0000 0.49401  0.44487  0.09218  Biso   1.000  O
  O3407    1.0000 0.25599  0.44487  0.65782  Biso   1.000  O
  O3408    1.0000 0.25599  0.80513  0.59218  Biso   1.000  O
  O3409    1.0000 0.50599  0.40782  0.05513  Biso   1.000  O
  O3410    1.0000 0.74401  0.90782  0.69487  Biso   1.000  O
  O3411    1.0000 0.74401  0.84218  0.05513  Biso   1.000  O
  O3412    1.0000 0.50599  0.34218  0.69487  Biso   1.000  O
  O3413    1.0000 0.09218  0.99401  0.94487  Biso   1.000  O
  O3414    1.0000 0.09218  0.75599  0.80513  Biso   1.000  O
  O3415    1.0000 0.15782  0.49401  0.80513  Biso   1.000  O
  O3416    1.0000 0.65782  0.25599  0.44487  Biso   1.000  O
  O3417    1.0000 0.90782  0.05513  0.00599  Biso   1.000  O
  O3418    1.0000 0.90782  0.19487  0.24401  Biso   1.000  O
  O3419    1.0000 0.84218  0.19487  0.50599  Biso   1.000  O
  O3420    1.0000 0.84218  0.05513  0.74401  Biso   1.000  O
  O3421    1.0000 0.94487  0.15782  0.25599  Biso   1.000  O
  O3422    1.0000 0.80513  0.15782  0.49401  Biso   1.000  O
  O3423    1.0000 0.80513  0.09218  0.75599  Biso   1.000  O
  O3424    1.0000 0.94487  0.09218  0.99401  Biso   1.000  O
  O3425    1.0000 0.05513  0.50599  0.40782  Biso   1.000  O
  O3426    1.0000 0.69487  0.74401  0.90782  Biso   1.000  O
  O3427    1.0000 0.05513  0.74401  0.84218  Biso   1.000  O
  O3428    1.0000 0.69487  0.50599  0.34218  Biso   1.000  O
  O3429    1.0000 0.49401  0.30513  0.65782  Biso   1.000  O
  O3430    1.0000 0.49401  0.94487  0.59218  Biso   1.000  O
  O3431    1.0000 0.25599  0.94487  0.15782  Biso   1.000  O
  O3432    1.0000 0.25599  0.30513  0.09218  Biso   1.000  O
  O3433    1.0000 0.50599  0.90782  0.55513  Biso   1.000  O
  O3434    1.0000 0.74401  0.40782  0.19487  Biso   1.000  O
  O3435    1.0000 0.74401  0.34218  0.55513  Biso   1.000  O
  O3436    1.0000 0.50599  0.84218  0.19487  Biso   1.000  O
  O3437    1.0000 0.09218  0.49401  0.44487  Biso   1.000  O
  O3438    1.0000 0.09218  0.25599  0.30513  Biso   1.000  O
  O3439    1.0000 0.15782  0.99401  0.30513  Biso   1.000  O
  O3440    1.0000 0.65782  0.75599  0.94487  Biso   1.000  O
  O3441    1.0000 0.59218  0.44487  0.99401  Biso   1.000  O
  O3442    1.0000 0.59218  0.30513  0.75599  Biso   1.000  O
  O3443    1.0000 0.65782  0.30513  0.49401  Biso   1.000  O
  O3444    1.0000 0.65782  0.44487  0.25599  Biso   1.000  O
  O3445    1.0000 0.55513  0.34218  0.74401  Biso   1.000  O
  O3446    1.0000 0.69487  0.34218  0.50599  Biso   1.000  O
  O3447    1.0000 0.69487  0.40782  0.24401  Biso   1.000  O
  O3448    1.0000 0.55513  0.40782  0.00599  Biso   1.000  O
  O3449    1.0000 0.44487  0.99401  0.59218  Biso   1.000  O
  O3450    1.0000 0.80513  0.75599  0.09218  Biso   1.000  O
  O3451    1.0000 0.44487  0.75599  0.15782  Biso   1.000  O
  O3452    1.0000 0.80513  0.99401  0.65782  Biso   1.000  O
  O3453    1.0000 0.00599  0.19487  0.34218  Biso   1.000  O
  O3454    1.0000 0.00599  0.55513  0.40782  Biso   1.000  O
  O3455    1.0000 0.24401  0.55513  0.84218  Biso   1.000  O
  O3456    1.0000 0.24401  0.19487  0.90782  Biso   1.000  O
  O3457    1.0000 0.99401  0.59218  0.44487  Biso   1.000  O
  O3458    1.0000 0.75599  0.09218  0.80513  Biso   1.000  O
  O3459    1.0000 0.75599  0.15782  0.44487  Biso   1.000  O
  O3460    1.0000 0.99401  0.65782  0.80513  Biso   1.000  O
  O3461    1.0000 0.40782  0.00599  0.55513  Biso   1.000  O
  O3462    1.0000 0.40782  0.24401  0.69487  Biso   1.000  O
  O3463    1.0000 0.34218  0.50599  0.69487  Biso   1.000  O
  O3464    1.0000 0.84218  0.74401  0.05513  Biso   1.000  O
  O3465    1.0000 0.59218  0.94487  0.49401  Biso   1.000  O
  O3466    1.0000 0.59218  0.80513  0.25599  Biso   1.000  O
  O3467    1.0000 0.65782  0.80513  0.99401  Biso   1.000  O
  O3468    1.0000 0.65782  0.94487  0.75599  Biso   1.000  O
  O3469    1.0000 0.55513  0.84218  0.24401  Biso   1.000  O
  O3470    1.0000 0.69487  0.84218  0.00599  Biso   1.000  O
  O3471    1.0000 0.69487  0.90782  0.74401  Biso   1.000  O
  O3472    1.0000 0.55513  0.90782  0.50599  Biso   1.000  O
  O3473    1.0000 0.44487  0.49401  0.09218  Biso   1.000  O
  O3474    1.0000 0.80513  0.25599  0.59218  Biso   1.000  O
  O3475    1.0000 0.44487  0.25599  0.65782  Biso   1.000  O
  O3476    1.0000 0.80513  0.49401  0.15782  Biso   1.000  O
  O3477    1.0000 0.00599  0.69487  0.84218  Biso   1.000  O
  O3478    1.0000 0.00599  0.05513  0.90782  Biso   1.000  O
  O3479    1.0000 0.24401  0.05513  0.34218  Biso   1.000  O
  O3480    1.0000 0.24401  0.69487  0.40782  Biso   1.000  O
  O3481    1.0000 0.99401  0.09218  0.94487  Biso   1.000  O
  O3482    1.0000 0.75599  0.59218  0.30513  Biso   1.000  O
  O3483    1.0000 0.75599  0.65782  0.94487  Biso   1.000  O
  O3484    1.0000 0.99401  0.15782  0.30513  Biso   1.000  O
  O3485    1.0000 0.40782  0.50599  0.05513  Biso   1.000  O
  O3486    1.0000 0.40782  0.74401  0.19487  Biso   1.000  O
  O3487    1.0000 0.34218  0.00599  0.19487  Biso   1.000  O
  O3488    1.0000 0.84218  0.24401  0.55513  Biso   1.000  O
  O3489    1.0000 0.09218  0.44487  0.49401  Biso   1.000  O
  O3490    1.0000 0.09218  0.30513  0.25599  Biso   1.000  O
  O3491    1.0000 0.15782  0.30513  0.99401  Biso   1.000  O
  O3492    1.0000 0.15782  0.44487  0.75599  Biso   1.000  O
  O3493    1.0000 0.05513  0.34218  0.24401  Biso   1.000  O
  O3494    1.0000 0.19487  0.34218  0.00599  Biso   1.000  O
  O3495    1.0000 0.19487  0.40782  0.74401  Biso   1.000  O
  O3496    1.0000 0.05513  0.40782  0.50599  Biso   1.000  O
  O3497    1.0000 0.94487  0.99401  0.09218  Biso   1.000  O
  O3498    1.0000 0.30513  0.75599  0.59218  Biso   1.000  O
  O3499    1.0000 0.94487  0.75599  0.65782  Biso   1.000  O
  O3500    1.0000 0.30513  0.99401  0.15782  Biso   1.000  O
  O3501    1.0000 0.50599  0.19487  0.84218  Biso   1.000  O
  O3502    1.0000 0.50599  0.55513  0.90782  Biso   1.000  O
  O3503    1.0000 0.74401  0.55513  0.34218  Biso   1.000  O
  O3504    1.0000 0.74401  0.19487  0.40782  Biso   1.000  O
  O3505    1.0000 0.49401  0.59218  0.94487  Biso   1.000  O
  O3506    1.0000 0.25599  0.09218  0.30513  Biso   1.000  O
  O3507    1.0000 0.25599  0.15782  0.94487  Biso   1.000  O
  O3508    1.0000 0.49401  0.65782  0.30513  Biso   1.000  O
  O3509    1.0000 0.90782  0.00599  0.05513  Biso   1.000  O
  O3510    1.0000 0.90782  0.24401  0.19487  Biso   1.000  O
  O3511    1.0000 0.84218  0.50599  0.19487  Biso   1.000  O
  O3512    1.0000 0.34218  0.74401  0.55513  Biso   1.000  O
  O3513    1.0000 0.09218  0.94487  0.99401  Biso   1.000  O
  O3514    1.0000 0.09218  0.80513  0.75599  Biso   1.000  O
  O3515    1.0000 0.15782  0.80513  0.49401  Biso   1.000  O
  O3516    1.0000 0.15782  0.94487  0.25599  Biso   1.000  O
  O3517    1.0000 0.05513  0.84218  0.74401  Biso   1.000  O
  O3518    1.0000 0.19487  0.84218  0.50599  Biso   1.000  O
  O3519    1.0000 0.19487  0.90782  0.24401  Biso   1.000  O
  O3520    1.0000 0.05513  0.90782  0.00599  Biso   1.000  O
  O3521    1.0000 0.94487  0.49401  0.59218  Biso   1.000  O
  O3522    1.0000 0.30513  0.25599  0.09218  Biso   1.000  O
  O3523    1.0000 0.94487  0.25599  0.15782  Biso   1.000  O
  O3524    1.0000 0.30513  0.49401  0.65782  Biso   1.000  O
  O3525    1.0000 0.50599  0.69487  0.34218  Biso   1.000  O
  O3526    1.0000 0.50599  0.05513  0.40782  Biso   1.000  O
  O3527    1.0000 0.74401  0.05513  0.84218  Biso   1.000  O
  O3528    1.0000 0.74401  0.69487  0.90782  Biso   1.000  O
  O3529    1.0000 0.49401  0.09218  0.44487  Biso   1.000  O
  O3530    1.0000 0.25599  0.59218  0.80513  Biso   1.000  O
  O3531    1.0000 0.25599  0.65782  0.44487  Biso   1.000  O
  O3532    1.0000 0.49401  0.15782  0.80513  Biso   1.000  O
  O3533    1.0000 0.90782  0.50599  0.55513  Biso   1.000  O
  O3534    1.0000 0.90782  0.74401  0.69487  Biso   1.000  O
  O3535    1.0000 0.84218  0.00599  0.69487  Biso   1.000  O
  O3536    1.0000 0.34218  0.24401  0.05513  Biso   1.000  O
  O3537    1.0000 0.44310  0.55690  0.00000  Biso   1.000  O
  O3538    1.0000 0.44310  0.69310  0.25000  Biso   1.000  O
  O3539    1.0000 0.30690  0.69310  0.50000  Biso   1.000  O
  O3540    1.0000 0.30690  0.55690  0.75000  Biso   1.000  O
  O3541    1.0000 0.55690  0.00000  0.44310  Biso   1.000  O
  O3542    1.0000 0.19310  0.25000  0.94310  Biso   1.000  O
  O3543    1.0000 0.55690  0.25000  0.80690  Biso   1.000  O
  O3544    1.0000 0.19310  0.00000  0.30690  Biso   1.000  O
  O3545    1.0000 0.00000  0.80690  0.69310  Biso   1.000  O
  O3546    1.0000 0.00000  0.44310  0.55690  Biso   1.000  O
  O3547    1.0000 0.75000  0.44310  0.19310  Biso   1.000  O
  O3548    1.0000 0.75000  0.80690  0.05690  Biso   1.000  O
  O3549    1.0000 0.25000  0.94310  0.19310  Biso   1.000  O
  O3550    1.0000 0.25000  0.80690  0.55690  Biso   1.000  O
  O3551    1.0000 0.00000  0.30690  0.19310  Biso   1.000  O
  O3552    1.0000 0.55690  0.75000  0.30690  Biso   1.000  O
  O3553    1.0000 0.69310  0.50000  0.30690  Biso   1.000  O
  O3554    1.0000 0.44310  0.05690  0.50000  Biso   1.000  O
  O3555    1.0000 0.44310  0.19310  0.75000  Biso   1.000  O
  O3556    1.0000 0.30690  0.19310  0.00000  Biso   1.000  O
  O3557    1.0000 0.30690  0.05690  0.25000  Biso   1.000  O
  O3558    1.0000 0.55690  0.50000  0.94310  Biso   1.000  O
  O3559    1.0000 0.19310  0.75000  0.44310  Biso   1.000  O
  O3560    1.0000 0.19310  0.50000  0.80690  Biso   1.000  O
  O3561    1.0000 0.00000  0.94310  0.05690  Biso   1.000  O
  O3562    1.0000 0.75000  0.94310  0.69310  Biso   1.000  O
  O3563    1.0000 0.75000  0.30690  0.55690  Biso   1.000  O
  O3564    1.0000 0.25000  0.44310  0.69310  Biso   1.000  O
  O3565    1.0000 0.25000  0.30690  0.05690  Biso   1.000  O
  O3566    1.0000 0.69310  0.00000  0.80690  Biso   1.000  O
  O3567    1.0000 0.94310  0.55690  0.50000  Biso   1.000  O
  O3568    1.0000 0.94310  0.69310  0.75000  Biso   1.000  O
  O3569    1.0000 0.80690  0.69310  0.00000  Biso   1.000  O
  O3570    1.0000 0.80690  0.55690  0.25000  Biso   1.000  O
  O3571    1.0000 0.05690  0.00000  0.94310  Biso   1.000  O
  O3572    1.0000 0.69310  0.25000  0.44310  Biso   1.000  O
  O3573    1.0000 0.05690  0.25000  0.30690  Biso   1.000  O
  O3574    1.0000 0.50000  0.80690  0.19310  Biso   1.000  O
  O3575    1.0000 0.50000  0.44310  0.05690  Biso   1.000  O
  O3576    1.0000 0.50000  0.30690  0.69310  Biso   1.000  O
  O3577    1.0000 0.05690  0.75000  0.80690  Biso   1.000  O
  O3578    1.0000 0.94310  0.05690  0.00000  Biso   1.000  O
  O3579    1.0000 0.94310  0.19310  0.25000  Biso   1.000  O
  O3580    1.0000 0.80690  0.19310  0.50000  Biso   1.000  O
  O3581    1.0000 0.80690  0.05690  0.75000  Biso   1.000  O
  O3582    1.0000 0.05690  0.50000  0.44310  Biso   1.000  O
  O3583    1.0000 0.69310  0.75000  0.94310  Biso   1.000  O
  O3584    1.0000 0.50000  0.94310  0.55690  Biso   1.000  O
  O3585    1.0000 0.55690  0.44310  0.00000  Biso   1.000  O
  O3586    1.0000 0.55690  0.30690  0.75000  Biso   1.000  O
  O3587    1.0000 0.69310  0.30690  0.50000  Biso   1.000  O
  O3588    1.0000 0.69310  0.44310  0.25000  Biso   1.000  O
  O3589    1.0000 0.44310  0.00000  0.55690  Biso   1.000  O
  O3590    1.0000 0.80690  0.75000  0.05690  Biso   1.000  O
  O3591    1.0000 0.44310  0.75000  0.19310  Biso   1.000  O
  O3592    1.0000 0.80690  0.00000  0.69310  Biso   1.000  O
  O3593    1.0000 0.00000  0.19310  0.30690  Biso   1.000  O
  O3594    1.0000 0.00000  0.55690  0.44310  Biso   1.000  O
  O3595    1.0000 0.25000  0.55690  0.80690  Biso   1.000  O
  O3596    1.0000 0.25000  0.19310  0.94310  Biso   1.000  O
  O3597    1.0000 0.75000  0.05690  0.80690  Biso   1.000  O
  O3598    1.0000 0.75000  0.19310  0.44310  Biso   1.000  O
  O3599    1.0000 0.00000  0.69310  0.80690  Biso   1.000  O
  O3600    1.0000 0.44310  0.25000  0.69310  Biso   1.000  O
  O3601    1.0000 0.30690  0.50000  0.69310  Biso   1.000  O
  O3602    1.0000 0.55690  0.94310  0.50000  Biso   1.000  O
  O3603    1.0000 0.55690  0.80690  0.25000  Biso   1.000  O
  O3604    1.0000 0.69310  0.80690  0.00000  Biso   1.000  O
  O3605    1.0000 0.69310  0.94310  0.75000  Biso   1.000  O
  O3606    1.0000 0.44310  0.50000  0.05690  Biso   1.000  O
  O3607    1.0000 0.80690  0.25000  0.55690  Biso   1.000  O
  O3608    1.0000 0.80690  0.50000  0.19310  Biso   1.000  O
  O3609    1.0000 0.00000  0.05690  0.94310  Biso   1.000  O
  O3610    1.0000 0.25000  0.05690  0.30690  Biso   1.000  O
  O3611    1.0000 0.25000  0.69310  0.44310  Biso   1.000  O
  O3612    1.0000 0.75000  0.55690  0.30690  Biso   1.000  O
  O3613    1.0000 0.75000  0.69310  0.94310  Biso   1.000  O
  O3614    1.0000 0.30690  0.00000  0.19310  Biso   1.000  O
  O3615    1.0000 0.05690  0.44310  0.50000  Biso   1.000  O
  O3616    1.0000 0.05690  0.30690  0.25000  Biso   1.000  O
  O3617    1.0000 0.19310  0.30690  0.00000  Biso   1.000  O
  O3618    1.0000 0.19310  0.44310  0.75000  Biso   1.000  O
  O3619    1.0000 0.94310  0.00000  0.05690  Biso   1.000  O
  O3620    1.0000 0.30690  0.75000  0.55690  Biso   1.000  O
  O3621    1.0000 0.94310  0.75000  0.69310  Biso   1.000  O
  O3622    1.0000 0.50000  0.19310  0.80690  Biso   1.000  O
  O3623    1.0000 0.50000  0.55690  0.94310  Biso   1.000  O
  O3624    1.0000 0.50000  0.69310  0.30690  Biso   1.000  O
  O3625    1.0000 0.94310  0.25000  0.19310  Biso   1.000  O
  O3626    1.0000 0.05690  0.94310  0.00000  Biso   1.000  O
  O3627    1.0000 0.05690  0.80690  0.75000  Biso   1.000  O
  O3628    1.0000 0.19310  0.80690  0.50000  Biso   1.000  O
  O3629    1.0000 0.19310  0.94310  0.25000  Biso   1.000  O
  O3630    1.0000 0.94310  0.50000  0.55690  Biso   1.000  O
  O3631    1.0000 0.30690  0.25000  0.05690  Biso   1.000  O
  O3632    1.0000 0.50000  0.05690  0.44310  Biso   1.000  O
  O3633    1.0000 0.37609  0.65698  0.90073  Biso   1.000  O
  O3634    1.0000 0.37609  0.59302  0.34927  Biso   1.000  O
  O3635    1.0000 0.37391  0.59302  0.40073  Biso   1.000  O
  O3636    1.0000 0.37391  0.65698  0.84927  Biso   1.000  O
  O3637    1.0000 0.34302  0.62609  0.15073  Biso   1.000  O
  O3638    1.0000 0.40698  0.62609  0.59927  Biso   1.000  O
  O3639    1.0000 0.40698  0.62391  0.65073  Biso   1.000  O
  O3640    1.0000 0.34302  0.62391  0.09927  Biso   1.000  O
  O3641    1.0000 0.65698  0.90073  0.37609  Biso   1.000  O
  O3642    1.0000 0.09302  0.34927  0.87609  Biso   1.000  O
  O3643    1.0000 0.65698  0.34927  0.87391  Biso   1.000  O
  O3644    1.0000 0.09302  0.90073  0.37391  Biso   1.000  O
  O3645    1.0000 0.09927  0.90698  0.62609  Biso   1.000  O
  O3646    1.0000 0.09927  0.34302  0.62391  Biso   1.000  O
  O3647    1.0000 0.65073  0.34302  0.12609  Biso   1.000  O
  O3648    1.0000 0.65073  0.90698  0.12391  Biso   1.000  O
  O3649    1.0000 0.90073  0.37609  0.65698  Biso   1.000  O
  O3650    1.0000 0.34927  0.87609  0.09302  Biso   1.000  O
  O3651    1.0000 0.34927  0.87391  0.65698  Biso   1.000  O
  O3652    1.0000 0.90073  0.37391  0.09302  Biso   1.000  O
  O3653    1.0000 0.62391  0.09927  0.34302  Biso   1.000  O
  O3654    1.0000 0.62391  0.65073  0.40698  Biso   1.000  O
  O3655    1.0000 0.62609  0.59927  0.40698  Biso   1.000  O
  O3656    1.0000 0.12609  0.15073  0.84302  Biso   1.000  O
  O3657    1.0000 0.37609  0.15698  0.40073  Biso   1.000  O
  O3658    1.0000 0.37609  0.09302  0.84927  Biso   1.000  O
  O3659    1.0000 0.37391  0.09302  0.90073  Biso   1.000  O
  O3660    1.0000 0.37391  0.15698  0.34927  Biso   1.000  O
  O3661    1.0000 0.34302  0.12609  0.65073  Biso   1.000  O
  O3662    1.0000 0.40698  0.12609  0.09927  Biso   1.000  O
  O3663    1.0000 0.40698  0.12391  0.15073  Biso   1.000  O
  O3664    1.0000 0.34302  0.12391  0.59927  Biso   1.000  O
  O3665    1.0000 0.65698  0.40073  0.87609  Biso   1.000  O
  O3666    1.0000 0.09302  0.84927  0.37609  Biso   1.000  O
  O3667    1.0000 0.65698  0.84927  0.37391  Biso   1.000  O
  O3668    1.0000 0.09302  0.40073  0.87391  Biso   1.000  O
  O3669    1.0000 0.09927  0.40698  0.12609  Biso   1.000  O
  O3670    1.0000 0.09927  0.84302  0.12391  Biso   1.000  O
  O3671    1.0000 0.65073  0.84302  0.62609  Biso   1.000  O
  O3672    1.0000 0.65073  0.40698  0.62391  Biso   1.000  O
  O3673    1.0000 0.90073  0.87609  0.15698  Biso   1.000  O
  O3674    1.0000 0.34927  0.37609  0.59302  Biso   1.000  O
  O3675    1.0000 0.34927  0.37391  0.15698  Biso   1.000  O
  O3676    1.0000 0.90073  0.87391  0.59302  Biso   1.000  O
  O3677    1.0000 0.62391  0.59927  0.84302  Biso   1.000  O
  O3678    1.0000 0.62391  0.15073  0.90698  Biso   1.000  O
  O3679    1.0000 0.62609  0.09927  0.90698  Biso   1.000  O
  O3680    1.0000 0.12609  0.65073  0.34302  Biso   1.000  O
  O3681    1.0000 0.87609  0.65698  0.40073  Biso   1.000  O
  O3682    1.0000 0.87609  0.59302  0.84927  Biso   1.000  O
  O3683    1.0000 0.87391  0.59302  0.90073  Biso   1.000  O
  O3684    1.0000 0.87391  0.65698  0.34927  Biso   1.000  O
  O3685    1.0000 0.84302  0.62609  0.65073  Biso   1.000  O
  O3686    1.0000 0.90698  0.62609  0.09927  Biso   1.000  O
  O3687    1.0000 0.90698  0.62391  0.15073  Biso   1.000  O
  O3688    1.0000 0.84302  0.62391  0.59927  Biso   1.000  O
  O3689    1.0000 0.15698  0.90073  0.87609  Biso   1.000  O
  O3690    1.0000 0.59302  0.34927  0.37609  Biso   1.000  O
  O3691    1.0000 0.15698  0.34927  0.37391  Biso   1.000  O
  O3692    1.0000 0.59302  0.90073  0.87391  Biso   1.000  O
  O3693    1.0000 0.59927  0.90698  0.12609  Biso   1.000  O
  O3694    1.0000 0.59927  0.34302  0.12391  Biso   1.000  O
  O3695    1.0000 0.15073  0.34302  0.62609  Biso   1.000  O
  O3696    1.0000 0.15073  0.90698  0.62391  Biso   1.000  O
  O3697    1.0000 0.40073  0.37609  0.15698  Biso   1.000  O
  O3698    1.0000 0.84927  0.87609  0.59302  Biso   1.000  O
  O3699    1.0000 0.84927  0.87391  0.15698  Biso   1.000  O
  O3700    1.0000 0.40073  0.37391  0.59302  Biso   1.000  O
  O3701    1.0000 0.12391  0.09927  0.84302  Biso   1.000  O
  O3702    1.0000 0.12391  0.65073  0.90698  Biso   1.000  O
  O3703    1.0000 0.12609  0.59927  0.90698  Biso   1.000  O
  O3704    1.0000 0.62609  0.15073  0.34302  Biso   1.000  O
  O3705    1.0000 0.87609  0.15698  0.90073  Biso   1.000  O
  O3706    1.0000 0.87609  0.09302  0.34927  Biso   1.000  O
  O3707    1.0000 0.87391  0.09302  0.40073  Biso   1.000  O
  O3708    1.0000 0.87391  0.15698  0.84927  Biso   1.000  O
  O3709    1.0000 0.84302  0.12609  0.15073  Biso   1.000  O
  O3710    1.0000 0.90698  0.12609  0.59927  Biso   1.000  O
  O3711    1.0000 0.90698  0.12391  0.65073  Biso   1.000  O
  O3712    1.0000 0.84302  0.12391  0.09927  Biso   1.000  O
  O3713    1.0000 0.15698  0.40073  0.37609  Biso   1.000  O
  O3714    1.0000 0.59302  0.84927  0.87609  Biso   1.000  O
  O3715    1.0000 0.15698  0.84927  0.87391  Biso   1.000  O
  O3716    1.0000 0.59302  0.40073  0.37391  Biso   1.000  O
  O3717    1.0000 0.59927  0.40698  0.62609  Biso   1.000  O
  O3718    1.0000 0.59927  0.84302  0.62391  Biso   1.000  O
  O3719    1.0000 0.15073  0.84302  0.12609  Biso   1.000  O
  O3720    1.0000 0.15073  0.40698  0.12391  Biso   1.000  O
  O3721    1.0000 0.40073  0.87609  0.65698  Biso   1.000  O
  O3722    1.0000 0.84927  0.37609  0.09302  Biso   1.000  O
  O3723    1.0000 0.84927  0.37391  0.65698  Biso   1.000  O
  O3724    1.0000 0.40073  0.87391  0.09302  Biso   1.000  O
  O3725    1.0000 0.12391  0.59927  0.34302  Biso   1.000  O
  O3726    1.0000 0.12391  0.15073  0.40698  Biso   1.000  O
  O3727    1.0000 0.12609  0.09927  0.40698  Biso   1.000  O
  O3728    1.0000 0.62609  0.65073  0.84302  Biso   1.000  O
  O3729    1.0000 0.62391  0.34302  0.09927  Biso   1.000  O
  O3730    1.0000 0.62391  0.40698  0.65073  Biso   1.000  O
  O3731    1.0000 0.62609  0.40698  0.59927  Biso   1.000  O
  O3732    1.0000 0.62609  0.34302  0.15073  Biso   1.000  O
  O3733    1.0000 0.65698  0.37391  0.84927  Biso   1.000  O
  O3734    1.0000 0.59302  0.37391  0.40073  Biso   1.000  O
  O3735    1.0000 0.59302  0.37609  0.34927  Biso   1.000  O
  O3736    1.0000 0.65698  0.37609  0.90073  Biso   1.000  O
  O3737    1.0000 0.34302  0.09927  0.62391  Biso   1.000  O
  O3738    1.0000 0.90698  0.65073  0.12391  Biso   1.000  O
  O3739    1.0000 0.34302  0.65073  0.12609  Biso   1.000  O
  O3740    1.0000 0.90698  0.09927  0.62609  Biso   1.000  O
  O3741    1.0000 0.90073  0.09302  0.37391  Biso   1.000  O
  O3742    1.0000 0.90073  0.65698  0.37609  Biso   1.000  O
  O3743    1.0000 0.34927  0.65698  0.87391  Biso   1.000  O
  O3744    1.0000 0.34927  0.09302  0.87609  Biso   1.000  O
  O3745    1.0000 0.09927  0.62391  0.34302  Biso   1.000  O
  O3746    1.0000 0.65073  0.12391  0.90698  Biso   1.000  O
  O3747    1.0000 0.65073  0.12609  0.34302  Biso   1.000  O
  O3748    1.0000 0.09927  0.62609  0.90698  Biso   1.000  O
  O3749    1.0000 0.37609  0.90073  0.65698  Biso   1.000  O
  O3750    1.0000 0.37609  0.34927  0.59302  Biso   1.000  O
  O3751    1.0000 0.37391  0.40073  0.59302  Biso   1.000  O
  O3752    1.0000 0.87391  0.84927  0.15698  Biso   1.000  O
  O3753    1.0000 0.62391  0.84302  0.59927  Biso   1.000  O
  O3754    1.0000 0.62391  0.90698  0.15073  Biso   1.000  O
  O3755    1.0000 0.62609  0.90698  0.09927  Biso   1.000  O
  O3756    1.0000 0.62609  0.84302  0.65073  Biso   1.000  O
  O3757    1.0000 0.65698  0.87391  0.34927  Biso   1.000  O
  O3758    1.0000 0.59302  0.87391  0.90073  Biso   1.000  O
  O3759    1.0000 0.59302  0.87609  0.84927  Biso   1.000  O
  O3760    1.0000 0.65698  0.87609  0.40073  Biso   1.000  O
  O3761    1.0000 0.34302  0.59927  0.12391  Biso   1.000  O
  O3762    1.0000 0.90698  0.15073  0.62391  Biso   1.000  O
  O3763    1.0000 0.34302  0.15073  0.62609  Biso   1.000  O
  O3764    1.0000 0.90698  0.59927  0.12609  Biso   1.000  O
  O3765    1.0000 0.90073  0.59302  0.87391  Biso   1.000  O
  O3766    1.0000 0.90073  0.15698  0.87609  Biso   1.000  O
  O3767    1.0000 0.34927  0.15698  0.37391  Biso   1.000  O
  O3768    1.0000 0.34927  0.59302  0.37609  Biso   1.000  O
  O3769    1.0000 0.09927  0.12391  0.84302  Biso   1.000  O
  O3770    1.0000 0.65073  0.62391  0.40698  Biso   1.000  O
  O3771    1.0000 0.65073  0.62609  0.84302  Biso   1.000  O
  O3772    1.0000 0.09927  0.12609  0.40698  Biso   1.000  O
  O3773    1.0000 0.37609  0.40073  0.15698  Biso   1.000  O
  O3774    1.0000 0.37609  0.84927  0.09302  Biso   1.000  O
  O3775    1.0000 0.37391  0.90073  0.09302  Biso   1.000  O
  O3776    1.0000 0.87391  0.34927  0.65698  Biso   1.000  O
  O3777    1.0000 0.12391  0.34302  0.59927  Biso   1.000  O
  O3778    1.0000 0.12391  0.40698  0.15073  Biso   1.000  O
  O3779    1.0000 0.12609  0.40698  0.09927  Biso   1.000  O
  O3780    1.0000 0.12609  0.34302  0.65073  Biso   1.000  O
  O3781    1.0000 0.15698  0.37391  0.34927  Biso   1.000  O
  O3782    1.0000 0.09302  0.37391  0.90073  Biso   1.000  O
  O3783    1.0000 0.09302  0.37609  0.84927  Biso   1.000  O
  O3784    1.0000 0.15698  0.37609  0.40073  Biso   1.000  O
  O3785    1.0000 0.84302  0.09927  0.12391  Biso   1.000  O
  O3786    1.0000 0.40698  0.65073  0.62391  Biso   1.000  O
  O3787    1.0000 0.84302  0.65073  0.62609  Biso   1.000  O
  O3788    1.0000 0.40698  0.09927  0.12609  Biso   1.000  O
  O3789    1.0000 0.40073  0.09302  0.87391  Biso   1.000  O
  O3790    1.0000 0.40073  0.65698  0.87609  Biso   1.000  O
  O3791    1.0000 0.84927  0.65698  0.37391  Biso   1.000  O
  O3792    1.0000 0.84927  0.09302  0.37609  Biso   1.000  O
  O3793    1.0000 0.59927  0.62391  0.84302  Biso   1.000  O
  O3794    1.0000 0.15073  0.12391  0.40698  Biso   1.000  O
  O3795    1.0000 0.15073  0.12609  0.84302  Biso   1.000  O
  O3796    1.0000 0.59927  0.62609  0.40698  Biso   1.000  O
  O3797    1.0000 0.87609  0.90073  0.15698  Biso   1.000  O
  O3798    1.0000 0.87609  0.34927  0.09302  Biso   1.000  O
  O3799    1.0000 0.87391  0.40073  0.09302  Biso   1.000  O
  O3800    1.0000 0.37391  0.84927  0.65698  Biso   1.000  O
  O3801    1.0000 0.12391  0.84302  0.09927  Biso   1.000  O
  O3802    1.0000 0.12391  0.90698  0.65073  Biso   1.000  O
  O3803    1.0000 0.12609  0.90698  0.59927  Biso   1.000  O
  O3804    1.0000 0.12609  0.84302  0.15073  Biso   1.000  O
  O3805    1.0000 0.15698  0.87391  0.84927  Biso   1.000  O
  O3806    1.0000 0.09302  0.87391  0.40073  Biso   1.000  O
  O3807    1.0000 0.09302  0.87609  0.34927  Biso   1.000  O
  O3808    1.0000 0.15698  0.87609  0.90073  Biso   1.000  O
  O3809    1.0000 0.84302  0.59927  0.62391  Biso   1.000  O
  O3810    1.0000 0.40698  0.15073  0.12391  Biso   1.000  O
  O3811    1.0000 0.84302  0.15073  0.12609  Biso   1.000  O
  O3812    1.0000 0.40698  0.59927  0.62609  Biso   1.000  O
  O3813    1.0000 0.40073  0.59302  0.37391  Biso   1.000  O
  O3814    1.0000 0.40073  0.15698  0.37609  Biso   1.000  O
  O3815    1.0000 0.84927  0.15698  0.87391  Biso   1.000  O
  O3816    1.0000 0.84927  0.59302  0.87609  Biso   1.000  O
  O3817    1.0000 0.59927  0.12391  0.34302  Biso   1.000  O
  O3818    1.0000 0.15073  0.62391  0.90698  Biso   1.000  O
  O3819    1.0000 0.15073  0.62609  0.34302  Biso   1.000  O
  O3820    1.0000 0.59927  0.12609  0.90698  Biso   1.000  O
  O3821    1.0000 0.87609  0.40073  0.65698  Biso   1.000  O
  O3822    1.0000 0.87609  0.84927  0.59302  Biso   1.000  O
  O3823    1.0000 0.87391  0.90073  0.59302  Biso   1.000  O
  O3824    1.0000 0.37391  0.34927  0.15698  Biso   1.000  O
  O3825    1.0000 0.37500  0.68160  0.87500  Biso   1.000  O
  O3826    1.0000 0.37500  0.56840  0.37500  Biso   1.000  O
  O3827    1.0000 0.31840  0.62500  0.12500  Biso   1.000  O
  O3828    1.0000 0.43160  0.62500  0.62500  Biso   1.000  O
  O3829    1.0000 0.68160  0.87500  0.37500  Biso   1.000  O
  O3830    1.0000 0.06840  0.37500  0.87500  Biso   1.000  O
  O3831    1.0000 0.68160  0.37500  0.87500  Biso   1.000  O
  O3832    1.0000 0.06840  0.87500  0.37500  Biso   1.000  O
  O3833    1.0000 0.12500  0.93160  0.62500  Biso   1.000  O
  O3834    1.0000 0.12500  0.31840  0.62500  Biso   1.000  O
  O3835    1.0000 0.62500  0.31840  0.12500  Biso   1.000  O
  O3836    1.0000 0.62500  0.93160  0.12500  Biso   1.000  O
  O3837    1.0000 0.87500  0.37500  0.68160  Biso   1.000  O
  O3838    1.0000 0.37500  0.87500  0.06840  Biso   1.000  O
  O3839    1.0000 0.37500  0.87500  0.68160  Biso   1.000  O
  O3840    1.0000 0.87500  0.37500  0.06840  Biso   1.000  O
  O3841    1.0000 0.62500  0.12500  0.31840  Biso   1.000  O
  O3842    1.0000 0.62500  0.62500  0.43160  Biso   1.000  O
  O3843    1.0000 0.12500  0.12500  0.81840  Biso   1.000  O
  O3844    1.0000 0.37500  0.18160  0.37500  Biso   1.000  O
  O3845    1.0000 0.37500  0.06840  0.87500  Biso   1.000  O
  O3846    1.0000 0.31840  0.12500  0.62500  Biso   1.000  O
  O3847    1.0000 0.43160  0.12500  0.12500  Biso   1.000  O
  O3848    1.0000 0.12500  0.43160  0.12500  Biso   1.000  O
  O3849    1.0000 0.12500  0.81840  0.12500  Biso   1.000  O
  O3850    1.0000 0.62500  0.81840  0.62500  Biso   1.000  O
  O3851    1.0000 0.62500  0.43160  0.62500  Biso   1.000  O
  O3852    1.0000 0.87500  0.87500  0.18160  Biso   1.000  O
  O3853    1.0000 0.37500  0.37500  0.56840  Biso   1.000  O
  O3854    1.0000 0.37500  0.37500  0.18160  Biso   1.000  O
  O3855    1.0000 0.87500  0.87500  0.56840  Biso   1.000  O
  O3856    1.0000 0.62500  0.62500  0.81840  Biso   1.000  O
  O3857    1.0000 0.62500  0.12500  0.93160  Biso   1.000  O
  O3858    1.0000 0.12500  0.62500  0.31840  Biso   1.000  O
  O3859    1.0000 0.87500  0.68160  0.37500  Biso   1.000  O
  O3860    1.0000 0.87500  0.56840  0.87500  Biso   1.000  O
  O3861    1.0000 0.81840  0.62500  0.62500  Biso   1.000  O
  O3862    1.0000 0.93160  0.62500  0.12500  Biso   1.000  O
  O3863    1.0000 0.18160  0.87500  0.87500  Biso   1.000  O
  O3864    1.0000 0.56840  0.37500  0.37500  Biso   1.000  O
  O3865    1.0000 0.18160  0.37500  0.37500  Biso   1.000  O
  O3866    1.0000 0.56840  0.87500  0.87500  Biso   1.000  O
  O3867    1.0000 0.12500  0.62500  0.93160  Biso   1.000  O
  O3868    1.0000 0.87500  0.18160  0.87500  Biso   1.000  O
  O3869    1.0000 0.87500  0.06840  0.37500  Biso   1.000  O
  O3870    1.0000 0.81840  0.12500  0.12500  Biso   1.000  O
  O3871    1.0000 0.93160  0.12500  0.62500  Biso   1.000  O
  O3872    1.0000 0.12500  0.12500  0.43160  Biso   1.000  O
  O3873    1.0000 0.41500  0.69717  0.93986  Biso   1.000  O
  O3874    1.0000 0.41500  0.55283  0.31014  Biso   1.000  O
  O3875    1.0000 0.33500  0.55283  0.43986  Biso   1.000  O
  O3876    1.0000 0.33500  0.69717  0.81014  Biso   1.000  O
  O3877    1.0000 0.30283  0.66500  0.18986  Biso   1.000  O
  O3878    1.0000 0.44717  0.66500  0.56014  Biso   1.000  O
  O3879    1.0000 0.44717  0.58500  0.68986  Biso   1.000  O
  O3880    1.0000 0.30283  0.58500  0.06014  Biso   1.000  O
  O3881    1.0000 0.69717  0.93986  0.41500  Biso   1.000  O
  O3882    1.0000 0.05283  0.31014  0.91500  Biso   1.000  O
  O3883    1.0000 0.69717  0.31014  0.83500  Biso   1.000  O
  O3884    1.0000 0.05283  0.93986  0.33500  Biso   1.000  O
  O3885    1.0000 0.06014  0.94717  0.66500  Biso   1.000  O
  O3886    1.0000 0.06014  0.30283  0.58500  Biso   1.000  O
  O3887    1.0000 0.68986  0.30283  0.16500  Biso   1.000  O
  O3888    1.0000 0.68986  0.94717  0.08500  Biso   1.000  O
  O3889    1.0000 0.93986  0.41500  0.69717  Biso   1.000  O
  O3890    1.0000 0.31014  0.91500  0.05283  Biso   1.000  O
  O3891    1.0000 0.31014  0.83500  0.69717  Biso   1.000  O
  O3892    1.0000 0.93986  0.33500  0.05283  Biso   1.000  O
  O3893    1.0000 0.58500  0.06014  0.30283  Biso   1.000  O
  O3894    1.0000 0.58500  0.68986  0.44717  Biso   1.000  O
  O3895    1.0000 0.66500  0.56014  0.44717  Biso   1.000  O
  O3896    1.0000 0.16500  0.18986  0.80283  Biso   1.000  O
  O3897    1.0000 0.41500  0.19717  0.43986  Biso   1.000  O
  O3898    1.0000 0.41500  0.05283  0.81014  Biso   1.000  O
  O3899    1.0000 0.33500  0.05283  0.93986  Biso   1.000  O
  O3900    1.0000 0.33500  0.19717  0.31014  Biso   1.000  O
  O3901    1.0000 0.30283  0.16500  0.68986  Biso   1.000  O
  O3902    1.0000 0.44717  0.16500  0.06014  Biso   1.000  O
  O3903    1.0000 0.44717  0.08500  0.18986  Biso   1.000  O
  O3904    1.0000 0.30283  0.08500  0.56014  Biso   1.000  O
  O3905    1.0000 0.69717  0.43986  0.91500  Biso   1.000  O
  O3906    1.0000 0.05283  0.81014  0.41500  Biso   1.000  O
  O3907    1.0000 0.69717  0.81014  0.33500  Biso   1.000  O
  O3908    1.0000 0.05283  0.43986  0.83500  Biso   1.000  O
  O3909    1.0000 0.06014  0.44717  0.16500  Biso   1.000  O
  O3910    1.0000 0.06014  0.80283  0.08500  Biso   1.000  O
  O3911    1.0000 0.68986  0.80283  0.66500  Biso   1.000  O
  O3912    1.0000 0.68986  0.44717  0.58500  Biso   1.000  O
  O3913    1.0000 0.93986  0.91500  0.19717  Biso   1.000  O
  O3914    1.0000 0.31014  0.41500  0.55283  Biso   1.000  O
  O3915    1.0000 0.31014  0.33500  0.19717  Biso   1.000  O
  O3916    1.0000 0.93986  0.83500  0.55283  Biso   1.000  O
  O3917    1.0000 0.58500  0.56014  0.80283  Biso   1.000  O
  O3918    1.0000 0.58500  0.18986  0.94717  Biso   1.000  O
  O3919    1.0000 0.66500  0.06014  0.94717  Biso   1.000  O
  O3920    1.0000 0.16500  0.68986  0.30283  Biso   1.000  O
  O3921    1.0000 0.91500  0.69717  0.43986  Biso   1.000  O
  O3922    1.0000 0.91500  0.55283  0.81014  Biso   1.000  O
  O3923    1.0000 0.83500  0.55283  0.93986  Biso   1.000  O
  O3924    1.0000 0.83500  0.69717  0.31014  Biso   1.000  O
  O3925    1.0000 0.80283  0.66500  0.68986  Biso   1.000  O
  O3926    1.0000 0.94717  0.66500  0.06014  Biso   1.000  O
  O3927    1.0000 0.94717  0.58500  0.18986  Biso   1.000  O
  O3928    1.0000 0.80283  0.58500  0.56014  Biso   1.000  O
  O3929    1.0000 0.19717  0.93986  0.91500  Biso   1.000  O
  O3930    1.0000 0.55283  0.31014  0.41500  Biso   1.000  O
  O3931    1.0000 0.19717  0.31014  0.33500  Biso   1.000  O
  O3932    1.0000 0.55283  0.93986  0.83500  Biso   1.000  O
  O3933    1.0000 0.56014  0.94717  0.16500  Biso   1.000  O
  O3934    1.0000 0.56014  0.30283  0.08500  Biso   1.000  O
  O3935    1.0000 0.18986  0.30283  0.66500  Biso   1.000  O
  O3936    1.0000 0.18986  0.94717  0.58500  Biso   1.000  O
  O3937    1.0000 0.43986  0.41500  0.19717  Biso   1.000  O
  O3938    1.0000 0.81014  0.91500  0.55283  Biso   1.000  O
  O3939    1.0000 0.81014  0.83500  0.19717  Biso   1.000  O
  O3940    1.0000 0.43986  0.33500  0.55283  Biso   1.000  O
  O3941    1.0000 0.08500  0.06014  0.80283  Biso   1.000  O
  O3942    1.0000 0.08500  0.68986  0.94717  Biso   1.000  O
  O3943    1.0000 0.16500  0.56014  0.94717  Biso   1.000  O
  O3944    1.0000 0.66500  0.18986  0.30283  Biso   1.000  O
  O3945    1.0000 0.91500  0.19717  0.93986  Biso   1.000  O
  O3946    1.0000 0.91500  0.05283  0.31014  Biso   1.000  O
  O3947    1.0000 0.83500  0.05283  0.43986  Biso   1.000  O
  O3948    1.0000 0.83500  0.19717  0.81014  Biso   1.000  O
  O3949    1.0000 0.80283  0.16500  0.18986  Biso   1.000  O
  O3950    1.0000 0.94717  0.16500  0.56014  Biso   1.000  O
  O3951    1.0000 0.94717  0.08500  0.68986  Biso   1.000  O
  O3952    1.0000 0.80283  0.08500  0.06014  Biso   1.000  O
  O3953    1.0000 0.19717  0.43986  0.41500  Biso   1.000  O
  O3954    1.0000 0.55283  0.81014  0.91500  Biso   1.000  O
  O3955    1.0000 0.19717  0.81014  0.83500  Biso   1.000  O
  O3956    1.0000 0.55283  0.43986  0.33500  Biso   1.000  O
  O3957    1.0000 0.56014  0.44717  0.66500  Biso   1.000  O
  O3958    1.0000 0.56014  0.80283  0.58500  Biso   1.000  O
  O3959    1.0000 0.18986  0.80283  0.16500  Biso   1.000  O
  O3960    1.0000 0.18986  0.44717  0.08500  Biso   1.000  O
  O3961    1.0000 0.43986  0.91500  0.69717  Biso   1.000  O
  O3962    1.0000 0.81014  0.41500  0.05283  Biso   1.000  O
  O3963    1.0000 0.81014  0.33500  0.69717  Biso   1.000  O
  O3964    1.0000 0.43986  0.83500  0.05283  Biso   1.000  O
  O3965    1.0000 0.08500  0.56014  0.30283  Biso   1.000  O
  O3966    1.0000 0.08500  0.18986  0.44717  Biso   1.000  O
  O3967    1.0000 0.16500  0.06014  0.44717  Biso   1.000  O
  O3968    1.0000 0.66500  0.68986  0.80283  Biso   1.000  O
  O3969    1.0000 0.58500  0.30283  0.06014  Biso   1.000  O
  O3970    1.0000 0.58500  0.44717  0.68986  Biso   1.000  O
  O3971    1.0000 0.66500  0.44717  0.56014  Biso   1.000  O
  O3972    1.0000 0.66500  0.30283  0.18986  Biso   1.000  O
  O3973    1.0000 0.69717  0.33500  0.81014  Biso   1.000  O
  O3974    1.0000 0.55283  0.33500  0.43986  Biso   1.000  O
  O3975    1.0000 0.55283  0.41500  0.31014  Biso   1.000  O
  O3976    1.0000 0.69717  0.41500  0.93986  Biso   1.000  O
  O3977    1.0000 0.30283  0.06014  0.58500  Biso   1.000  O
  O3978    1.0000 0.94717  0.68986  0.08500  Biso   1.000  O
  O3979    1.0000 0.30283  0.68986  0.16500  Biso   1.000  O
  O3980    1.0000 0.94717  0.06014  0.66500  Biso   1.000  O
  O3981    1.0000 0.93986  0.05283  0.33500  Biso   1.000  O
  O3982    1.0000 0.93986  0.69717  0.41500  Biso   1.000  O
  O3983    1.0000 0.31014  0.69717  0.83500  Biso   1.000  O
  O3984    1.0000 0.31014  0.05283  0.91500  Biso   1.000  O
  O3985    1.0000 0.06014  0.58500  0.30283  Biso   1.000  O
  O3986    1.0000 0.68986  0.08500  0.94717  Biso   1.000  O
  O3987    1.0000 0.68986  0.16500  0.30283  Biso   1.000  O
  O3988    1.0000 0.06014  0.66500  0.94717  Biso   1.000  O
  O3989    1.0000 0.41500  0.93986  0.69717  Biso   1.000  O
  O3990    1.0000 0.41500  0.31014  0.55283  Biso   1.000  O
  O3991    1.0000 0.33500  0.43986  0.55283  Biso   1.000  O
  O3992    1.0000 0.83500  0.81014  0.19717  Biso   1.000  O
  O3993    1.0000 0.58500  0.80283  0.56014  Biso   1.000  O
  O3994    1.0000 0.58500  0.94717  0.18986  Biso   1.000  O
  O3995    1.0000 0.66500  0.94717  0.06014  Biso   1.000  O
  O3996    1.0000 0.66500  0.80283  0.68986  Biso   1.000  O
  O3997    1.0000 0.69717  0.83500  0.31014  Biso   1.000  O
  O3998    1.0000 0.55283  0.83500  0.93986  Biso   1.000  O
  O3999    1.0000 0.55283  0.91500  0.81014  Biso   1.000  O
  O4000    1.0000 0.69717  0.91500  0.43986  Biso   1.000  O
  O4001    1.0000 0.30283  0.56014  0.08500  Biso   1.000  O
  O4002    1.0000 0.94717  0.18986  0.58500  Biso   1.000  O
  O4003    1.0000 0.30283  0.18986  0.66500  Biso   1.000  O
  O4004    1.0000 0.94717  0.56014  0.16500  Biso   1.000  O
  O4005    1.0000 0.93986  0.55283  0.83500  Biso   1.000  O
  O4006    1.0000 0.93986  0.19717  0.91500  Biso   1.000  O
  O4007    1.0000 0.31014  0.19717  0.33500  Biso   1.000  O
  O4008    1.0000 0.31014  0.55283  0.41500  Biso   1.000  O
  O4009    1.0000 0.06014  0.08500  0.80283  Biso   1.000  O
  O4010    1.0000 0.68986  0.58500  0.44717  Biso   1.000  O
  O4011    1.0000 0.68986  0.66500  0.80283  Biso   1.000  O
  O4012    1.0000 0.06014  0.16500  0.44717  Biso   1.000  O
  O4013    1.0000 0.41500  0.43986  0.19717  Biso   1.000  O
  O4014    1.0000 0.41500  0.81014  0.05283  Biso   1.000  O
  O4015    1.0000 0.33500  0.93986  0.05283  Biso   1.000  O
  O4016    1.0000 0.83500  0.31014  0.69717  Biso   1.000  O
  O4017    1.0000 0.08500  0.30283  0.56014  Biso   1.000  O
  O4018    1.0000 0.08500  0.44717  0.18986  Biso   1.000  O
  O4019    1.0000 0.16500  0.44717  0.06014  Biso   1.000  O
  O4020    1.0000 0.16500  0.30283  0.68986  Biso   1.000  O
  O4021    1.0000 0.19717  0.33500  0.31014  Biso   1.000  O
  O4022    1.0000 0.05283  0.33500  0.93986  Biso   1.000  O
  O4023    1.0000 0.05283  0.41500  0.81014  Biso   1.000  O
  O4024    1.0000 0.19717  0.41500  0.43986  Biso   1.000  O
  O4025    1.0000 0.80283  0.06014  0.08500  Biso   1.000  O
  O4026    1.0000 0.44717  0.68986  0.58500  Biso   1.000  O
  O4027    1.0000 0.80283  0.68986  0.66500  Biso   1.000  O
  O4028    1.0000 0.44717  0.06014  0.16500  Biso   1.000  O
  O4029    1.0000 0.43986  0.05283  0.83500  Biso   1.000  O
  O4030    1.0000 0.43986  0.69717  0.91500  Biso   1.000  O
  O4031    1.0000 0.81014  0.69717  0.33500  Biso   1.000  O
  O4032    1.0000 0.81014  0.05283  0.41500  Biso   1.000  O
  O4033    1.0000 0.56014  0.58500  0.80283  Biso   1.000  O
  O4034    1.0000 0.18986  0.08500  0.44717  Biso   1.000  O
  O4035    1.0000 0.18986  0.16500  0.80283  Biso   1.000  O
  O4036    1.0000 0.56014  0.66500  0.44717  Biso   1.000  O
  O4037    1.0000 0.91500  0.93986  0.19717  Biso   1.000  O
  O4038    1.0000 0.91500  0.31014  0.05283  Biso   1.000  O
  O4039    1.0000 0.83500  0.43986  0.05283  Biso   1.000  O
  O4040    1.0000 0.33500  0.81014  0.69717  Biso   1.000  O
  O4041    1.0000 0.08500  0.80283  0.06014  Biso   1.000  O
  O4042    1.0000 0.08500  0.94717  0.68986  Biso   1.000  O
  O4043    1.0000 0.16500  0.94717  0.56014  Biso   1.000  O
  O4044    1.0000 0.16500  0.80283  0.18986  Biso   1.000  O
  O4045    1.0000 0.19717  0.83500  0.81014  Biso   1.000  O
  O4046    1.0000 0.05283  0.83500  0.43986  Biso   1.000  O
  O4047    1.0000 0.05283  0.91500  0.31014  Biso   1.000  O
  O4048    1.0000 0.19717  0.91500  0.93986  Biso   1.000  O
  O4049    1.0000 0.80283  0.56014  0.58500  Biso   1.000  O
  O4050    1.0000 0.44717  0.18986  0.08500  Biso   1.000  O
  O4051    1.0000 0.80283  0.18986  0.16500  Biso   1.000  O
  O4052    1.0000 0.44717  0.56014  0.66500  Biso   1.000  O
  O4053    1.0000 0.43986  0.55283  0.33500  Biso   1.000  O
  O4054    1.0000 0.43986  0.19717  0.41500  Biso   1.000  O
  O4055    1.0000 0.81014  0.19717  0.83500  Biso   1.000  O
  O4056    1.0000 0.81014  0.55283  0.91500  Biso   1.000  O
  O4057    1.0000 0.56014  0.08500  0.30283  Biso   1.000  O
  O4058    1.0000 0.18986  0.58500  0.94717  Biso   1.000  O
  O4059    1.0000 0.18986  0.66500  0.30283  Biso   1.000  O
  O4060    1.0000 0.56014  0.16500  0.94717  Biso   1.000  O
  O4061    1.0000 0.91500  0.43986  0.69717  Biso   1.000  O
  O4062    1.0000 0.91500  0.81014  0.55283  Biso   1.000  O
  O4063    1.0000 0.83500  0.93986  0.55283  Biso   1.000  O
  O4064    1.0000 0.33500  0.31014  0.19717  Biso   1.000  O
  O4065    1.0000 0.26805  0.57636  0.05120  Biso   1.000  O
  O4066    1.0000 0.26805  0.67364  0.19880  Biso   1.000  O
  O4067    1.0000 0.48195  0.67364  0.55120  Biso   1.000  O
  O4068    1.0000 0.48195  0.57636  0.69880  Biso   1.000  O
  O4069    1.0000 0.42364  0.51805  0.30120  Biso   1.000  O
  O4070    1.0000 0.32636  0.51805  0.44880  Biso   1.000  O
  O4071    1.0000 0.32636  0.73195  0.80120  Biso   1.000  O
  O4072    1.0000 0.42364  0.73195  0.94880  Biso   1.000  O
  O4073    1.0000 0.57636  0.05120  0.26805  Biso   1.000  O
  O4074    1.0000 0.17364  0.19880  0.76805  Biso   1.000  O
  O4075    1.0000 0.57636  0.19880  0.98195  Biso   1.000  O
  O4076    1.0000 0.17364  0.05120  0.48195  Biso   1.000  O
  O4077    1.0000 0.94880  0.82636  0.51805  Biso   1.000  O
  O4078    1.0000 0.94880  0.42364  0.73195  Biso   1.000  O
  O4079    1.0000 0.80120  0.42364  0.01805  Biso   1.000  O
  O4080    1.0000 0.80120  0.82636  0.23195  Biso   1.000  O
  O4081    1.0000 0.05120  0.26805  0.57636  Biso   1.000  O
  O4082    1.0000 0.19880  0.76805  0.17364  Biso   1.000  O
  O4083    1.0000 0.19880  0.98195  0.57636  Biso   1.000  O
  O4084    1.0000 0.05120  0.48195  0.17364  Biso   1.000  O
  O4085    1.0000 0.73195  0.94880  0.42364  Biso   1.000  O
  O4086    1.0000 0.73195  0.80120  0.32636  Biso   1.000  O
  O4087    1.0000 0.51805  0.44880  0.32636  Biso   1.000  O
  O4088    1.0000 0.01805  0.30120  0.92364  Biso   1.000  O
  O4089    1.0000 0.26805  0.07636  0.55120  Biso   1.000  O
  O4090    1.0000 0.26805  0.17364  0.69880  Biso   1.000  O
  O4091    1.0000 0.48195  0.17364  0.05120  Biso   1.000  O
  O4092    1.0000 0.48195  0.07636  0.19880  Biso   1.000  O
  O4093    1.0000 0.42364  0.01805  0.80120  Biso   1.000  O
  O4094    1.0000 0.32636  0.01805  0.94880  Biso   1.000  O
  O4095    1.0000 0.32636  0.23195  0.30120  Biso   1.000  O
  O4096    1.0000 0.42364  0.23195  0.44880  Biso   1.000  O
  O4097    1.0000 0.57636  0.55120  0.76805  Biso   1.000  O
  O4098    1.0000 0.17364  0.69880  0.26805  Biso   1.000  O
  O4099    1.0000 0.57636  0.69880  0.48195  Biso   1.000  O
  O4100    1.0000 0.17364  0.55120  0.98195  Biso   1.000  O
  O4101    1.0000 0.94880  0.32636  0.01805  Biso   1.000  O
  O4102    1.0000 0.94880  0.92364  0.23195  Biso   1.000  O
  O4103    1.0000 0.80120  0.92364  0.51805  Biso   1.000  O
  O4104    1.0000 0.80120  0.32636  0.73195  Biso   1.000  O
  O4105    1.0000 0.05120  0.76805  0.07636  Biso   1.000  O
  O4106    1.0000 0.19880  0.26805  0.67364  Biso   1.000  O
  O4107    1.0000 0.19880  0.48195  0.07636  Biso   1.000  O
  O4108    1.0000 0.05120  0.98195  0.67364  Biso   1.000  O
  O4109    1.0000 0.73195  0.44880  0.92364  Biso   1.000  O
  O4110    1.0000 0.73195  0.30120  0.82636  Biso   1.000  O
  O4111    1.0000 0.51805  0.94880  0.82636  Biso   1.000  O
  O4112    1.0000 0.01805  0.80120  0.42364  Biso   1.000  O
  O4113    1.0000 0.76805  0.57636  0.55120  Biso   1.000  O
  O4114    1.0000 0.76805  0.67364  0.69880  Biso   1.000  O
  O4115    1.0000 0.98195  0.67364  0.05120  Biso   1.000  O
  O4116    1.0000 0.98195  0.57636  0.19880  Biso   1.000  O
  O4117    1.0000 0.92364  0.51805  0.80120  Biso   1.000  O
  O4118    1.0000 0.82636  0.51805  0.94880  Biso   1.000  O
  O4119    1.0000 0.82636  0.73195  0.30120  Biso   1.000  O
  O4120    1.0000 0.92364  0.73195  0.44880  Biso   1.000  O
  O4121    1.0000 0.07636  0.05120  0.76805  Biso   1.000  O
  O4122    1.0000 0.67364  0.19880  0.26805  Biso   1.000  O
  O4123    1.0000 0.07636  0.19880  0.48195  Biso   1.000  O
  O4124    1.0000 0.67364  0.05120  0.98195  Biso   1.000  O
  O4125    1.0000 0.44880  0.82636  0.01805  Biso   1.000  O
  O4126    1.0000 0.44880  0.42364  0.23195  Biso   1.000  O
  O4127    1.0000 0.30120  0.42364  0.51805  Biso   1.000  O
  O4128    1.0000 0.30120  0.82636  0.73195  Biso   1.000  O
  O4129    1.0000 0.55120  0.26805  0.07636  Biso   1.000  O
  O4130    1.0000 0.69880  0.76805  0.67364  Biso   1.000  O
  O4131    1.0000 0.69880  0.98195  0.07636  Biso   1.000  O
  O4132    1.0000 0.55120  0.48195  0.67364  Biso   1.000  O
  O4133    1.0000 0.23195  0.94880  0.92364  Biso   1.000  O
  O4134    1.0000 0.23195  0.80120  0.82636  Biso   1.000  O
  O4135    1.0000 0.01805  0.44880  0.82636  Biso   1.000  O
  O4136    1.0000 0.51805  0.30120  0.42364  Biso   1.000  O
  O4137    1.0000 0.76805  0.07636  0.05120  Biso   1.000  O
  O4138    1.0000 0.76805  0.17364  0.19880  Biso   1.000  O
  O4139    1.0000 0.98195  0.17364  0.55120  Biso   1.000  O
  O4140    1.0000 0.98195  0.07636  0.69880  Biso   1.000  O
  O4141    1.0000 0.92364  0.01805  0.30120  Biso   1.000  O
  O4142    1.0000 0.82636  0.01805  0.44880  Biso   1.000  O
  O4143    1.0000 0.82636  0.23195  0.80120  Biso   1.000  O
  O4144    1.0000 0.92364  0.23195  0.94880  Biso   1.000  O
  O4145    1.0000 0.07636  0.55120  0.26805  Biso   1.000  O
  O4146    1.0000 0.67364  0.69880  0.76805  Biso   1.000  O
  O4147    1.0000 0.07636  0.69880  0.98195  Biso   1.000  O
  O4148    1.0000 0.67364  0.55120  0.48195  Biso   1.000  O
  O4149    1.0000 0.44880  0.32636  0.51805  Biso   1.000  O
  O4150    1.0000 0.44880  0.92364  0.73195  Biso   1.000  O
  O4151    1.0000 0.30120  0.92364  0.01805  Biso   1.000  O
  O4152    1.0000 0.30120  0.32636  0.23195  Biso   1.000  O
  O4153    1.0000 0.55120  0.76805  0.57636  Biso   1.000  O
  O4154    1.0000 0.69880  0.26805  0.17364  Biso   1.000  O
  O4155    1.0000 0.69880  0.48195  0.57636  Biso   1.000  O
  O4156    1.0000 0.55120  0.98195  0.17364  Biso   1.000  O
  O4157    1.0000 0.23195  0.44880  0.42364  Biso   1.000  O
  O4158    1.0000 0.23195  0.30120  0.32636  Biso   1.000  O
  O4159    1.0000 0.01805  0.94880  0.32636  Biso   1.000  O
  O4160    1.0000 0.51805  0.80120  0.92364  Biso   1.000  O
  O4161    1.0000 0.73195  0.42364  0.94880  Biso   1.000  O
  O4162    1.0000 0.73195  0.32636  0.80120  Biso   1.000  O
  O4163    1.0000 0.51805  0.32636  0.44880  Biso   1.000  O
  O4164    1.0000 0.51805  0.42364  0.30120  Biso   1.000  O
  O4165    1.0000 0.57636  0.48195  0.69880  Biso   1.000  O
  O4166    1.0000 0.67364  0.48195  0.55120  Biso   1.000  O
  O4167    1.0000 0.67364  0.26805  0.19880  Biso   1.000  O
  O4168    1.0000 0.57636  0.26805  0.05120  Biso   1.000  O
  O4169    1.0000 0.42364  0.94880  0.73195  Biso   1.000  O
  O4170    1.0000 0.82636  0.80120  0.23195  Biso   1.000  O
  O4171    1.0000 0.42364  0.80120  0.01805  Biso   1.000  O
  O4172    1.0000 0.82636  0.94880  0.51805  Biso   1.000  O
  O4173    1.0000 0.05120  0.17364  0.48195  Biso   1.000  O
  O4174    1.0000 0.05120  0.57636  0.26805  Biso   1.000  O
  O4175    1.0000 0.19880  0.57636  0.98195  Biso   1.000  O
  O4176    1.0000 0.19880  0.17364  0.76805  Biso   1.000  O
  O4177    1.0000 0.94880  0.73195  0.42364  Biso   1.000  O
  O4178    1.0000 0.80120  0.23195  0.82636  Biso   1.000  O
  O4179    1.0000 0.80120  0.01805  0.42364  Biso   1.000  O
  O4180    1.0000 0.94880  0.51805  0.82636  Biso   1.000  O
  O4181    1.0000 0.26805  0.05120  0.57636  Biso   1.000  O
  O4182    1.0000 0.26805  0.19880  0.67364  Biso   1.000  O
  O4183    1.0000 0.48195  0.55120  0.67364  Biso   1.000  O
  O4184    1.0000 0.98195  0.69880  0.07636  Biso   1.000  O
  O4185    1.0000 0.73195  0.92364  0.44880  Biso   1.000  O
  O4186    1.0000 0.73195  0.82636  0.30120  Biso   1.000  O
  O4187    1.0000 0.51805  0.82636  0.94880  Biso   1.000  O
  O4188    1.0000 0.51805  0.92364  0.80120  Biso   1.000  O
  O4189    1.0000 0.57636  0.98195  0.19880  Biso   1.000  O
  O4190    1.0000 0.67364  0.98195  0.05120  Biso   1.000  O
  O4191    1.0000 0.67364  0.76805  0.69880  Biso   1.000  O
  O4192    1.0000 0.57636  0.76805  0.55120  Biso   1.000  O
  O4193    1.0000 0.42364  0.44880  0.23195  Biso   1.000  O
  O4194    1.0000 0.82636  0.30120  0.73195  Biso   1.000  O
  O4195    1.0000 0.42364  0.30120  0.51805  Biso   1.000  O
  O4196    1.0000 0.82636  0.44880  0.01805  Biso   1.000  O
  O4197    1.0000 0.05120  0.67364  0.98195  Biso   1.000  O
  O4198    1.0000 0.05120  0.07636  0.76805  Biso   1.000  O
  O4199    1.0000 0.19880  0.07636  0.48195  Biso   1.000  O
  O4200    1.0000 0.19880  0.67364  0.26805  Biso   1.000  O
  O4201    1.0000 0.94880  0.23195  0.92364  Biso   1.000  O
  O4202    1.0000 0.80120  0.73195  0.32636  Biso   1.000  O
  O4203    1.0000 0.80120  0.51805  0.92364  Biso   1.000  O
  O4204    1.0000 0.94880  0.01805  0.32636  Biso   1.000  O
  O4205    1.0000 0.26805  0.55120  0.07636  Biso   1.000  O
  O4206    1.0000 0.26805  0.69880  0.17364  Biso   1.000  O
  O4207    1.0000 0.48195  0.05120  0.17364  Biso   1.000  O
  O4208    1.0000 0.98195  0.19880  0.57636  Biso   1.000  O
  O4209    1.0000 0.23195  0.42364  0.44880  Biso   1.000  O
  O4210    1.0000 0.23195  0.32636  0.30120  Biso   1.000  O
  O4211    1.0000 0.01805  0.32636  0.94880  Biso   1.000  O
  O4212    1.0000 0.01805  0.42364  0.80120  Biso   1.000  O
  O4213    1.0000 0.07636  0.48195  0.19880  Biso   1.000  O
  O4214    1.0000 0.17364  0.48195  0.05120  Biso   1.000  O
  O4215    1.0000 0.17364  0.26805  0.69880  Biso   1.000  O
  O4216    1.0000 0.07636  0.26805  0.55120  Biso   1.000  O
  O4217    1.0000 0.92364  0.94880  0.23195  Biso   1.000  O
  O4218    1.0000 0.32636  0.80120  0.73195  Biso   1.000  O
  O4219    1.0000 0.92364  0.80120  0.51805  Biso   1.000  O
  O4220    1.0000 0.32636  0.94880  0.01805  Biso   1.000  O
  O4221    1.0000 0.55120  0.17364  0.98195  Biso   1.000  O
  O4222    1.0000 0.55120  0.57636  0.76805  Biso   1.000  O
  O4223    1.0000 0.69880  0.57636  0.48195  Biso   1.000  O
  O4224    1.0000 0.69880  0.17364  0.26805  Biso   1.000  O
  O4225    1.0000 0.44880  0.73195  0.92364  Biso   1.000  O
  O4226    1.0000 0.30120  0.23195  0.32636  Biso   1.000  O
  O4227    1.0000 0.30120  0.01805  0.92364  Biso   1.000  O
  O4228    1.0000 0.44880  0.51805  0.32636  Biso   1.000  O
  O4229    1.0000 0.76805  0.05120  0.07636  Biso   1.000  O
  O4230    1.0000 0.76805  0.19880  0.17364  Biso   1.000  O
  O4231    1.0000 0.98195  0.55120  0.17364  Biso   1.000  O
  O4232    1.0000 0.48195  0.69880  0.57636  Biso   1.000  O
  O4233    1.0000 0.23195  0.92364  0.94880  Biso   1.000  O
  O4234    1.0000 0.23195  0.82636  0.80120  Biso   1.000  O
  O4235    1.0000 0.01805  0.82636  0.44880  Biso   1.000  O
  O4236    1.0000 0.01805  0.92364  0.30120  Biso   1.000  O
  O4237    1.0000 0.07636  0.98195  0.69880  Biso   1.000  O
  O4238    1.0000 0.17364  0.98195  0.55120  Biso   1.000  O
  O4239    1.0000 0.17364  0.76805  0.19880  Biso   1.000  O
  O4240    1.0000 0.07636  0.76805  0.05120  Biso   1.000  O
  O4241    1.0000 0.92364  0.44880  0.73195  Biso   1.000  O
  O4242    1.0000 0.32636  0.30120  0.23195  Biso   1.000  O
  O4243    1.0000 0.92364  0.30120  0.01805  Biso   1.000  O
  O4244    1.0000 0.32636  0.44880  0.51805  Biso   1.000  O
  O4245    1.0000 0.55120  0.67364  0.48195  Biso   1.000  O
  O4246    1.0000 0.55120  0.07636  0.26805  Biso   1.000  O
  O4247    1.0000 0.69880  0.07636  0.98195  Biso   1.000  O
  O4248    1.0000 0.69880  0.67364  0.76805  Biso   1.000  O
  O4249    1.0000 0.44880  0.23195  0.42364  Biso   1.000  O
  O4250    1.0000 0.30120  0.73195  0.82636  Biso   1.000  O
  O4251    1.0000 0.30120  0.51805  0.42364  Biso   1.000  O
  O4252    1.0000 0.44880  0.01805  0.82636  Biso   1.000  O
  O4253    1.0000 0.76805  0.55120  0.57636  Biso   1.000  O
  O4254    1.0000 0.76805  0.69880  0.67364  Biso   1.000  O
  O4255    1.0000 0.98195  0.05120  0.67364  Biso   1.000  O
  O4256    1.0000 0.48195  0.19880  0.07636  Biso   1.000  O
  O4257    1.0000 0.27675  0.58489  0.08489  Biso   1.000  O
  O4258    1.0000 0.27675  0.66511  0.16511  Biso   1.000  O
  O4259    1.0000 0.47325  0.66511  0.58489  Biso   1.000  O
  O4260    1.0000 0.47325  0.58489  0.66511  Biso   1.000  O
  O4261    1.0000 0.41511  0.52675  0.33489  Biso   1.000  O
  O4262    1.0000 0.33489  0.52675  0.41511  Biso   1.000  O
  O4263    1.0000 0.33489  0.72325  0.83489  Biso   1.000  O
  O4264    1.0000 0.41511  0.72325  0.91511  Biso   1.000  O
  O4265    1.0000 0.58489  0.08489  0.27675  Biso   1.000  O
  O4266    1.0000 0.16511  0.16511  0.77675  Biso   1.000  O
  O4267    1.0000 0.58489  0.16511  0.97325  Biso   1.000  O
  O4268    1.0000 0.16511  0.08489  0.47325  Biso   1.000  O
  O4269    1.0000 0.91511  0.83489  0.52675  Biso   1.000  O
  O4270    1.0000 0.91511  0.41511  0.72325  Biso   1.000  O
  O4271    1.0000 0.83489  0.41511  0.02675  Biso   1.000  O
  O4272    1.0000 0.83489  0.83489  0.22325  Biso   1.000  O
  O4273    1.0000 0.08489  0.27675  0.58489  Biso   1.000  O
  O4274    1.0000 0.16511  0.77675  0.16511  Biso   1.000  O
  O4275    1.0000 0.16511  0.97325  0.58489  Biso   1.000  O
  O4276    1.0000 0.08489  0.47325  0.16511  Biso   1.000  O
  O4277    1.0000 0.72325  0.91511  0.41511  Biso   1.000  O
  O4278    1.0000 0.72325  0.83489  0.33489  Biso   1.000  O
  O4279    1.0000 0.52675  0.41511  0.33489  Biso   1.000  O
  O4280    1.0000 0.02675  0.33489  0.91511  Biso   1.000  O
  O4281    1.0000 0.27675  0.08489  0.58489  Biso   1.000  O
  O4282    1.0000 0.27675  0.16511  0.66511  Biso   1.000  O
  O4283    1.0000 0.47325  0.16511  0.08489  Biso   1.000  O
  O4284    1.0000 0.47325  0.08489  0.16511  Biso   1.000  O
  O4285    1.0000 0.41511  0.02675  0.83489  Biso   1.000  O
  O4286    1.0000 0.33489  0.02675  0.91511  Biso   1.000  O
  O4287    1.0000 0.33489  0.22325  0.33489  Biso   1.000  O
  O4288    1.0000 0.41511  0.22325  0.41511  Biso   1.000  O
  O4289    1.0000 0.58489  0.58489  0.77675  Biso   1.000  O
  O4290    1.0000 0.16511  0.66511  0.27675  Biso   1.000  O
  O4291    1.0000 0.58489  0.66511  0.47325  Biso   1.000  O
  O4292    1.0000 0.16511  0.58489  0.97325  Biso   1.000  O
  O4293    1.0000 0.91511  0.33489  0.02675  Biso   1.000  O
  O4294    1.0000 0.91511  0.91511  0.22325  Biso   1.000  O
  O4295    1.0000 0.83489  0.91511  0.52675  Biso   1.000  O
  O4296    1.0000 0.83489  0.33489  0.72325  Biso   1.000  O
  O4297    1.0000 0.08489  0.77675  0.08489  Biso   1.000  O
  O4298    1.0000 0.16511  0.27675  0.66511  Biso   1.000  O
  O4299    1.0000 0.16511  0.47325  0.08489  Biso   1.000  O
  O4300    1.0000 0.08489  0.97325  0.66511  Biso   1.000  O
  O4301    1.0000 0.72325  0.41511  0.91511  Biso   1.000  O
  O4302    1.0000 0.72325  0.33489  0.83489  Biso   1.000  O
  O4303    1.0000 0.52675  0.91511  0.83489  Biso   1.000  O
  O4304    1.0000 0.02675  0.83489  0.41511  Biso   1.000  O
  O4305    1.0000 0.77675  0.58489  0.58489  Biso   1.000  O
  O4306    1.0000 0.77675  0.66511  0.66511  Biso   1.000  O
  O4307    1.0000 0.97325  0.66511  0.08489  Biso   1.000  O
  O4308    1.0000 0.97325  0.58489  0.16511  Biso   1.000  O
  O4309    1.0000 0.91511  0.52675  0.83489  Biso   1.000  O
  O4310    1.0000 0.83489  0.52675  0.91511  Biso   1.000  O
  O4311    1.0000 0.83489  0.72325  0.33489  Biso   1.000  O
  O4312    1.0000 0.91511  0.72325  0.41511  Biso   1.000  O
  O4313    1.0000 0.08489  0.08489  0.77675  Biso   1.000  O
  O4314    1.0000 0.66511  0.16511  0.27675  Biso   1.000  O
  O4315    1.0000 0.08489  0.16511  0.47325  Biso   1.000  O
  O4316    1.0000 0.66511  0.08489  0.97325  Biso   1.000  O
  O4317    1.0000 0.41511  0.83489  0.02675  Biso   1.000  O
  O4318    1.0000 0.41511  0.41511  0.22325  Biso   1.000  O
  O4319    1.0000 0.33489  0.41511  0.52675  Biso   1.000  O
  O4320    1.0000 0.33489  0.83489  0.72325  Biso   1.000  O
  O4321    1.0000 0.58489  0.27675  0.08489  Biso   1.000  O
  O4322    1.0000 0.66511  0.77675  0.66511  Biso   1.000  O
  O4323    1.0000 0.66511  0.97325  0.08489  Biso   1.000  O
  O4324    1.0000 0.58489  0.47325  0.66511  Biso   1.000  O
  O4325    1.0000 0.22325  0.91511  0.91511  Biso   1.000  O
  O4326    1.0000 0.22325  0.83489  0.83489  Biso   1.000  O
  O4327    1.0000 0.02675  0.41511  0.83489  Biso   1.000  O
  O4328    1.0000 0.52675  0.33489  0.41511  Biso   1.000  O
  O4329    1.0000 0.77675  0.08489  0.08489  Biso   1.000  O
  O4330    1.0000 0.77675  0.16511  0.16511  Biso   1.000  O
  O4331    1.0000 0.97325  0.16511  0.58489  Biso   1.000  O
  O4332    1.0000 0.97325  0.08489  0.66511  Biso   1.000  O
  O4333    1.0000 0.91511  0.02675  0.33489  Biso   1.000  O
  O4334    1.0000 0.83489  0.02675  0.41511  Biso   1.000  O
  O4335    1.0000 0.83489  0.22325  0.83489  Biso   1.000  O
  O4336    1.0000 0.91511  0.22325  0.91511  Biso   1.000  O
  O4337    1.0000 0.08489  0.58489  0.27675  Biso   1.000  O
  O4338    1.0000 0.66511  0.66511  0.77675  Biso   1.000  O
  O4339    1.0000 0.08489  0.66511  0.97325  Biso   1.000  O
  O4340    1.0000 0.66511  0.58489  0.47325  Biso   1.000  O
  O4341    1.0000 0.41511  0.33489  0.52675  Biso   1.000  O
  O4342    1.0000 0.41511  0.91511  0.72325  Biso   1.000  O
  O4343    1.0000 0.33489  0.91511  0.02675  Biso   1.000  O
  O4344    1.0000 0.33489  0.33489  0.22325  Biso   1.000  O
  O4345    1.0000 0.58489  0.77675  0.58489  Biso   1.000  O
  O4346    1.0000 0.66511  0.27675  0.16511  Biso   1.000  O
  O4347    1.0000 0.66511  0.47325  0.58489  Biso   1.000  O
  O4348    1.0000 0.58489  0.97325  0.16511  Biso   1.000  O
  O4349    1.0000 0.22325  0.41511  0.41511  Biso   1.000  O
  O4350    1.0000 0.22325  0.33489  0.33489  Biso   1.000  O
  O4351    1.0000 0.02675  0.91511  0.33489  Biso   1.000  O
  O4352    1.0000 0.52675  0.83489  0.91511  Biso   1.000  O
