data_str_m1_o12435_AFY
_audit_creation_date              2015-10-01T06:31:31-0700
_symmetry_space_group_name_H-M    P1
_symmetry_Int_Tables_number       1
_space_group_crystal_system       triclinic
loop_
_symmetry_equiv_pos_as_xyz
  x,y,z
_cell_length_a                    25.4882089
_cell_length_b                    24.9737421
_cell_length_c                    17.5985912
_cell_angle_alpha                 86.6545613
_cell_angle_beta                  95.6290472
_cell_angle_gamma                 117.053841
_cell_volume                      9927.0910527

loop_
_atom_site_label
_atom_site_type_symbol
_atom_site_description
_atom_site_fract_x
_atom_site_fract_y
_atom_site_fract_z
_atom_type_partial_charge
Zn1   Zn    Zn3+2 0.396320 0.783034 0.753706 0.000000
Zn2   Zn    Zn3+2 0.567270 0.166883 0.760962 0.000000
Zn3   Zn    Zn3+2 0.561304 0.964671 0.549311 0.000000
Zn4   Zn    Zn3+2 0.191374 0.973772 0.719396 0.000000
Zn5   Zn    Zn3+2 0.381892 0.170710 0.531266 0.000000
Zn6   Zn    Zn3+2 0.186394 0.779257 0.541124 0.000000
Zn7   Zn    Zn3+2 0.717431 0.643489 0.334677 0.000000
Zn8   Zn    Zn3+2 0.366277 0.964165 0.324978 0.000000
Zn9   Zn    Zn3+2 0.737946 0.643511 0.964944 0.000000
Zn10  Zn    Zn3+2 0.385397 0.970367 0.956057 0.000000
Zn11  Zn    Zn3+2 0.715868 0.839131 0.542239 0.000000
Zn12  Zn    Zn3+2 0.526858 0.447451 0.540819 0.000000
Zn13  Zn    Zn3+2 0.539401 0.648815 0.722684 0.000000
Zn14  Zn    Zn3+2 0.912375 0.636025 0.562025 0.000000
Zn15  Zn    Zn3+2 0.723675 0.443924 0.765808 0.000000
Zn16  Zn    Zn3+2 0.919751 0.834306 0.757035 0.000000
Br1   Br    Br    0.420808 0.754255 0.349538 0.000000
C1    C     C_R   0.430655 0.771155 0.455502 0.000000
C2    C     C_R   0.392590 0.729197 0.505087 0.000000
C3    C     C_R   0.396204 0.742520 0.581275 0.000000
C4    C     C_R   0.437633 0.798613 0.604904 0.000000
N1    N     N_R   0.445678 0.823803 0.673354 0.000000
C5    C     C_R   0.492427 0.878620 0.666639 0.000000
N2    N     N_R   0.511125 0.889182 0.594965 0.000000
C6    C     C_R   0.476455 0.838027 0.557709 0.000000
C7    C     C_R   0.474399 0.825912 0.482114 0.000000
H1    H     H_    0.359107 0.686374 0.483619 0.000000
H2    H     H_    0.366164 0.710535 0.619812 0.000000
H3    H     H_    0.509577 0.911699 0.711190 0.000000
H4    H     H_    0.504666 0.858273 0.444130 0.000000
Br2   Br    Br    0.183893 0.651206 0.937290 0.000000
C8    C     C_R   0.197776 0.686515 0.837624 0.000000
C9    C     C_R   0.150492 0.682489 0.787490 0.000000
C10   C     C_R   0.159840 0.708049 0.715015 0.000000
C11   C     C_R   0.216268 0.732300 0.692452 0.000000
N3    N     N_R   0.235538 0.758744 0.625037 0.000000
C12   C     C_R   0.294686 0.773538 0.634145 0.000000
N4    N     N_R   0.312767 0.759314 0.705457 0.000000
C13   C     C_R   0.262212 0.733838 0.740594 0.000000
C14   C     C_R   0.254848 0.715294 0.815287 0.000000
H5    H     H_    0.106176 0.660237 0.805748 0.000000
H6    H     H_    0.123531 0.707306 0.677467 0.000000
H7    H     H_    0.324532 0.797296 0.590814 0.000000
H8    H     H_    0.292103 0.723463 0.855546 0.000000
Br3   Br    Br    0.329028 0.912712 0.604901 0.000000
C15   C     C_R   0.404336 0.974509 0.631141 0.000000
C16   C     C_R   0.407840 0.018299 0.676777 0.000000
C17   C     C_R   0.461815 0.062269 0.700997 0.000000
C18   C     C_R   0.512290 0.061748 0.680395 0.000000
N5    N     N_R   0.568807 0.100619 0.700576 0.000000
C19   C     C_R   0.599702 0.078026 0.663208 0.000000
N6    N     N_R   0.563396 0.027158 0.621308 0.000000
C20   C     C_R   0.508987 0.019174 0.634315 0.000000
C21   C     C_R   0.454635 0.974868 0.608368 0.000000
H9    H     H_    0.368252 0.017265 0.695264 0.000000
H10   H     H_    0.461890 0.093874 0.738490 0.000000
H11   H     H_    0.647353 0.099566 0.663806 0.000000
H12   H     H_    0.449787 0.939039 0.574745 0.000000
Br4   Br    Br    0.590085 0.221501 0.361122 0.000000
C22   C     C_R   0.571177 0.213752 0.464243 0.000000
C23   C     C_R   0.614077 0.217851 0.521783 0.000000
C24   C     C_R   0.601843 0.211538 0.597387 0.000000
C25   C     C_R   0.546383 0.201694 0.613109 0.000000
N7    N     N_R   0.524074 0.191461 0.681568 0.000000
C26   C     C_R   0.467435 0.182812 0.664858 0.000000
N8    N     N_R   0.453398 0.182406 0.588381 0.000000
C27   C     C_R   0.504207 0.196217 0.557337 0.000000
C28   C     C_R   0.515189 0.202862 0.481535 0.000000
H13   H     H_    0.657280 0.225727 0.507287 0.000000
H14   H     H_    0.635087 0.214144 0.641978 0.000000
H15   H     H_    0.435236 0.170346 0.706608 0.000000
H16   H     H_    0.481796 0.199642 0.436852 0.000000
Br5   Br    Br    0.159327 0.198658 0.761033 0.000000
C29   C     C_R   0.210614 0.178857 0.709910 0.000000
C30   C     C_R   0.256275 0.223619 0.671979 0.000000
C31   C     C_R   0.293316 0.210052 0.633122 0.000000
C32   C     C_R   0.283695 0.151282 0.633870 0.000000
N9    N     N_R   0.313356 0.127569 0.599648 0.000000
C33   C     C_R   0.286058 0.068109 0.622400 0.000000
N10   N     N_R   0.241066 0.054673 0.668929 0.000000
C34   C     C_R   0.240292 0.107841 0.673839 0.000000
C35   C     C_R   0.202278 0.120065 0.711133 0.000000
H17   H     H_    0.262760 0.269463 0.672522 0.000000
H18   H     H_    0.328814 0.245034 0.604570 0.000000
H19   H     H_    0.298648 0.035024 0.605210 0.000000
H20   H     H_    0.166361 0.085100 0.739187 0.000000
Br6   Br    Br    0.107282 0.918255 0.311442 0.000000
C36   C     C_R   0.123855 0.916703 0.419088 0.000000
C37   C     C_R   0.123496 0.961179 0.462773 0.000000
C38   C     C_R   0.139249 0.963684 0.540440 0.000000
C39   C     C_R   0.155541 0.921299 0.571505 0.000000
N11   N     N_R   0.176699 0.917531 0.643271 0.000000
C40   C     C_R   0.188208 0.869607 0.643584 0.000000
N12   N     N_R   0.175409 0.844191 0.574054 0.000000
C41   C     C_R   0.154780 0.877340 0.529722 0.000000
C42   C     C_R   0.138372 0.873050 0.452762 0.000000
H21   H     H_    0.111891 0.994707 0.435578 0.000000
H22   H     H_    0.139768 0.998432 0.574735 0.000000
H23   H     H_    0.207769 0.854884 0.692279 0.000000
H24   H     H_    0.138600 0.838370 0.419083 0.000000
Br7   Br    Br    0.585838 0.141245 0.180893 0.000000
C43   C     C_R   0.566974 0.089348 0.268503 0.000000
C44   C     C_R   0.612178 0.087565 0.317936 0.000000
C45   C     C_R   0.599455 0.049896 0.381632 0.000000
C46   C     C_R   0.541327 0.013065 0.392613 0.000000
N13   N     N_R   0.518466 0.972936 0.449697 0.000000
C47   C     C_R   0.458777 0.947929 0.429416 0.000000
N14   N     N_R   0.444568 0.973588 0.365584 0.000000
C48   C     C_R   0.497256 0.013964 0.343231 0.000000
C49   C     C_R   0.508466 0.053328 0.282218 0.000000
H25   H     H_    0.657691 0.116038 0.306725 0.000000
H26   H     H_    0.634159 0.048147 0.419308 0.000000
H27   H     H_    0.425311 0.912506 0.460602 0.000000
H28   H     H_    0.473143 0.055887 0.245656 0.000000
Br8   Br    Br    0.136888 0.915170 0.019916 0.000000
C50   C     C_R   0.206962 0.927426 0.081072 0.000000
C51   C     C_R   0.204004 0.915875 0.158577 0.000000
C52   C     C_R   0.254603 0.926741 0.204501 0.000000
C53   C     C_R   0.305696 0.942305 0.169810 0.000000
N15   N     N_R   0.359530 0.958240 0.205077 0.000000
C54   C     C_R   0.393872 0.968681 0.143755 0.000000
N16   N     N_R   0.363205 0.962962 0.072439 0.000000
C55   C     C_R   0.308099 0.948701 0.092530 0.000000
C56   C     C_R   0.260024 0.947674 0.048324 0.000000
H29   H     H_    0.162430 0.900947 0.183194 0.000000
H30   H     H_    0.253526 0.923185 0.265602 0.000000
H31   H     H_    0.440530 0.981117 0.150647 0.000000
H32   H     H_    0.262946 0.965072 0.991290 0.000000
Br9   Br    Br    0.302390 0.127708 0.106963 0.000000
C57   C     C_R   0.328970 0.128740 0.212308 0.000000
C58   C     C_R   0.340252 0.177412 0.256503 0.000000
C59   C     C_R   0.357343 0.177198 0.333380 0.000000
C60   C     C_R   0.359091 0.126761 0.365455 0.000000
N17   N     N_R   0.371006 0.116213 0.439554 0.000000
C61   C     C_R   0.372700 0.061769 0.436701 0.000000
N18   N     N_R   0.361824 0.038829 0.363944 0.000000
C62   C     C_R   0.352472 0.080797 0.321133 0.000000
C63   C     C_R   0.338543 0.081629 0.243781 0.000000
H33   H     H_    0.336536 0.215989 0.230583 0.000000
H34   H     H_    0.371209 0.216399 0.365999 0.000000
H35   H     H_    0.382635 0.039675 0.486622 0.000000
H36   H     H_    0.334238 0.047049 0.207658 0.000000
Br10  Br    Br    0.211898 0.628213 0.295966 0.000000
C64   C     C_R   0.243539 0.711379 0.318640 0.000000
C65   C     C_R   0.285825 0.754097 0.274135 0.000000
C66   C     C_R   0.309210 0.814790 0.289317 0.000000
C67   C     C_R   0.288597 0.830915 0.348780 0.000000
N19   N     N_R   0.303904 0.886847 0.372179 0.000000
C68   C     C_R   0.269316 0.876235 0.431928 0.000000
N20   N     N_R   0.234987 0.815957 0.447818 0.000000
C69   C     C_R   0.247515 0.788962 0.393096 0.000000
C70   C     C_R   0.224073 0.728695 0.379136 0.000000
H37   H     H_    0.300639 0.739769 0.227295 0.000000
H38   H     H_    0.342347 0.848029 0.255284 0.000000
H39   H     H_    0.269289 0.912110 0.463146 0.000000
H40   H     H_    0.190439 0.695890 0.412390 0.000000
Br11  Br    Br    0.961812 0.537058 0.955599 0.000000
C71   C     C_R   0.892028 0.547230 0.954672 0.000000
C72   C     C_R   0.891041 0.589294 0.002001 0.000000
C73   C     C_R   0.841202 0.598086 0.000670 0.000000
C74   C     C_R   0.792874 0.562407 0.953696 0.000000
N21   N     N_R   0.743164 0.568061 0.938633 0.000000
C75   C     C_R   0.712243 0.526136 0.882796 0.000000
N22   N     N_R   0.742326 0.496433 0.861002 0.000000
C76   C     C_R   0.793088 0.520642 0.907308 0.000000
C77   C     C_R   0.843243 0.513421 0.905730 0.000000
H41   H     H_    0.929789 0.616079 0.038894 0.000000
H42   H     H_    0.840405 0.632030 0.035283 0.000000
H43   H     H_    0.672374 0.523205 0.851656 0.000000
H44   H     H_    0.845108 0.482328 0.868296 0.000000
Br12  Br    Br    0.817050 0.960589 0.926638 0.000000
C78   C     C_R   0.814328 0.882929 0.931997 0.000000
C79   C     C_R   0.774766 0.838233 0.977088 0.000000
C80   C     C_R   0.772427 0.781809 0.981602 0.000000
C81   C     C_R   0.811324 0.772404 0.942120 0.000000
N23   N     N_R   0.812496 0.719954 0.934661 0.000000
C82   C     C_R   0.855446 0.734535 0.883463 0.000000
N24   N     N_R   0.877234 0.792866 0.855773 0.000000
C83   C     C_R   0.849290 0.815497 0.896034 0.000000
C84   C     C_R   0.851127 0.871318 0.890008 0.000000
H45   H     H_    0.745369 0.847442 0.008310 0.000000
H46   H     H_    0.740766 0.746408 0.015038 0.000000
H47   H     H_    0.865324 0.701713 0.859202 0.000000
H48   H     H_    0.881159 0.905862 0.855375 0.000000
Br13  Br    Br    0.718929 0.630428 0.566958 0.000000
C85   C     C_R   0.711128 0.646268 0.666454 0.000000
C86   C     C_R   0.751471 0.643803 0.721706 0.000000
C87   C     C_R   0.742737 0.645022 0.796389 0.000000
C88   C     C_R   0.693892 0.649200 0.815058 0.000000
N25   N     N_R   0.676608 0.646914 0.885272 0.000000
C89   C     C_R   0.623117 0.648476 0.870107 0.000000
N26   N     N_R   0.607727 0.650918 0.793119 0.000000
C90   C     C_R   0.654156 0.652191 0.760926 0.000000
C91   C     C_R   0.662898 0.652589 0.684872 0.000000
H49   H     H_    0.788355 0.637707 0.706524 0.000000
H50   H     H_    0.772283 0.638231 0.837412 0.000000
H51   H     H_    0.595561 0.647053 0.913858 0.000000
H52   H     H_    0.631969 0.653593 0.639659 0.000000
Br14  Br    Br    0.489464 0.503377 0.017058 0.000000
C92   C     C_R   0.557567 0.553781 0.079601 0.000000
C93   C     C_R   0.552374 0.562437 0.155229 0.000000
C94   C     C_R   0.602180 0.594578 0.203324 0.000000
C95   C     C_R   0.656185 0.617793 0.173531 0.000000
N27   N     N_R   0.709985 0.644025 0.211831 0.000000
C96   C     C_R   0.747025 0.658928 0.152412 0.000000
N28   N     N_R   0.717517 0.640742 0.080516 0.000000
C97   C     C_R   0.660698 0.613751 0.097425 0.000000
C98   C     C_R   0.612096 0.580087 0.049726 0.000000
H53   H     H_    0.509291 0.542223 0.177327 0.000000
H54   H     H_    0.598327 0.600597 0.262307 0.000000
H55   H     H_    0.794684 0.680406 0.161741 0.000000
H56   H     H_    0.616302 0.571388 0.991984 0.000000
Br15  Br    Br    0.587704 0.822458 0.010910 0.000000
C99   C     C_R   0.529793 0.850280 0.985056 0.000000
C100  C     C_R   0.526322 0.891497 0.031799 0.000000
C101  C     C_R   0.484987 0.912836 0.013824 0.000000
C102  C     C_R   0.447680 0.891336 0.949231 0.000000
N29   N     N_R   0.405710 0.906851 0.919932 0.000000
C103  C     C_R   0.384442 0.874263 0.853754 0.000000
N30   N     N_R   0.411471 0.839094 0.841866 0.000000
C104  C     C_R   0.451121 0.851079 0.903043 0.000000
C105  C     C_R   0.492044 0.829758 0.919485 0.000000
H57   H     H_    0.556458 0.907313 0.082354 0.000000
H58   H     H_    0.482428 0.945372 0.049184 0.000000
H59   H     H_    0.350809 0.877154 0.813762 0.000000
H60   H     H_    0.495416 0.798688 0.882538 0.000000
Br16  Br    Br    0.463845 0.203057 0.134605 0.000000
C106  C     C_R   0.479669 0.180467 0.041808 0.000000
C107  C     C_R   0.520962 0.224229 0.997328 0.000000
C108  C     C_R   0.535331 0.209275 0.930641 0.000000
C109  C     C_R   0.509816 0.149566 0.913033 0.000000
N31   N     N_R   0.520810 0.124218 0.855226 0.000000
C110  C     C_R   0.487042 0.063547 0.869494 0.000000
N32   N     N_R   0.452199 0.051393 0.928911 0.000000
C111  C     C_R   0.469177 0.106384 0.956853 0.000000
C112  C     C_R   0.452049 0.120683 0.020946 0.000000
H61   H     H_    0.542948 0.270194 0.016097 0.000000
H62   H     H_    0.567425 0.243128 0.896012 0.000000
H63   H     H_    0.485571 0.028285 0.835419 0.000000
H64   H     H_    0.420537 0.086548 0.055980 0.000000
Br17  Br    Br    0.075309 0.747000 0.889134 0.000000
C113  C     C_R   0.154114 0.809307 0.884806 0.000000
C114  C     C_R   0.199405 0.807412 0.934048 0.000000
C115  C     C_R   0.256264 0.853947 0.934654 0.000000
C116  C     C_R   0.265457 0.902534 0.887171 0.000000
N33   N     N_R   0.314060 0.956040 0.886470 0.000000
C117  C     C_R   0.297856 0.988955 0.832865 0.000000
N34   N     N_R   0.240675 0.957744 0.802482 0.000000
C118  C     C_R   0.221453 0.904203 0.838912 0.000000
C119  C     C_R   0.165227 0.857667 0.835220 0.000000
H65   H     H_    0.189810 0.770155 0.973790 0.000000
H66   H     H_    0.291107 0.853540 0.974557 0.000000
H67   H     H_    0.327036 0.034545 0.816249 0.000000
H68   H     H_    0.130109 0.859492 0.797524 0.000000
Br18  Br    Br    0.947392 0.087911 0.787170 0.000000
C120  C     C_R   0.892400 0.015623 0.737410 0.000000
C121  C     C_R   0.837566 0.009624 0.707441 0.000000
C122  C     C_R   0.797687 0.957909 0.669610 0.000000
C123  C     C_R   0.814433 0.913699 0.661313 0.000000
N35   N     N_R   0.784483 0.861009 0.624284 0.000000
C124  C     C_R   0.816324 0.830442 0.648920 0.000000
N36   N     N_R   0.865223 0.863135 0.697372 0.000000
C125  C     C_R   0.864269 0.916318 0.700320 0.000000
C126  C     C_R   0.905907 0.968048 0.735092 0.000000
H69   H     H_    0.825853 0.045546 0.713826 0.000000
H70   H     H_    0.753865 0.951683 0.651419 0.000000
H71   H     H_    0.804337 0.785260 0.631546 0.000000
H72   H     H_    0.947186 0.971190 0.761447 0.000000
Br19  Br    Br    0.891834 0.107980 0.493541 0.000000
C127  C     C_R   0.809283 0.061742 0.503740 0.000000
C128  C     C_R   0.775268 0.090731 0.514683 0.000000
C129  C     C_R   0.715690 0.057974 0.525117 0.000000
C130  C     C_R   0.691140 0.996449 0.521065 0.000000
N37   N     N_R   0.635441 0.956150 0.533830 0.000000
C131  C     C_R   0.637889 0.902306 0.534010 0.000000
N38   N     N_R   0.692511 0.907615 0.521285 0.000000
C132  C     C_R   0.724695 0.967656 0.511463 0.000000
C133  C     C_R   0.784342 0.999542 0.503568 0.000000
H73   H     H_    0.795834 0.139254 0.516827 0.000000
H74   H     H_    0.689658 0.080223 0.536936 0.000000
H75   H     H_    0.600936 0.860145 0.547119 0.000000
H76   H     H_    0.811865 0.977386 0.501264 0.000000
Br20  Br    Br    0.531223 0.710280 0.308085 0.000000
C134  C     C_R   0.538864 0.711583 0.416963 0.000000
C135  C     C_R   0.493981 0.669219 0.458409 0.000000
C136  C     C_R   0.500864 0.667515 0.537455 0.000000
C137  C     C_R   0.553976 0.707108 0.572678 0.000000
N39   N     N_R   0.573650 0.709995 0.646836 0.000000
C138  C     C_R   0.629240 0.756189 0.649770 0.000000
N40   N     N_R   0.645204 0.779473 0.579526 0.000000
C139  C     C_R   0.596985 0.748649 0.532422 0.000000
C140  C     C_R   0.590225 0.753651 0.454332 0.000000
H77   H     H_    0.453456 0.637292 0.428766 0.000000
H78   H     H_    0.465420 0.636289 0.569577 0.000000
H79   H     H_    0.659165 0.769088 0.700810 0.000000
H80   H     H_    0.624335 0.787712 0.422394 0.000000
Br21  Br    Br    0.866933 0.872336 0.177370 0.000000
C141  C     C_R   0.823185 0.850895 0.265475 0.000000
C142  C     C_R   0.823088 0.895702 0.308729 0.000000
C143  C     C_R   0.791835 0.881149 0.373148 0.000000
C144  C     C_R   0.760970 0.821548 0.392286 0.000000
N41   N     N_R   0.728404 0.797374 0.452355 0.000000
C145  C     C_R   0.707152 0.736452 0.441577 0.000000
N42   N     N_R   0.726325 0.722597 0.378315 0.000000
C146  C     C_R   0.760125 0.777429 0.348969 0.000000
C147  C     C_R   0.791627 0.790855 0.285742 0.000000
H81   H     H_    0.847732 0.942344 0.292006 0.000000
H82   H     H_    0.791125 0.915504 0.406236 0.000000
H83   H     H_    0.677785 0.702966 0.479074 0.000000
H84   H     H_    0.792130 0.756049 0.252955 0.000000
Br22  Br    Br    0.519054 0.366234 0.943909 0.000000
C148  C     C_R   0.534549 0.382477 0.839298 0.000000
C149  C     C_R   0.489128 0.378344 0.785671 0.000000
C150  C     C_R   0.500083 0.394434 0.710220 0.000000
C151  C     C_R   0.557187 0.415716 0.691221 0.000000
N43   N     N_R   0.578601 0.437278 0.623300 0.000000
C152  C     C_R   0.637424 0.452518 0.636058 0.000000
N44   N     N_R   0.652472 0.441190 0.709803 0.000000
C153  C     C_R   0.601109 0.418309 0.742821 0.000000
C154  C     C_R   0.591119 0.400689 0.817633 0.000000
H85   H     H_    0.445079 0.363280 0.803275 0.000000
H86   H     H_    0.464816 0.390788 0.668396 0.000000
H87   H     H_    0.668555 0.471627 0.592809 0.000000
H88   H     H_    0.626332 0.403091 0.858935 0.000000
Br23  Br    Br    0.225785 0.271431 0.337529 0.000000
C155  C     C_R   0.302760 0.302824 0.389492 0.000000
C156  C     C_R   0.340954 0.363967 0.383738 0.000000
C157  C     C_R   0.396664 0.387990 0.422292 0.000000
C158  C     C_R   0.412684 0.349247 0.465185 0.000000
N45   N     N_R   0.462432 0.363057 0.511143 0.000000
C159  C     C_R   0.456224 0.307434 0.536235 0.000000
N46   N     N_R   0.404146 0.260156 0.508675 0.000000
C160  C     C_R   0.376809 0.288684 0.466801 0.000000
C161  C     C_R   0.320349 0.264419 0.431947 0.000000
H89   H     H_    0.326564 0.393182 0.350062 0.000000
H90   H     H_    0.425872 0.435697 0.420218 0.000000
H91   H     H_    0.488946 0.301828 0.575035 0.000000
H92   H     H_    0.291034 0.216835 0.436208 0.000000
Br24  Br    Br    0.258692 0.381809 0.575155 0.000000
C162  C     C_R   0.335357 0.444838 0.602416 0.000000
C163  C     C_R   0.340879 0.495538 0.637744 0.000000
C164  C     C_R   0.396117 0.540571 0.660560 0.000000
C165  C     C_R   0.444816 0.534011 0.645847 0.000000
N47   N     N_R   0.502294 0.570746 0.665013 0.000000
C166  C     C_R   0.530626 0.544030 0.631491 0.000000
N48   N     N_R   0.493662 0.493765 0.591858 0.000000
C167  C     C_R   0.439558 0.487167 0.604388 0.000000
C168  C     C_R   0.385053 0.440118 0.585895 0.000000
H93   H     H_    0.301746 0.499420 0.648595 0.000000
H94   H     H_    0.400098 0.580208 0.686392 0.000000
H95   H     H_    0.577086 0.558120 0.636975 0.000000
H96   H     H_    0.380266 0.399492 0.562424 0.000000
Br25  Br    Br    0.531428 0.315775 0.275526 0.000000
C169  C     C_R   0.574985 0.395718 0.310468 0.000000
C170  C     C_R   0.617816 0.438429 0.267122 0.000000
C171  C     C_R   0.645818 0.497972 0.288398 0.000000
C172  C     C_R   0.628884 0.513452 0.351886 0.000000
N49   N     N_R   0.647118 0.568975 0.379252 0.000000
C173  C     C_R   0.613097 0.557158 0.440582 0.000000
N50   N     N_R   0.577546 0.496678 0.453523 0.000000
C174  C     C_R   0.587826 0.471044 0.395383 0.000000
C175  C     C_R   0.561023 0.411435 0.376753 0.000000
H97   H     H_    0.628242 0.425358 0.215355 0.000000
H98   H     H_    0.677450 0.531112 0.253504 0.000000
H99   H     H_    0.614307 0.591662 0.475779 0.000000
H100  H     H_    0.528104 0.377738 0.409887 0.000000
Br26  Br    Br    0.347878 0.474073 0.922619 0.000000
C176  C     C_R   0.374364 0.554656 0.885410 0.000000
C177  C     C_R   0.340574 0.584157 0.894537 0.000000
C178  C     C_R   0.355326 0.640572 0.862355 0.000000
C179  C     C_R   0.404118 0.666444 0.821278 0.000000
N51   N     N_R   0.423374 0.717700 0.778723 0.000000
C180  C     C_R   0.471234 0.718595 0.747461 0.000000
N52   N     N_R   0.481301 0.670018 0.767861 0.000000
C181  C     C_R   0.438689 0.638319 0.814904 0.000000
C182  C     C_R   0.424930 0.582245 0.846250 0.000000
H101  H     H_    0.301282 0.562039 0.925255 0.000000
H102  H     H_    0.328133 0.662059 0.868178 0.000000
H103  H     H_    0.497778 0.753257 0.708619 0.000000
H104  H     H_    0.450978 0.559313 0.837506 0.000000
Br27  Br    Br    0.926762 0.384372 0.813171 0.000000
C183  C     C_R   0.910668 0.443378 0.756480 0.000000
C184  C     C_R   0.956784 0.494143 0.727738 0.000000
C185  C     C_R   0.945849 0.537222 0.685862 0.000000
C186  C     C_R   0.888284 0.527404 0.672086 0.000000
N53   N     N_R   0.867522 0.562790 0.632826 0.000000
C187  C     C_R   0.809565 0.537328 0.651474 0.000000
N54   N     N_R   0.794225 0.487514 0.699273 0.000000
C188  C     C_R   0.844172 0.481161 0.707735 0.000000
C189  C     C_R   0.853571 0.436998 0.747684 0.000000
H105  H     H_    0.001632 0.500243 0.738562 0.000000
H106  H     H_    0.981816 0.578225 0.667602 0.000000
H107  H     H_    0.779652 0.555930 0.632691 0.000000
H108  H     H_    0.818060 0.399256 0.773053 0.000000
Br28  Br    Br    0.957523 0.835703 0.354242 0.000000
C190  C     C_R   0.952059 0.822910 0.461390 0.000000
C191  C     C_R   0.955022 0.867966 0.506785 0.000000
C192  C     C_R   0.947176 0.857594 0.583917 0.000000
C193  C     C_R   0.934171 0.800901 0.612984 0.000000
N55   N     N_R   0.921664 0.779409 0.684507 0.000000
C194  C     C_R   0.912909 0.721408 0.681274 0.000000
N56   N     N_R   0.919374 0.707042 0.610176 0.000000
C195  C     C_R   0.932824 0.757855 0.569007 0.000000
C196  C     C_R   0.943223 0.767838 0.493108 0.000000
H109  H     H_    0.963245 0.911343 0.481682 0.000000
H110  H     H_    0.951356 0.893403 0.619134 0.000000
H111  H     H_    0.901632 0.690246 0.729224 0.000000
H112  H     H_    0.943554 0.733912 0.458311 0.000000
Br29  Br    Br    0.996540 0.443726 0.518587 0.000000
C197  C     C_R   0.031851 0.529302 0.521171 0.000000
C198  C     C_R   0.092805 0.562383 0.520629 0.000000
C199  C     C_R   0.119349 0.624507 0.523250 0.000000
C200  C     C_R   0.083494 0.652040 0.524224 0.000000
N57   N     N_R   0.100463 0.711241 0.529774 0.000000
C201  C     C_R   0.048017 0.712487 0.540620 0.000000
N58   N     N_R   0.999436 0.656425 0.540814 0.000000
C202  C     C_R   0.023716 0.619608 0.528928 0.000000
C203  C     C_R   0.996732 0.557763 0.526524 0.000000
H113  H     H_    0.119776 0.539364 0.519169 0.000000
H114  H     H_    0.166849 0.650174 0.526471 0.000000
H115  H     H_    0.045936 0.753390 0.552380 0.000000
H116  H     H_    0.949728 0.531620 0.530442 0.000000
Br30  Br    Br    0.922613 0.505683 0.286283 0.000000
C204  C     C_R   0.878021 0.545014 0.312152 0.000000
C205  C     C_R   0.835175 0.548033 0.259548 0.000000
C206  C     C_R   0.803041 0.577198 0.277042 0.000000
C207  C     C_R   0.814445 0.602500 0.347805 0.000000
N59   N     N_R   0.789537 0.633503 0.376911 0.000000
C208  C     C_R   0.819909 0.649714 0.447294 0.000000
N60   N     N_R   0.860359 0.627807 0.463843 0.000000
C209  C     C_R   0.856408 0.599214 0.399434 0.000000
C210  C     C_R   0.889067 0.571070 0.382883 0.000000
H117  H     H_    0.827291 0.528029 0.204124 0.000000
H118  H     H_    0.771287 0.580542 0.235093 0.000000
H119  H     H_    0.814310 0.678772 0.484926 0.000000
H120  H     H_    0.923005 0.570157 0.422754 0.000000
Br31  Br    Br    0.735801 0.196623 0.038722 0.000000
C211  C     C_R   0.726231 0.248169 0.960316 0.000000
C212  C     C_R   0.759862 0.310129 0.965981 0.000000
C213  C     C_R   0.753089 0.348586 0.910265 0.000000
C214  C     C_R   0.713524 0.323798 0.848418 0.000000
N61   N     N_R   0.697460 0.352314 0.789775 0.000000
C215  C     C_R   0.651527 0.304722 0.751548 0.000000
N62   N     N_R   0.639598 0.248854 0.783725 0.000000
C216  C     C_R   0.679758 0.262706 0.843976 0.000000
C217  C     C_R   0.684775 0.223795 0.899135 0.000000
H121  H     H_    0.791012 0.328582 0.015079 0.000000
H122  H     H_    0.777170 0.396238 0.916748 0.000000
H123  H     H_    0.624849 0.311039 0.703681 0.000000
H124  H     H_    0.657044 0.175848 0.895230 0.000000
Br32  Br    Br    0.024826 0.009123 0.028154 0.000000
C218  C     C_R   0.053600 0.993811 0.940103 0.000000
C219  C     C_R   0.113035 0.026769 0.927336 0.000000
C220  C     C_R   0.135371 0.014328 0.865760 0.000000
C221  C     C_R   0.096224 0.971476 0.815656 0.000000
N63   N     N_R   0.108543 0.952107 0.753215 0.000000
C222  C     C_R   0.054042 0.907161 0.727860 0.000000
N64   N     N_R   0.008655 0.898516 0.771969 0.000000
C223  C     C_R   0.037392 0.939675 0.827181 0.000000
C224  C     C_R   0.015438 0.948822 0.890652 0.000000
H125  H     H_    0.142413 0.060936 0.967276 0.000000
H126  H     H_    0.181964 0.037962 0.857239 0.000000
H127  H     H_    0.048403 0.879129 0.680327 0.000000
H128  H     H_    0.970464 0.921349 0.902961 0.000000

loop_
_geom_bond_atom_site_label_1
_geom_bond_atom_site_label_2
_geom_bond_distance
_geom_bond_site_symmetry_2
_ccdc_geom_bond_type
Zn1   N1    1.906 .      S
Zn1   N4    2.040 .      S
Zn1   N30   2.040 .      S
Zn1   N51   2.052 .      S
Zn2   N5    2.035 .      S
Zn2   N7    1.938 .      S
Zn2   N31   2.079 .      S
Zn2   N62   2.066 .      S
Zn3   N2    1.915 .      S
Zn3   N6    2.046 1_565  S
Zn3   N13   2.024 .      S
Zn3   N37   2.041 .      S
Zn4   N10   2.039 1_565  S
Zn4   N11   1.884 .      S
Zn4   N34   1.976 .      S
Zn4   N63   2.067 .      S
Zn5   N8    1.899 .      S
Zn5   N9    2.052 .      S
Zn5   N17   2.088 .      S
Zn5   N46   2.063 .      S
Zn6   N3    2.036 .      S
Zn6   N12   1.897 .      S
Zn6   N20   2.064 .      S
Zn6   N57   2.072 .      S
Zn7   N27   2.151 .      S
Zn7   N42   2.069 .      S
Zn7   N49   2.089 .      S
Zn7   N59   2.030 .      S
Zn8   N14   1.965 .      S
Zn8   N15   2.109 .      S
Zn8   N18   2.078 1_565  S
Zn8   N19   2.056 .      S
Zn9   N21   2.031 .      S
Zn9   N23   2.078 .      S
Zn9   N25   2.023 .      S
Zn9   N28   2.138 1_556  S
Zn10  N16   2.153 1_556  S
Zn10  N29   2.029 .      S
Zn10  N32   2.033 1_565  S
Zn10  N33   1.989 .      S
Zn11  N35   2.042 .      S
Zn11  N38   2.056 .      S
Zn11  N40   1.890 .      S
Zn11  N41   2.070 .      S
Zn12  N43   1.949 .      S
Zn12  N45   2.055 .      S
Zn12  N48   2.005 .      S
Zn12  N50   2.065 .      S
Zn13  N26   2.018 .      S
Zn13  N39   1.912 .      S
Zn13  N47   2.023 .      S
Zn13  N52   2.025 .      S
Zn14  N53   2.078 .      S
Zn14  N56   1.937 .      S
Zn14  N58   2.106 .      S
Zn14  N60   2.032 .      S
Zn15  N22   2.070 .      S
Zn15  N44   1.953 .      S
Zn15  N54   2.067 .      S
Zn15  N61   2.100 .      S
Zn16  N24   2.099 .      S
Zn16  N36   2.022 .      S
Zn16  N55   1.946 .      S
Zn16  N64   2.098 1_655  S
Br1   C1    1.903 .      S
C2    H1    1.081 .      S
C3    H2    1.080 .      S
C5    H3    1.081 .      S
C7    H4    1.080 .      S
Br2   C8    1.907 .      S
C9    H5    1.080 .      S
C10   H6    1.077 .      S
C12   H7    1.078 .      S
C14   H8    1.074 .      S
Br3   C15   1.869 .      S
C16   H9    1.079 .      S
C17   H10   1.057 .      S
C19   H11   1.081 .      S
N6    Zn3   2.046 1_545  S
C21   H12   1.055 .      S
Br4   C22   1.900 .      S
C23   H13   1.081 .      S
C24   H14   1.079 .      S
C26   H15   1.081 .      S
C28   H16   1.078 .      S
Br5   C29   1.906 .      S
C30   H17   1.080 .      S
C31   H18   1.074 .      S
C33   H19   1.080 .      S
N10   Zn4   2.039 1_545  S
C35   H20   1.075 .      S
Br6   C36   1.902 .      S
C37   H21   1.081 .      S
C38   H22   1.080 .      S
C40   H23   1.079 .      S
C42   H24   1.080 .      S
Br7   C43   1.906 .      S
C44   H25   1.081 .      S
C45   H26   1.068 .      S
C47   H27   1.077 .      S
C49   H28   1.078 .      S
Br8   C50   1.899 .      S
C51   H29   1.078 .      S
C52   H30   1.076 .      S
C54   H31   1.080 .      S
N16   Zn10  2.153 1_554  S
C56   H32   1.066 1_554  S
H32   C56   1.066 1_556  S
Br9   C57   1.908 .      S
C58   H33   1.081 .      S
C59   H34   1.060 .      S
C61   H35   1.080 .      S
N18   Zn8   2.078 1_545  S
C63   H36   1.061 .      S
Br10  C64   1.906 .      S
C65   H37   1.081 .      S
C66   H38   1.079 .      S
C68   H39   1.078 .      S
C70   H40   1.073 .      S
Br11  C71   1.906 .      S
C72   H41   1.081 .      S
C73   H42   1.081 .      S
C75   H43   1.080 .      S
C77   H44   1.067 .      S
Br12  C78   1.906 .      S
C79   H45   1.081 1_556  S
C80   H46   1.078 1_556  S
C82   H47   1.080 .      S
C84   H48   1.064 .      S
H45   C79   1.081 1_554  S
H46   C80   1.078 1_554  S
Br13  C85   1.866 .      S
C86   H49   1.078 .      S
C87   H50   1.055 .      S
C89   H51   1.081 .      S
C91   H52   1.071 .      S
Br14  C92   1.900 .      S
C93   H53   1.081 .      S
C94   H54   1.078 .      S
C96   H55   1.081 .      S
N28   Zn9   2.138 1_554  S
C98   H56   1.077 1_554  S
H56   C98   1.077 1_556  S
Br15  C99   1.906 1_554  S
C99   Br15  1.906 1_556  S
C100  H57   1.081 .      S
C101  H58   1.080 .      S
C103  H59   1.080 .      S
C105  H60   1.078 .      S
Br16  C106  1.895 .      S
C107  H61   1.079 1_556  S
C108  H62   1.079 .      S
C110  H63   1.079 .      S
N32   Zn10  2.033 1_545  S
C112  H64   1.079 .      S
H61   C107  1.079 1_554  S
Br17  C113  1.906 .      S
C114  H65   1.080 .      S
C115  H66   1.080 .      S
C117  H67   1.081 1_565  S
C119  H68   1.077 .      S
H67   C117  1.081 1_545  S
Br18  C120  1.906 .      S
C121  H69   1.081 .      S
C122  H70   1.073 .      S
C124  H71   1.081 .      S
C126  H72   1.078 .      S
Br19  C127  1.906 .      S
C128  H73   1.081 .      S
C129  H74   1.081 .      S
C131  H75   1.078 .      S
C133  H76   1.078 .      S
Br20  C134  1.908 .      S
C135  H77   1.081 .      S
C136  H78   1.073 .      S
C138  H79   1.081 .      S
C140  H80   1.078 .      S
Br21  C141  1.906 .      S
C142  H81   1.081 .      S
C143  H82   1.072 .      S
C145  H83   1.076 .      S
C147  H84   1.076 .      S
Br22  C148  1.903 .      S
C149  H85   1.081 .      S
C150  H86   1.078 .      S
C152  H87   1.081 .      S
C154  H88   1.080 .      S
Br23  C155  1.906 .      S
C156  H89   1.081 .      S
C157  H90   1.081 .      S
C159  H91   1.079 .      S
C161  H92   1.081 .      S
Br24  C162  1.906 .      S
C163  H93   1.081 .      S
C164  H94   1.072 .      S
C166  H95   1.067 .      S
C168  H96   1.068 .      S
Br25  C169  1.895 .      S
C170  H97   1.081 .      S
C171  H98   1.069 .      S
C173  H99   1.078 .      S
C175  H100  1.072 .      S
Br26  C176  1.906 .      S
C177  H101  1.081 .      S
C178  H102  1.067 .      S
C180  H103  1.079 .      S
C182  H104  1.081 .      S
Br27  C183  1.906 .      S
C184  H105  1.081 1_655  S
C185  H106  1.076 .      S
C187  H107  1.078 .      S
C189  H108  1.078 .      S
H105  C184  1.081 1_455  S
Br28  C190  1.902 .      S
C191  H109  1.081 .      S
C192  H110  1.077 .      S
C194  H111  1.081 .      S
C196  H112  1.078 .      S
Br29  C197  1.906 1_655  S
C197  Br29  1.906 1_455  S
C198  H113  1.081 .      S
C199  H114  1.079 .      S
C201  H115  1.079 .      S
C203  H116  1.080 .      S
Br30  C204  1.906 .      S
C205  H117  1.081 .      S
C206  H118  1.070 .      S
C208  H119  1.074 .      S
C210  H120  1.067 .      S
Br31  C211  1.906 1_554  S
C211  Br31  1.906 1_556  S
C212  H121  1.081 1_556  S
C213  H122  1.069 .      S
C215  H123  1.080 .      S
C217  H124  1.081 .      S
H121  C212  1.081 1_554  S
Br32  C218  1.906 1_544  S
C218  Br32  1.906 1_566  S
C219  H125  1.081 .      S
C220  H126  1.081 .      S
C222  H127  1.079 .      S
N64   Zn16  2.098 1_455  S
C224  H128  1.071 1_455  S
H128  C224  1.071 1_655  S
C1    C2    1.391 .      A
C1    C7    1.385 .      A
C2    C3    1.385 .      A
C3    C4    1.374 .      A
C4    N1    1.346 .      A
C4    C6    1.348 .      A
N1    C5    1.354 .      A
C5    N2    1.361 .      A
N2    C6    1.342 .      A
C6    C7    1.372 .      A
C8    C9    1.390 .      A
C8    C14   1.384 .      A
C9    C10   1.385 .      A
C10   C11   1.373 .      A
C11   N3    1.346 .      A
C11   C13   1.363 .      A
N3    C12   1.374 .      A
C12   N4    1.377 .      A
N4    C13   1.346 .      A
C13   C14   1.370 .      A
C15   C16   1.360 1_565  A
C15   C21   1.376 .      A
C16   C15   1.360 1_545  A
C16   C17   1.358 .      A
C17   C18   1.376 .      A
C18   N5    1.346 .      A
C18   C20   1.342 .      A
N5    C19   1.386 .      A
C19   N6    1.386 .      A
N6    C20   1.349 .      A
C20   C21   1.376 1_545  A
C21   C20   1.376 1_565  A
C22   C23   1.387 .      A
C22   C28   1.388 .      A
C23   C24   1.380 .      A
C24   C25   1.374 .      A
C25   N7    1.344 .      A
C25   C27   1.346 .      A
N7    C26   1.363 .      A
C26   N8    1.358 .      A
N8    C27   1.344 .      A
C27   C28   1.375 .      A
C29   C30   1.390 .      A
C29   C35   1.384 .      A
C30   C31   1.385 .      A
C31   C32   1.373 .      A
C32   N9    1.350 .      A
C32   C34   1.367 .      A
N9    C33   1.377 .      A
C33   N10   1.379 .      A
N10   C34   1.345 .      A
C34   C35   1.371 .      A
C36   C37   1.391 .      A
C36   C42   1.387 .      A
C37   C38   1.383 .      A
C38   C39   1.371 .      A
C39   N11   1.339 .      A
C39   C41   1.348 .      A
N11   C40   1.355 .      A
C40   N12   1.353 .      A
N12   C41   1.346 .      A
C41   C42   1.373 .      A
C43   C44   1.390 .      A
C43   C49   1.384 .      A
C44   C45   1.385 .      A
C45   C46   1.369 .      A
C46   N13   1.349 1_545  A
C46   C48   1.359 .      A
N13   C46   1.349 1_565  A
N13   C47   1.374 .      A
C47   N14   1.360 .      A
N14   C48   1.342 1_565  A
C48   N14   1.342 1_545  A
C48   C49   1.372 .      A
C50   C51   1.380 .      A
C50   C56   1.383 .      A
C51   C52   1.376 .      A
C52   C53   1.374 .      A
C53   N15   1.338 .      A
C53   C55   1.364 .      A
N15   C54   1.394 .      A
C54   N16   1.390 .      A
N16   C55   1.361 .      A
C55   C56   1.376 .      A
C57   C58   1.383 .      A
C57   C63   1.382 .      A
C58   C59   1.381 .      A
C59   C60   1.368 .      A
C60   N17   1.348 .      A
C60   C62   1.363 .      A
N17   C61   1.384 .      A
C61   N18   1.384 .      A
N18   C62   1.350 .      A
C62   C63   1.374 .      A
C64   C65   1.391 .      A
C64   C70   1.385 .      A
C65   C66   1.385 .      A
C66   C67   1.372 .      A
C67   N19   1.346 .      A
C67   C69   1.367 .      A
N19   C68   1.375 .      A
C68   N20   1.382 .      A
N20   C69   1.348 .      A
C69   C70   1.371 .      A
C71   C72   1.389 1_556  A
C71   C77   1.386 .      A
C72   C71   1.389 1_554  A
C72   C73   1.382 .      A
C73   C74   1.372 1_554  A
C74   C73   1.372 1_556  A
C74   N21   1.337 .      A
C74   C76   1.364 .      A
N21   C75   1.379 .      A
C75   N22   1.376 .      A
N22   C76   1.357 .      A
C76   C77   1.373 .      A
C78   C79   1.386 .      A
C78   C84   1.385 .      A
C79   C80   1.381 .      A
C80   C81   1.374 .      A
C81   N23   1.338 .      A
C81   C83   1.363 .      A
N23   C82   1.391 .      A
C82   N24   1.379 .      A
N24   C83   1.357 .      A
C83   C84   1.372 .      A
C85   C86   1.364 .      A
C85   C91   1.379 .      A
C86   C87   1.359 .      A
C87   C88   1.368 .      A
C88   N25   1.342 .      A
C88   C90   1.345 .      A
N25   C89   1.381 .      A
C89   N26   1.379 .      A
N26   C90   1.348 .      A
C90   C91   1.377 .      A
C92   C93   1.389 .      A
C92   C98   1.383 .      A
C93   C94   1.383 .      A
C94   C95   1.373 .      A
C95   N27   1.348 .      A
C95   C97   1.369 .      A
N27   C96   1.397 .      A
C96   N28   1.394 .      A
N28   C97   1.347 .      A
C97   C98   1.370 .      A
C99   C100  1.393 1_556  A
C99   C105  1.387 .      A
C100  C99   1.393 1_554  A
C100  C101  1.386 .      A
C101  C102  1.371 1_554  A
C102  C101  1.371 1_556  A
C102  N29   1.344 .      A
C102  C104  1.367 .      A
N29   C103  1.378 .      A
C103  N30   1.375 .      A
N30   C104  1.349 .      A
C104  C105  1.372 .      A
C106  C107  1.389 1_554  A
C106  C112  1.384 .      A
C107  C106  1.389 1_556  A
C107  C108  1.382 .      A
C108  C109  1.369 .      A
C109  N31   1.344 .      A
C109  C111  1.369 .      A
N31   C110  1.383 .      A
C110  N32   1.369 .      A
N32   C111  1.346 .      A
C111  C112  1.370 1_556  A
C112  C111  1.370 1_554  A
C113  C114  1.391 .      A
C113  C119  1.384 .      A
C114  C115  1.385 .      A
C115  C116  1.374 .      A
C116  N33   1.347 .      A
C116  C118  1.354 .      A
N33   C117  1.370 .      A
C117  N34   1.371 .      A
N34   C118  1.343 .      A
C118  C119  1.373 .      A
C120  C121  1.389 .      A
C120  C126  1.383 1_545  A
C121  C122  1.385 1_545  A
C122  C121  1.385 1_565  A
C122  C123  1.372 .      A
C123  N35   1.352 .      A
C123  C125  1.359 .      A
N35   C124  1.373 .      A
C124  N36   1.376 .      A
N36   C125  1.344 .      A
C125  C126  1.374 .      A
C126  C120  1.383 1_565  A
C127  C128  1.390 .      A
C127  C133  1.385 1_545  A
C128  C129  1.384 .      A
C129  C130  1.374 1_545  A
C130  C129  1.374 1_565  A
C130  N37   1.347 .      A
C130  C132  1.371 .      A
N37   C131  1.374 .      A
C131  N38   1.377 .      A
N38   C132  1.353 .      A
C132  C133  1.375 .      A
C133  C127  1.385 1_565  A
C134  C135  1.390 .      A
C134  C140  1.382 .      A
C135  C136  1.386 .      A
C136  C137  1.373 .      A
C137  N39   1.345 .      A
C137  C139  1.346 .      A
N39   C138  1.359 .      A
C138  N40   1.353 .      A
N40   C139  1.343 .      A
C139  C140  1.374 .      A
C141  C142  1.391 .      A
C141  C147  1.385 .      A
C142  C143  1.385 .      A
C143  C144  1.370 .      A
C144  N41   1.346 .      A
C144  C146  1.367 .      A
N41   C145  1.381 .      A
C145  N42   1.380 .      A
N42   C146  1.347 .      A
C146  C147  1.372 .      A
C148  C149  1.389 .      A
C148  C154  1.386 .      A
C149  C150  1.382 .      A
C150  C151  1.373 .      A
C151  N43   1.342 .      A
C151  C153  1.350 .      A
N43   C152  1.367 .      A
C152  N44   1.367 .      A
N44   C153  1.345 .      A
C153  C154  1.374 .      A
C155  C156  1.392 .      A
C155  C161  1.386 .      A
C156  C157  1.386 .      A
C157  C158  1.373 .      A
C158  N45   1.347 .      A
C158  C160  1.366 .      A
N45   C159  1.375 .      A
C159  N46   1.381 .      A
N46   C160  1.351 .      A
C160  C161  1.375 .      A
C162  C163  1.386 .      A
C162  C168  1.384 .      A
C163  C164  1.382 .      A
C164  C165  1.374 .      A
C165  N47   1.348 .      A
C165  C167  1.363 .      A
N47   C166  1.372 .      A
C166  N48   1.359 .      A
N48   C167  1.351 .      A
C167  C168  1.374 .      A
C169  C170  1.386 .      A
C169  C175  1.380 .      A
C170  C171  1.381 .      A
C171  C172  1.371 .      A
C172  N49   1.348 .      A
C172  C174  1.363 .      A
N49   C173  1.385 .      A
C173  N50   1.382 .      A
N50   C174  1.344 .      A
C174  C175  1.370 .      A
C176  C177  1.389 .      A
C176  C182  1.386 .      A
C177  C178  1.383 .      A
C178  C179  1.370 .      A
C179  N51   1.352 .      A
C179  C181  1.369 .      A
N51   C180  1.377 .      A
C180  N52   1.371 .      A
N52   C181  1.345 .      A
C181  C182  1.375 .      A
C183  C184  1.390 .      A
C183  C189  1.384 .      A
C184  C185  1.385 .      A
C185  C186  1.372 .      A
C186  N53   1.349 .      A
C186  C188  1.365 .      A
N53   C187  1.382 .      A
C187  N54   1.381 .      A
N54   C188  1.346 .      A
C188  C189  1.373 .      A
C190  C191  1.388 .      A
C190  C196  1.381 .      A
C191  C192  1.384 .      A
C192  C193  1.378 .      A
C193  N55   1.348 .      A
C193  C195  1.347 .      A
N55   C194  1.365 .      A
C194  N56   1.367 .      A
N56   C195  1.341 .      A
C195  C196  1.374 .      A
C197  C198  1.389 .      A
C197  C203  1.385 1_455  A
C198  C199  1.384 .      A
C199  C200  1.373 .      A
C200  N57   1.345 .      A
C200  C202  1.371 .      A
N57   C201  1.383 .      A
C201  N58   1.384 1_455  A
N58   C201  1.384 1_655  A
N58   C202  1.356 1_655  A
C202  N58   1.356 1_455  A
C202  C203  1.377 1_455  A
C203  C197  1.385 1_655  A
C203  C202  1.377 1_655  A
C204  C205  1.387 .      A
C204  C210  1.383 .      A
C205  C206  1.384 .      A
C206  C207  1.374 .      A
C207  N59   1.350 .      A
C207  C209  1.363 .      A
N59   C208  1.372 .      A
C208  N60   1.372 .      A
N60   C209  1.346 .      A
C209  C210  1.369 .      A
C211  C212  1.391 .      A
C211  C217  1.384 .      A
C212  C213  1.386 .      A
C213  C214  1.371 .      A
C214  N61   1.355 .      A
C214  C216  1.371 .      A
N61   C215  1.382 .      A
C215  N62   1.384 .      A
N62   C216  1.341 .      A
C216  C217  1.372 .      A
C218  C219  1.391 1_565  A
C218  C224  1.386 .      A
C219  C218  1.391 1_545  A
C219  C220  1.384 .      A
C220  C221  1.373 1_545  A
C221  C220  1.373 1_565  A
C221  N63   1.345 .      A
C221  C223  1.370 .      A
N63   C222  1.381 .      A
C222  N64   1.385 .      A
N64   C223  1.353 .      A
C223  C224  1.372 .      A
