data_str_m1_o12038_SSY
_audit_creation_date              2015-10-01T06:43:02-0700
_symmetry_space_group_name_H-M    P1
_symmetry_Int_Tables_number       1
_space_group_crystal_system       triclinic
loop_
_symmetry_equiv_pos_as_xyz
  x,y,z
_cell_length_a                    10.7775606
_cell_length_b                    28.7569970
_cell_length_c                    46.8478409
_cell_angle_alpha                 86.9158105
_cell_angle_beta                  89.6808048
_cell_angle_gamma                 88.7375683
_cell_volume                      14494.8746304

loop_
_atom_site_label
_atom_site_type_symbol
_atom_site_description
_atom_site_fract_x
_atom_site_fract_y
_atom_site_fract_z
_atom_type_partial_charge
Zn1   Zn    Zn3+2 0.843900 0.303559 0.988801 0.000000
Zn2   Zn    Zn3+2 0.860019 0.094867 0.034015 0.000000
Zn3   Zn    Zn3+2 0.360777 0.862857 0.088280 0.000000
Zn4   Zn    Zn3+2 0.372125 0.622466 0.982206 0.000000
Zn5   Zn    Zn3+2 0.362473 0.073454 0.103477 0.000000
Zn6   Zn    Zn3+2 0.341179 0.413745 0.937481 0.000000
Zn7   Zn    Zn3+2 0.871254 0.718546 0.930256 0.000000
Zn8   Zn    Zn3+2 0.345940 0.652676 0.120708 0.000000
Zn9   Zn    Zn3+2 0.866007 0.881690 0.015650 0.000000
Zn10  Zn    Zn3+2 0.359309 0.076981 0.510597 0.000000
Zn11  Zn    Zn3+2 0.399163 0.860487 0.520377 0.000000
Zn12  Zn    Zn3+2 0.864498 0.094980 0.581677 0.000000
Zn13  Zn    Zn3+2 0.896398 0.296982 0.631987 0.000000
Zn14  Zn    Zn3+2 0.379888 0.263736 0.438737 0.000000
Zn15  Zn    Zn3+2 0.363932 0.643693 0.482399 0.000000
Zn16  Zn    Zn3+2 0.904324 0.882599 0.589827 0.000000
Zn17  Zn    Zn3+2 0.380667 0.339397 0.304648 0.000000
Zn18  Zn    Zn3+2 0.869351 0.348842 0.493830 0.000000
Zn19  Zn    Zn3+2 0.924250 0.705896 0.671855 0.000000
Zn20  Zn    Zn3+2 0.397851 0.402377 0.683783 0.000000
Zn21  Zn    Zn3+2 0.859507 0.550208 0.429329 0.000000
Zn22  Zn    Zn3+2 0.429677 0.603810 0.623094 0.000000
Zn23  Zn    Zn3+2 0.354238 0.249072 0.181302 0.000000
Zn24  Zn    Zn3+2 0.878592 0.460003 0.301255 0.000000
Zn25  Zn    Zn3+2 0.868359 0.648735 0.806075 0.000000
Zn26  Zn    Zn3+2 0.374884 0.513996 0.807770 0.000000
Zn27  Zn    Zn3+2 0.844801 0.344121 0.126180 0.000000
Zn28  Zn    Zn3+2 0.845473 0.552663 0.170693 0.000000
N1    N     N_2   0.589967 0.249820 0.111753 0.000000
C1    C     C_R   0.639749 0.235857 0.086044 0.000000
C2    C     C_R   0.642473 0.266600 0.062657 0.000000
C3    C     C_R   0.706419 0.254637 0.038790 0.000000
C4    C     C_R   0.773660 0.213575 0.039348 0.000000
C5    C     C_R   0.758924 0.181125 0.061380 0.000000
C6    C     C_R   0.687447 0.191896 0.084708 0.000000
C7    C     C_R   0.838367 0.200647 0.013907 0.000000
N2    N     N_R   0.842782 0.231551 0.990633 0.000000
C8    C     C_R   0.845136 0.202941 0.968763 0.000000
C9    C     C_R   0.838660 0.215367 0.940108 0.000000
C10   C     C_R   0.838052 0.179915 0.921239 0.000000
N3    N     N_2   0.831148 0.190930 0.891635 0.000000
C11   C     C_R   0.841516 0.133478 0.931321 0.000000
C12   C     C_R   0.847602 0.121602 0.960360 0.000000
C13   C     C_R   0.852681 0.157365 0.978695 0.000000
N4    N     N_R   0.853064 0.154614 0.007520 0.000000
H1    H     H_    0.554238 0.282680 0.108915 0.000000
H2    H     H_    0.540113 0.224620 0.122879 0.000000
H3    H     H_    0.591716 0.299194 0.062678 0.000000
H4    H     H_    0.700576 0.276556 0.019509 0.000000
H5    H     H_    0.811586 0.149537 0.060024 0.000000
H6    H     H_    0.668110 0.168305 0.102734 0.000000
H7    H     H_    0.833308 0.251526 0.932542 0.000000
H8    H     H_    0.862578 0.164512 0.879311 0.000000
H9    H     H_    0.860658 0.223863 0.885720 0.000000
H10   H     H_    0.837549 0.106285 0.916315 0.000000
H11   H     H_    0.843245 0.085440 0.967842 0.000000
N5    N     N_2   0.310050 0.971309 0.995378 0.000000
C14   C     C_R   0.435146 0.982104 0.999557 0.000000
C15   C     C_R   0.472162 0.000730 0.024513 0.000000
C16   C     C_R   0.594582 0.009121 0.028960 0.000000
C17   C     C_R   0.683402 0.994073 0.010205 0.000000
C18   C     C_R   0.646427 0.976621 0.984819 0.000000
C19   C     C_R   0.522169 0.972793 0.978890 0.000000
C20   C     C_R   0.816353 0.992683 0.016684 0.000000
N6    N     N_R   0.881937 0.033170 0.013762 0.000000
C21   C     C_R   0.982166 0.019886 0.998841 0.000000
C22   C     C_R   0.047505 0.048233 0.980287 0.000000
C23   C     C_R   0.116795 0.027954 0.959117 0.000000
N7    N     N_2   0.163550 0.055801 0.936127 0.000000
C24   C     C_R   0.127453 0.979967 0.958419 0.000000
C25   C     C_R   0.062571 0.951749 0.977732 0.000000
C26   C     C_R   0.984567 0.972832 0.996457 0.000000
N8    N     N_R   0.883796 0.953825 0.008892 0.000000
H12   H     H_    0.262955 0.961919 0.013881 0.000000
H13   H     H_    0.298290 0.950240 0.978644 0.000000
H14   H     H_    0.410057 0.005655 0.042170 0.000000
H15   H     H_    0.616787 0.024682 0.048220 0.000000
H16   H     H_    0.715331 0.965426 0.969646 0.000000
H17   H     H_    0.493832 0.958428 0.959156 0.000000
H18   H     H_    0.027044 0.084707 0.979296 0.000000
H19   H     H_    0.109434 0.085186 0.931583 0.000000
H20   H     H_    0.187367 0.037087 0.918727 0.000000
H21   H     H_    0.178995 0.964628 0.941293 0.000000
H22   H     H_    0.058332 0.915081 0.975049 0.000000
N9    N     N_2   0.438452 0.872487 0.942411 0.000000
C27   C     C_R   0.362008 0.871961 0.966892 0.000000
C28   C     C_R   0.242734 0.855859 0.965698 0.000000
C29   C     C_R   0.169322 0.854295 0.989922 0.000000
C30   C     C_R   0.211553 0.872012 0.014695 0.000000
C31   C     C_R   0.330277 0.887880 0.015833 0.000000
C32   C     C_R   0.406777 0.886914 0.992238 0.000000
C33   C     C_R   0.139745 0.867553 0.041057 0.000000
N10   N     N_R   0.013174 0.860551 0.042101 0.000000
C34   C     C_R   0.996976 0.845679 0.069601 0.000000
C35   C     C_R   0.891225 0.829784 0.082726 0.000000
C36   C     C_R   0.889788 0.824981 0.112278 0.000000
N11   N     N_2   0.779988 0.812586 0.126777 0.000000
C37   C     C_R   0.997666 0.830035 0.127639 0.000000
C38   C     C_R   0.106535 0.841001 0.113473 0.000000
C39   C     C_R   0.102103 0.850283 0.084642 0.000000
N12   N     N_R   0.196766 0.861990 0.067344 0.000000
H23   H     H_    0.412511 0.849519 0.927549 0.000000
H24   H     H_    0.531756 0.873482 0.946822 0.000000
H25   H     H_    0.208290 0.843002 0.946048 0.000000
H26   H     H_    0.078641 0.839320 0.989458 0.000000
H27   H     H_    0.363280 0.899510 0.035771 0.000000
H28   H     H_    0.500242 0.899045 0.993485 0.000000
H29   H     H_    0.805661 0.828626 0.071275 0.000000
H30   H     H_    0.777089 0.823726 0.147228 0.000000
H31   H     H_    0.700969 0.817904 0.114726 0.000000
H32   H     H_    0.996753 0.825185 0.150677 0.000000
H33   H     H_    0.191632 0.843206 0.124606 0.000000
N13   N     N_2   0.874089 0.916712 0.162357 0.000000
C40   C     C_R   0.813243 0.908208 0.136697 0.000000
C41   C     C_R   0.686958 0.901773 0.136612 0.000000
C42   C     C_R   0.628601 0.891807 0.111503 0.000000
C43   C     C_R   0.695312 0.889389 0.086684 0.000000
C44   C     C_R   0.817309 0.901683 0.086223 0.000000
C45   C     C_R   0.878242 0.909255 0.111295 0.000000
C46   C     C_R   0.634725 0.874259 0.060971 0.000000
N14   N     N_R   0.513266 0.859864 0.061761 0.000000
C47   C     C_R   0.502701 0.839971 0.036802 0.000000
C48   C     C_R   0.404291 0.815531 0.028052 0.000000
C49   C     C_R   0.410075 0.799308 0.000968 0.000000
N15   N     N_2   0.309294 0.775425 0.990931 0.000000
C50   C     C_R   0.509720 0.809231 0.983032 0.000000
C51   C     C_R   0.609959 0.832799 0.992791 0.000000
C52   C     C_R   0.607147 0.845631 0.020630 0.000000
N16   N     N_R   0.695153 0.867011 0.035201 0.000000
H34   H     H_    0.827710 0.904514 0.180406 0.000000
H35   H     H_    0.968217 0.909969 0.161813 0.000000
H36   H     H_    0.635432 0.904374 0.156321 0.000000
H37   H     H_    0.531099 0.885645 0.110408 0.000000
H38   H     H_    0.865367 0.903426 0.066005 0.000000
H39   H     H_    0.976641 0.915775 0.111085 0.000000
H40   H     H_    0.323915 0.809923 0.041608 0.000000
H41   H     H_    0.298412 0.780598 0.969301 0.000000
H42   H     H_    0.232117 0.781994 0.002952 0.000000
H43   H     H_    0.507929 0.799047 0.961166 0.000000
H44   H     H_    0.680549 0.843798 0.978019 0.000000
N17   N     N_2   0.289373 0.115286 0.942831 0.000000
C53   C     C_R   0.240052 0.108134 0.970598 0.000000
C54   C     C_R   0.274603 0.068763 0.986948 0.000000
C55   C     C_R   0.232180 0.062154 0.014735 0.000000
C56   C     C_R   0.160173 0.095625 0.026741 0.000000
C57   C     C_R   0.118142 0.133637 0.009628 0.000000
C58   C     C_R   0.158045 0.140228 0.981592 0.000000
C59   C     C_R   0.121027 0.091530 0.057000 0.000000
N18   N     N_R   0.999027 0.100821 0.062605 0.000000
C60   C     C_R   0.997690 0.106193 0.090993 0.000000
C61   C     C_R   0.901779 0.118587 0.108569 0.000000
C62   C     C_R   0.918811 0.114520 0.137763 0.000000
N19   N     N_2   0.818615 0.123015 0.156268 0.000000
C63   C     C_R   0.032118 0.099330 0.148866 0.000000
C64   C     C_R   0.130190 0.091681 0.130672 0.000000
C65   C     C_R   0.111191 0.096593 0.101987 0.000000
N20   N     N_R   0.195106 0.087844 0.081660 0.000000
H45   H     H_    0.370523 0.096941 0.939245 0.000000
H46   H     H_    0.282090 0.148778 0.934233 0.000000
H47   H     H_    0.335290 0.043313 0.977672 0.000000
H48   H     H_    0.248993 0.030372 0.026959 0.000000
H49   H     H_    0.055219 0.159008 0.018281 0.000000
H50   H     H_    0.128070 0.170687 0.968722 0.000000
H51   H     H_    0.811893 0.125608 0.100600 0.000000
H52   H     H_    0.822555 0.102518 0.174925 0.000000
H53   H     H_    0.733960 0.125138 0.146196 0.000000
H54   H     H_    0.044147 0.094258 0.171726 0.000000
H55   H     H_    0.216322 0.078383 0.138339 0.000000
N21   N     N_2   0.921216 0.027399 0.175821 0.000000
C66   C     C_R   0.848019 0.037977 0.151430 0.000000
C67   C     C_R   0.902350 0.040291 0.124647 0.000000
C68   C     C_R   0.827918 0.048358 0.100862 0.000000
C69   C     C_R   0.704935 0.060940 0.104062 0.000000
C70   C     C_R   0.651316 0.059853 0.130674 0.000000
C71   C     C_R   0.721872 0.046612 0.154349 0.000000
C72   C     C_R   0.638089 0.079037 0.078927 0.000000
N22   N     N_R   0.699079 0.089994 0.053737 0.000000
C73   C     C_R   0.607530 0.101235 0.035780 0.000000
C74   C     C_R   0.620367 0.112689 0.007337 0.000000
C75   C     C_R   0.518952 0.131532 0.993341 0.000000
N23   N     N_2   0.531925 0.150907 0.965287 0.000000
C76   C     C_R   0.408347 0.136288 0.008067 0.000000
C77   C     C_R   0.395125 0.118920 0.036184 0.000000
C78   C     C_R   0.497410 0.100287 0.049455 0.000000
N24   N     N_R   0.511000 0.084775 0.076962 0.000000
H56   H     H_    0.003217 0.010055 0.171564 0.000000
H57   H     H_    0.871503 0.014713 0.193256 0.000000
H58   H     H_    0.001046 0.034022 0.122473 0.000000
H59   H     H_    0.866724 0.050149 0.079641 0.000000
H60   H     H_    0.556038 0.071245 0.132761 0.000000
H61   H     H_    0.680044 0.045692 0.175394 0.000000
H62   H     H_    0.706947 0.108473 0.996402 0.000000
H63   H     H_    0.449823 0.160130 0.955324 0.000000
H64   H     H_    0.599306 0.134919 0.953370 0.000000
H65   H     H_    0.337848 0.157021 0.997693 0.000000
H66   H     H_    0.314397 0.124284 0.048681 0.000000
N25   N     N_2   0.897720 0.974530 0.076281 0.000000
C79   C     C_R   0.767550 0.976798 0.079769 0.000000
C80   C     C_R   0.692209 0.956695 0.060244 0.000000
C81   C     C_R   0.566409 0.953662 0.065199 0.000000
C82   C     C_R   0.516823 0.972182 0.089160 0.000000
C83   C     C_R   0.594193 0.984353 0.110322 0.000000
C84   C     C_R   0.718971 0.982307 0.106497 0.000000
C85   C     C_R   0.389999 0.968082 0.098193 0.000000
N26   N     N_R   0.354541 0.924608 0.108436 0.000000
C86   C     C_R   0.304403 0.932875 0.134137 0.000000
C87   C     C_R   0.279301 0.900768 0.156204 0.000000
C88   C     C_R   0.237719 0.917024 0.181849 0.000000
N27   N     N_2   0.211569 0.885235 0.204897 0.000000
C89   C     C_R   0.228502 0.964446 0.185553 0.000000
C90   C     C_R   0.263454 0.996300 0.163988 0.000000
C91   C     C_R   0.299953 0.979695 0.138010 0.000000
N28   N     N_R   0.349640 0.003151 0.114988 0.000000
H67   H     H_    0.949368 0.985560 0.092863 0.000000
H68   H     H_    0.930672 0.980712 0.055848 0.000000
H69   H     H_    0.730168 0.938650 0.042865 0.000000
H70   H     H_    0.509069 0.936125 0.050782 0.000000
H71   H     H_    0.556549 0.990334 0.131188 0.000000
H72   H     H_    0.776058 0.982761 0.125021 0.000000
H73   H     H_    0.302241 0.864302 0.155163 0.000000
H74   H     H_    0.216349 0.899340 0.224579 0.000000
H75   H     H_    0.253475 0.852997 0.203189 0.000000
H76   H     H_    0.200666 0.976618 0.206111 0.000000
H77   H     H_    0.268216 0.032085 0.169153 0.000000
N29   N     N_2   0.734758 0.522764 0.982126 0.000000
C92   C     C_R   0.824846 0.486914 0.982116 0.000000
C93   C     C_R   0.943490 0.495981 0.973341 0.000000
C94   C     C_R   0.022502 0.459994 0.965528 0.000000
C95   C     C_R   0.990233 0.414621 0.972931 0.000000
C96   C     C_R   0.876482 0.407004 0.985875 0.000000
C97   C     C_R   0.792155 0.442592 0.989312 0.000000
C98   C     C_R   0.064774 0.373429 0.965580 0.000000
N30   N     N_R   0.178026 0.374541 0.950354 0.000000
C99   C     C_R   0.186554 0.330548 0.942217 0.000000
C100  C     C_R   0.276681 0.312727 0.924842 0.000000
C101  C     C_R   0.267025 0.266885 0.917827 0.000000
N31   N     N_2   0.353832 0.247545 0.899008 0.000000
C102  C     C_R   0.171689 0.239918 0.929256 0.000000
C103  C     C_R   0.086623 0.258060 0.948099 0.000000
C104  C     C_R   0.092790 0.304070 0.953572 0.000000
N32   N     N_R   0.013436 0.329514 0.969190 0.000000
H78   H     H_    0.756256 0.550433 0.968281 0.000000
H79   H     H_    0.645361 0.511058 0.981362 0.000000
H80   H     H_    0.969598 0.531702 0.972907 0.000000
H81   H     H_    0.106711 0.467467 0.953578 0.000000
H82   H     H_    0.848807 0.372741 0.991819 0.000000
H83   H     H_    0.700213 0.436517 0.997571 0.000000
H84   H     H_    0.350251 0.334249 0.916147 0.000000
H85   H     H_    0.322262 0.218922 0.889207 0.000000
H86   H     H_    0.398606 0.271967 0.886077 0.000000
H87   H     H_    0.162570 0.204542 0.923250 0.000000
H88   H     H_    0.018858 0.236589 0.958213 0.000000
N33   N     N_2   0.275020 0.209482 0.026254 0.000000
C105  C     C_R   0.342743 0.233815 0.005001 0.000000
C106  C     C_R   0.469050 0.226287 0.002564 0.000000
C107  C     C_R   0.537293 0.256709 0.985709 0.000000
C108  C     C_R   0.482659 0.298103 0.976048 0.000000
C109  C     C_R   0.358369 0.305480 0.978870 0.000000
C110  C     C_R   0.285515 0.270391 0.990025 0.000000
C111  C     C_R   0.558547 0.334740 0.964019 0.000000
N34   N     N_R   0.687104 0.330295 0.964888 0.000000
C112  C     C_R   0.718304 0.367053 0.948848 0.000000
C113  C     C_R   0.829058 0.372572 0.936518 0.000000
C114  C     C_R   0.853257 0.415557 0.925296 0.000000
N35   N     N_2   0.969977 0.421504 0.913125 0.000000
C115  C     C_R   0.768768 0.451841 0.928998 0.000000
C116  C     C_R   0.644619 0.441727 0.935444 0.000000
C117  C     C_R   0.620867 0.396269 0.942851 0.000000
N36   N     N_R   0.512502 0.376283 0.950396 0.000000
H89   H     H_    0.329362 0.199176 0.043534 0.000000
H90   H     H_    0.192849 0.226588 0.030702 0.000000
H91   H     H_    0.516503 0.198974 0.015159 0.000000
H92   H     H_    0.635216 0.250284 0.982316 0.000000
H93   H     H_    0.323775 0.340426 0.975475 0.000000
H94   H     H_    0.187773 0.277069 0.993526 0.000000
H95   H     H_    0.890710 0.343261 0.933820 0.000000
H96   H     H_    0.008630 0.451955 0.917356 0.000000
H97   H     H_    0.022876 0.394060 0.920907 0.000000
H98   H     H_    0.802247 0.486772 0.926557 0.000000
H99   H     H_    0.571833 0.467306 0.938485 0.000000
N37   N     N_2   0.645235 0.607247 0.863773 0.000000
C118  C     C_R   0.589881 0.581328 0.886560 0.000000
C119  C     C_R   0.619680 0.589849 0.914307 0.000000
C120  C     C_R   0.556707 0.567200 0.936411 0.000000
C121  C     C_R   0.468706 0.535310 0.931347 0.000000
C122  C     C_R   0.439645 0.526313 0.903675 0.000000
C123  C     C_R   0.499199 0.549706 0.881253 0.000000
C124  C     C_R   0.391447 0.520026 0.955389 0.000000
N38   N     N_R   0.355311 0.550707 0.975924 0.000000
C125  C     C_R   0.275912 0.524678 0.992001 0.000000
C126  C     C_R   0.201933 0.537953 0.014262 0.000000
C127  C     C_R   0.097631 0.511953 0.020396 0.000000
N39   N     N_2   0.005625 0.528275 0.039085 0.000000
C128  C     C_R   0.091414 0.467476 0.010604 0.000000
C129  C     C_R   0.188996 0.449649 0.994870 0.000000
C130  C     C_R   0.268316 0.481131 0.982255 0.000000
N40   N     N_R   0.339379 0.476306 0.958764 0.000000
H100  H     H_    0.699218 0.633993 0.869941 0.000000
H101  H     H_    0.587060 0.614453 0.846711 0.000000
H102  H     H_    0.688513 0.615278 0.918670 0.000000
H103  H     H_    0.572575 0.573688 0.958190 0.000000
H104  H     H_    0.364785 0.503860 0.899500 0.000000
H105  H     H_    0.464991 0.547417 0.859793 0.000000
H106  H     H_    0.225634 0.565840 0.027383 0.000000
H107  H     H_    0.950772 0.503309 0.048875 0.000000
H108  H     H_    0.029970 0.556258 0.050420 0.000000
H109  H     H_    0.010244 0.447059 0.015032 0.000000
H110  H     H_    0.192813 0.414175 0.989288 0.000000
N41   N     N_2   0.290007 0.798930 0.879710 0.000000
C131  C     C_R   0.370590 0.772901 0.898295 0.000000
C132  C     C_R   0.328985 0.756289 0.924589 0.000000
C133  C     C_R   0.407746 0.729607 0.942327 0.000000
C134  C     C_R   0.525335 0.717977 0.933547 0.000000
C135  C     C_R   0.565018 0.733510 0.907063 0.000000
C136  C     C_R   0.488546 0.761297 0.889467 0.000000
C137  C     C_R   0.598253 0.682041 0.949727 0.000000
N42   N     N_R   0.546160 0.649428 0.968956 0.000000
C138  C     C_R   0.648580 0.629671 0.981070 0.000000
C139  C     C_R   0.653027 0.597000 0.003017 0.000000
C140  C     C_R   0.767881 0.579321 0.011895 0.000000
N43   N     N_2   0.776321 0.549416 0.036524 0.000000
C141  C     C_R   0.873952 0.592297 0.996929 0.000000
C142  C     C_R   0.865178 0.623592 0.973649 0.000000
C143  C     C_R   0.753125 0.644982 0.967972 0.000000
N44   N     N_R   0.727243 0.679904 0.948716 0.000000
H111  H     H_    0.217585 0.815032 0.889978 0.000000
H112  H     H_    0.335114 0.818829 0.864145 0.000000
H113  H     H_    0.232647 0.762062 0.930243 0.000000
H114  H     H_    0.375621 0.713454 0.961833 0.000000
H115  H     H_    0.651178 0.719622 0.899634 0.000000
H116  H     H_    0.515507 0.770145 0.867757 0.000000
H117  H     H_    0.570527 0.590708 0.014781 0.000000
H118  H     H_    0.772299 0.515183 0.031307 0.000000
H119  H     H_    0.706848 0.557262 0.050692 0.000000
H120  H     H_    0.964126 0.579582 0.003884 0.000000
H121  H     H_    0.940647 0.627857 0.959147 0.000000
N45   N     N_2   0.883133 0.677481 0.069249 0.000000
C144  C     C_R   0.930958 0.669340 0.042015 0.000000
C145  C     C_R   0.038780 0.643414 0.038692 0.000000
C146  C     C_R   0.089713 0.641183 0.011721 0.000000
C147  C     C_R   0.041068 0.667507 0.989560 0.000000
C148  C     C_R   0.929859 0.690838 0.992459 0.000000
C149  C     C_R   0.875585 0.691845 0.018774 0.000000
C150  C     C_R   0.104755 0.669847 0.962314 0.000000
N46   N     N_R   0.227279 0.655848 0.957770 0.000000
C151  C     C_R   0.244889 0.671782 0.930430 0.000000
C152  C     C_R   0.353019 0.671502 0.914905 0.000000
C153  C     C_R   0.351146 0.692290 0.887437 0.000000
N47   N     N_2   0.459427 0.692095 0.870459 0.000000
C154  C     C_R   0.243008 0.713307 0.876391 0.000000
C155  C     C_R   0.134812 0.713403 0.892404 0.000000
C156  C     C_R   0.138514 0.692149 0.919316 0.000000
N48   N     N_R   0.046314 0.690307 0.938701 0.000000
H122  H     H_    0.946711 0.677868 0.085499 0.000000
H123  H     H_    0.807811 0.700027 0.068993 0.000000
H124  H     H_    0.084575 0.626490 0.057034 0.000000
H125  H     H_    0.173478 0.623245 0.006778 0.000000
H126  H     H_    0.888271 0.710496 0.974707 0.000000
H127  H     H_    0.789365 0.710488 0.021563 0.000000
H128  H     H_    0.435772 0.654109 0.923446 0.000000
H129  H     H_    0.444035 0.693432 0.848770 0.000000
H130  H     H_    0.530790 0.671025 0.878372 0.000000
H131  H     H_    0.243504 0.729727 0.855084 0.000000
H132  H     H_    0.051397 0.730476 0.884120 0.000000
N49   N     N_2   0.493613 0.728582 0.051502 0.000000
C157  C     C_R   0.588651 0.743326 0.032657 0.000000
C158  C     C_R   0.684198 0.768767 0.042615 0.000000
C159  C     C_R   0.772338 0.786752 0.023818 0.000000
C160  C     C_R   0.768492 0.776527 0.995483 0.000000
C161  C     C_R   0.672491 0.751627 0.985524 0.000000
C162  C     C_R   0.582460 0.734688 0.004073 0.000000
C163  C     C_R   0.851503 0.799400 0.975111 0.000000
N50   N     N_R   0.879652 0.845306 0.978240 0.000000
C164  C     C_R   0.910036 0.859714 0.951248 0.000000
C165  C     C_R   0.919960 0.904692 0.940126 0.000000
C166  C     C_R   0.946596 0.911244 0.911216 0.000000
N51   N     N_2   0.957864 0.956750 0.898958 0.000000
C167  C     C_R   0.958950 0.873389 0.894019 0.000000
C168  C     C_R   0.938217 0.828590 0.905094 0.000000
C169  C     C_R   0.910685 0.823025 0.933675 0.000000
N52   N     N_R   0.873112 0.783929 0.947956 0.000000
H133  H     H_    0.492849 0.745618 0.070269 0.000000
H134  H     H_    0.409022 0.727413 0.041613 0.000000
H135  H     H_    0.686372 0.775061 0.065083 0.000000
H136  H     H_    0.845449 0.808289 0.030891 0.000000
H137  H     H_    0.664379 0.749259 0.962794 0.000000
H138  H     H_    0.505572 0.715758 0.996214 0.000000
H139  H     H_    0.897543 0.934199 0.952655 0.000000
H140  H     H_    0.943320 0.959307 0.877235 0.000000
H141  H     H_    0.915032 0.981892 0.910612 0.000000
H142  H     H_    0.979228 0.879236 0.871504 0.000000
H143  H     H_    0.940906 0.799289 0.891560 0.000000
N53   N     N_2   0.802681 0.729054 0.134953 0.000000
C170  C     C_R   0.924971 0.743037 0.129275 0.000000
C171  C     C_R   0.006673 0.747230 0.151244 0.000000
C172  C     C_R   0.128144 0.757905 0.145143 0.000000
C173  C     C_R   0.167157 0.763625 0.117195 0.000000
C174  C     C_R   0.082393 0.766826 0.095707 0.000000
C175  C     C_R   0.961132 0.753970 0.101689 0.000000
C176  C     C_R   0.299782 0.762257 0.111684 0.000000
N54   N     N_R   0.361265 0.724106 0.124376 0.000000
C177  C     C_R   0.454472 0.743685 0.138383 0.000000
C178  C     C_R   0.536550 0.723033 0.157782 0.000000
C179  C     C_R   0.615444 0.751231 0.171788 0.000000
N55   N     N_2   0.706890 0.730672 0.189895 0.000000
C180  C     C_R   0.601887 0.799209 0.168937 0.000000
C181  C     C_R   0.519412 0.819407 0.149277 0.000000
C182  C     C_R   0.452849 0.790623 0.132936 0.000000
N56   N     N_R   0.362393 0.803136 0.114356 0.000000
H144  H     H_    0.798550 0.703823 0.151272 0.000000
H145  H     H_    0.755557 0.721313 0.116824 0.000000
H146  H     H_    0.974518 0.742253 0.172941 0.000000
H147  H     H_    0.194220 0.762182 0.162019 0.000000
H148  H     H_    0.117174 0.777830 0.074982 0.000000
H149  H     H_    0.888643 0.754353 0.086158 0.000000
H150  H     H_    0.536344 0.686811 0.164100 0.000000
H151  H     H_    0.724744 0.748387 0.207882 0.000000
H152  H     H_    0.704064 0.694905 0.191368 0.000000
H153  H     H_    0.653747 0.820776 0.182616 0.000000
H154  H     H_    0.498554 0.855993 0.149411 0.000000
N57   N     N_2   0.708827 0.463261 0.078293 0.000000
C183  C     C_R   0.614681 0.497199 0.072884 0.000000
C184  C     C_R   0.560994 0.502264 0.046267 0.000000
C185  C     C_R   0.474777 0.537706 0.040328 0.000000
C186  C     C_R   0.454165 0.571386 0.059833 0.000000
C187  C     C_R   0.500235 0.563939 0.086667 0.000000
C188  C     C_R   0.580935 0.527317 0.093553 0.000000
C189  C     C_R   0.383992 0.615235 0.053785 0.000000
N58   N     N_R   0.354394 0.633290 0.026333 0.000000
C190  C     C_R   0.282258 0.670090 0.032212 0.000000
C191  C     C_R   0.223080 0.700002 0.012950 0.000000
C192  C     C_R   0.121020 0.723684 0.022022 0.000000
N59   N     N_2   0.049735 0.751800 0.002525 0.000000
C193  C     C_R   0.085769 0.718715 0.050096 0.000000
C194  C     C_R   0.162691 0.696432 0.070614 0.000000
C195  C     C_R   0.264053 0.672743 0.060763 0.000000
N60   N     N_R   0.335740 0.641501 0.075737 0.000000
H155  H     H_    0.704899 0.435065 0.065742 0.000000
H156  H     H_    0.729432 0.457006 0.099552 0.000000
H157  H     H_    0.592321 0.480065 0.029659 0.000000
H158  H     H_    0.433593 0.541408 0.019509 0.000000
H159  H     H_    0.472763 0.588782 0.101412 0.000000
H160  H     H_    0.621157 0.523373 0.114655 0.000000
H161  H     H_    0.244587 0.702232 0.991117 0.000000
H162  H     H_    0.962934 0.760976 0.009551 0.000000
H163  H     H_    0.065386 0.746730 0.981210 0.000000
H164  H     H_    0.001230 0.736172 0.055305 0.000000
H165  H     H_    0.138043 0.692830 0.092990 0.000000
N61   N     N_2   0.422725 0.983861 0.635026 0.000000
C196  C     C_R   0.409605 0.981791 0.605253 0.000000
C197  C     C_R   0.509043 0.991720 0.587550 0.000000
C198  C     C_R   0.494727 0.991065 0.558519 0.000000
C199  C     C_R   0.389754 0.973321 0.547426 0.000000
C200  C     C_R   0.288916 0.964031 0.564804 0.000000
C201  C     C_R   0.298301 0.969012 0.593831 0.000000
C202  C     C_R   0.382763 0.969913 0.516791 0.000000
N62   N     N_R   0.363541 0.008610 0.498906 0.000000
C203  C     C_R   0.357318 0.990027 0.473036 0.000000
C204  C     C_R   0.318917 0.010735 0.447328 0.000000
C205  C     C_R   0.328305 0.984617 0.423336 0.000000
N63   N     N_2   0.295634 0.005077 0.396365 0.000000
C206  C     C_R   0.374244 0.938927 0.425518 0.000000
C207  C     C_R   0.402607 0.917671 0.451979 0.000000
C208  C     C_R   0.385099 0.943383 0.475445 0.000000
N64   N     N_R   0.396762 0.928832 0.503040 0.000000
H166  H     H_    0.504168 0.998289 0.641162 0.000000
H167  H     H_    0.342653 0.992957 0.645623 0.000000
H168  H     H_    0.594763 0.003419 0.596403 0.000000
H169  H     H_    0.562295 0.006246 0.544149 0.000000
H170  H     H_    0.203199 0.952768 0.555794 0.000000
H171  H     H_    0.219454 0.961854 0.607617 0.000000
H172  H     H_    0.288060 0.046742 0.445517 0.000000
H173  H     H_    0.296444 0.040903 0.395353 0.000000
H174  H     H_    0.336526 0.988953 0.379515 0.000000
H175  H     H_    0.386204 0.919690 0.406458 0.000000
H176  H     H_    0.442595 0.882842 0.454117 0.000000
N65   N     N_2   0.379977 0.079824 0.657815 0.000000
C209  C     C_R   0.313196 0.076006 0.632395 0.000000
C210  C     C_R   0.192555 0.091481 0.630851 0.000000
C211  C     C_R   0.129221 0.090002 0.605455 0.000000
C212  C     C_R   0.184331 0.072454 0.581816 0.000000
C213  C     C_R   0.304527 0.055321 0.583608 0.000000
C214  C     C_R   0.370839 0.060095 0.608526 0.000000
C215  C     C_R   0.126945 0.085398 0.554173 0.000000
N66   N     N_R   0.005734 0.101480 0.552268 0.000000
C216  C     C_R   0.993276 0.112645 0.524150 0.000000
C217  C     C_R   0.889020 0.129076 0.509920 0.000000
C218  C     C_R   0.895188 0.134270 0.480364 0.000000
N67   N     N_2   0.788716 0.148827 0.464768 0.000000
C219  C     C_R   0.004605 0.123751 0.465890 0.000000
C220  C     C_R   0.109165 0.107563 0.480713 0.000000
C221  C     C_R   0.100425 0.102715 0.510005 0.000000
N68   N     N_R   0.189480 0.087560 0.528301 0.000000
H177  H     H_    0.326437 0.074737 0.675930 0.000000
H178  H     H_    0.465979 0.063680 0.658125 0.000000
H179  H     H_    0.152849 0.108456 0.648902 0.000000
H180  H     H_    0.041010 0.107295 0.602667 0.000000
H181  H     H_    0.351868 0.046437 0.564278 0.000000
H182  H     H_    0.470005 0.055799 0.609277 0.000000
H183  H     H_    0.803027 0.134706 0.521276 0.000000
H184  H     H_    0.791298 0.139936 0.443791 0.000000
H185  H     H_    0.706889 0.142850 0.475635 0.000000
H186  H     H_    0.007535 0.127721 0.442820 0.000000
H187  H     H_    0.193815 0.099023 0.469629 0.000000
N69   N     N_2   0.893933 0.038564 0.443742 0.000000
C222  C     C_R   0.823848 0.046783 0.468505 0.000000
C223  C     C_R   0.699335 0.038550 0.469213 0.000000
C224  C     C_R   0.630710 0.049717 0.492930 0.000000
C225  C     C_R   0.690806 0.061256 0.516953 0.000000
C226  C     C_R   0.815412 0.057353 0.518331 0.000000
C227  C     C_R   0.882410 0.056294 0.493358 0.000000
C228  C     C_R   0.625206 0.079820 0.540686 0.000000
N70   N     N_R   0.498674 0.088058 0.540243 0.000000
C229  C     C_R   0.480492 0.109052 0.564993 0.000000
C230  C     C_R   0.372204 0.127829 0.575057 0.000000
C231  C     C_R   0.373303 0.146037 0.601888 0.000000
N71   N     N_2   0.263309 0.164720 0.613515 0.000000
C232  C     C_R   0.483301 0.146766 0.617294 0.000000
C233  C     C_R   0.593335 0.129625 0.606085 0.000000
C234  C     C_R   0.589363 0.111873 0.579555 0.000000
N72   N     N_R   0.685087 0.094862 0.564514 0.000000
H188  H     H_    0.850472 0.018337 0.429524 0.000000
H189  H     H_    0.986462 0.031256 0.447534 0.000000
H190  H     H_    0.660069 0.022501 0.451407 0.000000
H191  H     H_    0.531904 0.048566 0.493934 0.000000
H192  H     H_    0.856104 0.060336 0.538897 0.000000
H193  H     H_    0.980517 0.051549 0.493868 0.000000
H194  H     H_    0.290341 0.129009 0.561984 0.000000
H195  H     H_    0.276838 0.196096 0.622418 0.000000
H196  H     H_    0.186968 0.164038 0.600469 0.000000
H197  H     H_    0.483000 0.161129 0.638150 0.000000
H198  H     H_    0.679069 0.130053 0.617895 0.000000
N73   N     N_2   0.841170 0.224728 0.463263 0.000000
C235  C     C_R   0.965387 0.208989 0.464743 0.000000
C236  C     C_R   0.034353 0.206628 0.440148 0.000000
C237  C     C_R   0.157500 0.193767 0.442066 0.000000
C238  C     C_R   0.209018 0.180644 0.468235 0.000000
C239  C     C_R   0.139762 0.181229 0.492467 0.000000
C240  C     C_R   0.019255 0.196886 0.490804 0.000000
C241  C     C_R   0.339655 0.169542 0.468910 0.000000
N74   N     N_R   0.409651 0.194299 0.449282 0.000000
C242  C     C_R   0.495879 0.162719 0.441596 0.000000
C243  C     C_R   0.584985 0.166988 0.420558 0.000000
C244  C     C_R   0.642415 0.127245 0.411412 0.000000
N75   N     N_2   0.728772 0.130292 0.388762 0.000000
C245  C     C_R   0.605882 0.084271 0.422418 0.000000
C246  C     C_R   0.524829 0.081059 0.445536 0.000000
C247  C     C_R   0.476991 0.121134 0.456078 0.000000
N76   N     N_R   0.384572 0.124866 0.475477 0.000000
H199  H     H_    0.811339 0.231358 0.442599 0.000000
H200  H     H_    0.824695 0.251621 0.476418 0.000000
H201  H     H_    0.993395 0.216330 0.419625 0.000000
H202  H     H_    0.214054 0.193399 0.422946 0.000000
H203  H     H_    0.181149 0.169426 0.512344 0.000000
H204  H     H_    0.968926 0.199191 0.510117 0.000000
H205  H     H_    0.608655 0.199127 0.410222 0.000000
H206  H     H_    0.739043 0.100121 0.378056 0.000000
H207  H     H_    0.721452 0.160817 0.376319 0.000000
H208  H     H_    0.637691 0.053765 0.411726 0.000000
H209  H     H_    0.487859 0.048425 0.452465 0.000000
N77   N     N_2   0.912457 0.683316 0.505003 0.000000
C248  C     C_R   0.790247 0.699975 0.501527 0.000000
C249  C     C_R   0.766963 0.746077 0.493909 0.000000
C250  C     C_R   0.648404 0.764515 0.494325 0.000000
C251  C     C_R   0.552699 0.736465 0.502400 0.000000
C252  C     C_R   0.575999 0.689058 0.505586 0.000000
C253  C     C_R   0.693945 0.670464 0.505504 0.000000
C254  C     C_R   0.425009 0.751403 0.496918 0.000000
N78   N     N_R   0.387170 0.798295 0.491564 0.000000
C255  C     C_R   0.307898 0.792865 0.468942 0.000000
C256  C     C_R   0.255042 0.825338 0.449190 0.000000
C257  C     C_R   0.192816 0.810006 0.425732 0.000000
N79   N     N_2   0.141296 0.842937 0.405576 0.000000
C258  C     C_R   0.186487 0.763162 0.420845 0.000000
C259  C     C_R   0.239370 0.730686 0.439934 0.000000
C260  C     C_R   0.294235 0.746216 0.464023 0.000000
N80   N     N_R   0.358463 0.718994 0.482872 0.000000
H210  H     H_    0.974349 0.709335 0.506961 0.000000
H211  H     H_    0.922497 0.652623 0.517197 0.000000
H212  H     H_    0.843091 0.767705 0.488697 0.000000
H213  H     H_    0.629000 0.799303 0.486228 0.000000
H214  H     H_    0.501922 0.665885 0.507942 0.000000
H215  H     H_    0.710392 0.633518 0.509702 0.000000
H216  H     H_    0.265421 0.861847 0.448684 0.000000
H217  H     H_    0.129031 0.830221 0.385693 0.000000
H218  H     H_    0.179418 0.875388 0.405971 0.000000
H219  H     H_    0.142050 0.752134 0.401793 0.000000
H220  H     H_    0.240527 0.694161 0.435476 0.000000
N81   N     N_2   0.298184 0.678719 0.605657 0.000000
C261  C     C_R   0.257922 0.725186 0.601335 0.000000
C262  C     C_R   0.337740 0.760644 0.604146 0.000000
C263  C     C_R   0.314714 0.801853 0.589875 0.000000
C264  C     C_R   0.194929 0.814824 0.584584 0.000000
C265  C     C_R   0.105670 0.782910 0.591415 0.000000
C266  C     C_R   0.138456 0.736131 0.594358 0.000000
C267  C     C_R   0.165883 0.854821 0.565422 0.000000
N82   N     N_R   0.238857 0.864280 0.541774 0.000000
C268  C     C_R   0.160597 0.887313 0.524149 0.000000
C269  C     C_R   0.181217 0.894052 0.495772 0.000000
C270  C     C_R   0.082621 0.907482 0.478831 0.000000
N83   N     N_2   0.097212 0.914937 0.449062 0.000000
C271  C     C_R   0.967074 0.911859 0.491130 0.000000
C272  C     C_R   0.949417 0.908505 0.520517 0.000000
C273  C     C_R   0.048986 0.893885 0.536478 0.000000
N84   N     N_R   0.048690 0.874725 0.563141 0.000000
H221  H     H_    0.239480 0.653111 0.599918 0.000000
H222  H     H_    0.378903 0.673263 0.617026 0.000000
H223  H     H_    0.422599 0.756156 0.614520 0.000000
H224  H     H_    0.391862 0.821755 0.583048 0.000000
H225  H     H_    0.013456 0.795012 0.593498 0.000000
H226  H     H_    0.073743 0.708258 0.595004 0.000000
H227  H     H_    0.267024 0.882108 0.487437 0.000000
H228  H     H_    0.021855 0.931891 0.439547 0.000000
H229  H     H_    0.181168 0.929132 0.443406 0.000000
H230  H     H_    0.891014 0.918221 0.476984 0.000000
H231  H     H_    0.859924 0.912713 0.530443 0.000000
N85   N     N_2   0.873192 0.856978 0.435849 0.000000
C274  C     C_R   0.819374 0.853074 0.463255 0.000000
C275  C     C_R   0.699760 0.868824 0.467037 0.000000
C276  C     C_R   0.652834 0.872456 0.494178 0.000000
C277  C     C_R   0.723520 0.859427 0.517859 0.000000
C278  C     C_R   0.842821 0.842818 0.514160 0.000000
C279  C     C_R   0.891628 0.840554 0.486802 0.000000
C280  C     C_R   0.668287 0.864091 0.546241 0.000000
N86   N     N_R   0.731915 0.873901 0.570905 0.000000
C281  C     C_R   0.639392 0.882527 0.589167 0.000000
C282  C     C_R   0.652303 0.897549 0.616270 0.000000
C283  C     C_R   0.545775 0.908819 0.631141 0.000000
N87   N     N_2   0.555112 0.925978 0.658643 0.000000
C284  C     C_R   0.430365 0.905450 0.618429 0.000000
C285  C     C_R   0.420869 0.893701 0.590217 0.000000
C286  C     C_R   0.527138 0.879094 0.576470 0.000000
N88   N     N_R   0.541303 0.864798 0.549492 0.000000
H232  H     H_    0.826811 0.880036 0.421902 0.000000
H233  H     H_    0.968313 0.859192 0.436072 0.000000
H234  H     H_    0.644152 0.879849 0.448682 0.000000
H235  H     H_    0.558355 0.883693 0.496593 0.000000
H236  H     H_    0.898636 0.834788 0.532904 0.000000
H237  H     H_    0.988027 0.830922 0.483682 0.000000
H238  H     H_    0.743029 0.901309 0.625481 0.000000
H239  H     H_    0.472751 0.928843 0.669674 0.000000
H240  H     H_    0.632350 0.914254 0.669914 0.000000
H241  H     H_    0.347179 0.913460 0.630341 0.000000
H242  H     H_    0.331294 0.891777 0.580375 0.000000
N89   N     N_2   0.555398 0.189470 0.515953 0.000000
C287  C     C_R   0.635260 0.197452 0.538796 0.000000
C288  C     C_R   0.756486 0.207205 0.533037 0.000000
C289  C     C_R   0.839079 0.211028 0.555134 0.000000
C290  C     C_R   0.796877 0.212316 0.582646 0.000000
C291  C     C_R   0.673420 0.205648 0.588208 0.000000
C292  C     C_R   0.595546 0.194061 0.566785 0.000000
C293  C     C_R   0.878648 0.196496 0.605408 0.000000
N90   N     N_R   0.878444 0.149191 0.612066 0.000000
C294  C     C_R   0.897365 0.147817 0.640640 0.000000
C295  C     C_R   0.860615 0.114184 0.660754 0.000000
C296  C     C_R   0.887391 0.120553 0.689148 0.000000
N91   N     N_2   0.856595 0.086004 0.710284 0.000000
C297  C     C_R   0.945301 0.160698 0.696885 0.000000
C298  C     C_R   0.963408 0.197107 0.676865 0.000000
C299  C     C_R   0.927043 0.190975 0.649335 0.000000
N92   N     N_R   0.909021 0.223724 0.628019 0.000000
H243  H     H_    0.525658 0.155738 0.516585 0.000000
H244  H     H_    0.594810 0.198668 0.496464 0.000000
H245  H     H_    0.784513 0.207619 0.511113 0.000000
H246  H     H_    0.937344 0.208957 0.551913 0.000000
H247  H     H_    0.640919 0.204148 0.610100 0.000000
H248  H     H_    0.502329 0.186306 0.572606 0.000000
H249  H     H_    0.812048 0.083769 0.654686 0.000000
H250  H     H_    0.908630 0.086749 0.728596 0.000000
H251  H     H_    0.842886 0.053756 0.702478 0.000000
H252  H     H_    0.969553 0.164620 0.718971 0.000000
H253  H     H_    0.004279 0.229143 0.682908 0.000000
N93   N     N_2   0.709010 0.952590 0.473222 0.000000
C300  C     C_R   0.754957 0.962769 0.500290 0.000000
C301  C     C_R   0.873698 0.979237 0.503352 0.000000
C302  C     C_R   0.917074 0.988914 0.530116 0.000000
C303  C     C_R   0.840952 0.982473 0.553754 0.000000
C304  C     C_R   0.728459 0.961946 0.550769 0.000000
C305  C     C_R   0.683121 0.953776 0.524173 0.000000
C306  C     C_R   0.884674 0.987029 0.582840 0.000000
N94   N     N_R   0.900246 0.948162 0.600496 0.000000
C307  C     C_R   0.921371 0.965198 0.626022 0.000000
C308  C     C_R   0.931705 0.941444 0.652098 0.000000
C309  C     C_R   0.968656 0.966057 0.675036 0.000000
N95   N     N_2   0.986068 0.942981 0.702021 0.000000
C310  C     C_R   0.993751 0.013099 0.671179 0.000000
C311  C     C_R   0.971521 0.036478 0.645060 0.000000
C312  C     C_R   0.926633 0.012241 0.623347 0.000000
N96   N     N_R   0.896272 0.027975 0.596575 0.000000
H254  H     H_    0.763038 0.962216 0.455795 0.000000
H255  H     H_    0.613908 0.953782 0.471290 0.000000
H256  H     H_    0.932850 0.985316 0.484677 0.000000
H257  H     H_    0.009749 0.001776 0.532471 0.000000
H258  H     H_    0.673938 0.953269 0.569511 0.000000
H259  H     H_    0.591315 0.940099 0.522286 0.000000
H260  H     H_    0.907163 0.905481 0.654893 0.000000
H261  H     H_    0.980468 0.964656 0.718778 0.000000
H262  H     H_    0.940206 0.912053 0.704548 0.000000
H263  H     H_    0.030425 0.031569 0.688658 0.000000
H264  H     H_    0.998566 0.071270 0.640950 0.000000
N97   N     N_2   0.266277 0.462776 0.551845 0.000000
C313  C     C_R   0.217778 0.417893 0.553353 0.000000
C314  C     C_R   0.167662 0.400926 0.529618 0.000000
C315  C     C_R   0.091154 0.363882 0.532895 0.000000
C316  C     C_R   0.059865 0.344959 0.559448 0.000000
C317  C     C_R   0.123139 0.357833 0.582907 0.000000
C318  C     C_R   0.205483 0.393589 0.579319 0.000000
C319  C     C_R   0.934402 0.328185 0.561748 0.000000
N98   N     N_R   0.857316 0.338935 0.538681 0.000000
C320  C     C_R   0.747071 0.341029 0.551205 0.000000
C321  C     C_R   0.641806 0.356864 0.538370 0.000000
C322  C     C_R   0.534789 0.355076 0.554276 0.000000
N99   N     N_2   0.421122 0.361766 0.540375 0.000000
C323  C     C_R   0.537368 0.340011 0.582965 0.000000
C324  C     C_R   0.647287 0.323607 0.595415 0.000000
C325  C     C_R   0.753218 0.326868 0.579271 0.000000
N100  N     N_R   0.871663 0.317889 0.587387 0.000000
H265  H     H_    0.244136 0.482172 0.533379 0.000000
H266  H     H_    0.259390 0.478671 0.571003 0.000000
H267  H     H_    0.174665 0.420028 0.509180 0.000000
H268  H     H_    0.031534 0.358643 0.515678 0.000000
H269  H     H_    0.100593 0.343538 0.604066 0.000000
H270  H     H_    0.258425 0.403474 0.596759 0.000000
H271  H     H_    0.644046 0.366520 0.515997 0.000000
H272  H     H_    0.347461 0.357859 0.554133 0.000000
H273  H     H_    0.415627 0.389709 0.526034 0.000000
H274  H     H_    0.451622 0.337381 0.594912 0.000000
H275  H     H_    0.647175 0.305316 0.615908 0.000000
N101  N     N_2   0.723510 0.483852 0.561671 0.000000
C326  C     C_R   0.701935 0.448874 0.583298 0.000000
C327  C     C_R   0.612375 0.454804 0.603646 0.000000
C328  C     C_R   0.577855 0.417066 0.620800 0.000000
C329  C     C_R   0.663717 0.383475 0.626995 0.000000
C330  C     C_R   0.773391 0.384023 0.611808 0.000000
C331  C     C_R   0.783859 0.412010 0.587392 0.000000
C332  C     C_R   0.645624 0.351627 0.651604 0.000000
N102  N     N_R   0.557052 0.357904 0.673290 0.000000
C333  C     C_R   0.595438 0.325364 0.693074 0.000000
C334  C     C_R   0.551041 0.319494 0.720512 0.000000
C335  C     C_R   0.606529 0.285387 0.738367 0.000000
N103  N     N_2   0.564031 0.278152 0.766699 0.000000
C336  C     C_R   0.704780 0.258537 0.728529 0.000000
C337  C     C_R   0.750915 0.266339 0.701076 0.000000
C338  C     C_R   0.696178 0.300323 0.683577 0.000000
N104  N     N_R   0.732209 0.315968 0.657041 0.000000
H276  H     H_    0.653707 0.508510 0.558694 0.000000
H277  H     H_    0.766644 0.472119 0.543697 0.000000
H278  H     H_    0.564965 0.487359 0.604894 0.000000
H279  H     H_    0.490003 0.413322 0.630991 0.000000
H280  H     H_    0.853917 0.365233 0.619312 0.000000
H281  H     H_    0.866495 0.409599 0.574573 0.000000
H282  H     H_    0.477623 0.341641 0.728187 0.000000
H283  H     H_    0.586580 0.245702 0.775768 0.000000
H284  H     H_    0.474543 0.290052 0.769881 0.000000
H285  H     H_    0.747295 0.231841 0.742623 0.000000
H286  H     H_    0.826928 0.246237 0.693813 0.000000
N105  N     N_2   0.437420 0.165625 0.696668 0.000000
C339  C     C_R   0.375396 0.206028 0.685429 0.000000
C340  C     C_R   0.268299 0.203049 0.669628 0.000000
C341  C     C_R   0.206102 0.243119 0.659392 0.000000
C342  C     C_R   0.249760 0.285946 0.665950 0.000000
C343  C     C_R   0.357116 0.288487 0.681516 0.000000
C344  C     C_R   0.420814 0.248760 0.690904 0.000000
C345  C     C_R   0.177914 0.329140 0.661264 0.000000
N106  N     N_R   0.052068 0.331851 0.653011 0.000000
C346  C     C_R   0.023614 0.375644 0.660735 0.000000
C347  C     C_R   0.912714 0.399253 0.658466 0.000000
C348  C     C_R   0.917242 0.446627 0.653763 0.000000
N107  N     N_2   0.825614 0.469047 0.636481 0.000000
C349  C     C_R   0.022999 0.469978 0.660516 0.000000
C350  C     C_R   0.125434 0.445346 0.671578 0.000000
C351  C     C_R   0.124947 0.398159 0.669893 0.000000
N108  N     N_R   0.226095 0.370538 0.670697 0.000000
H287  H     H_    0.423254 0.136812 0.685294 0.000000
H288  H     H_    0.527803 0.171078 0.702367 0.000000
H289  H     H_    0.232325 0.169314 0.665622 0.000000
H290  H     H_    0.122279 0.240885 0.647034 0.000000
H291  H     H_    0.387179 0.321982 0.687690 0.000000
H292  H     H_    0.503949 0.250816 0.703466 0.000000
H293  H     H_    0.825802 0.382593 0.658559 0.000000
H294  H     H_    0.840413 0.503483 0.630837 0.000000
H295  H     H_    0.737078 0.457964 0.640462 0.000000
H296  H     H_    0.029189 0.505916 0.653122 0.000000
H297  H     H_    0.214729 0.461032 0.673971 0.000000
N109  N     N_2   0.571592 0.106474 0.332057 0.000000
C352  C     C_R   0.537794 0.150606 0.341613 0.000000
C353  C     C_R   0.547049 0.189619 0.323413 0.000000
C354  C     C_R   0.510107 0.232743 0.332376 0.000000
C355  C     C_R   0.465276 0.236907 0.359616 0.000000
C356  C     C_R   0.455542 0.197793 0.377808 0.000000
C357  C     C_R   0.491305 0.154651 0.368806 0.000000
C358  C     C_R   0.404560 0.279941 0.367808 0.000000
N110  N     N_R   0.362819 0.314736 0.347972 0.000000
C359  C     C_R   0.274141 0.336128 0.363466 0.000000
C360  C     C_R   0.204891 0.376094 0.357185 0.000000
C361  C     C_R   0.106716 0.386347 0.374528 0.000000
N111  N     N_2   0.039812 0.428417 0.369031 0.000000
C362  C     C_R   0.072160 0.354829 0.396270 0.000000
C363  C     C_R   0.149997 0.317416 0.403897 0.000000
C364  C     C_R   0.259207 0.313590 0.389323 0.000000
N112  N     N_R   0.349019 0.281601 0.394557 0.000000
H298  H     H_    0.633198 0.107633 0.315186 0.000000
H299  H     H_    0.589807 0.081787 0.348294 0.000000
H300  H     H_    0.578848 0.185830 0.301827 0.000000
H301  H     H_    0.511634 0.263140 0.318013 0.000000
H302  H     H_    0.413031 0.200650 0.398619 0.000000
H303  H     H_    0.478420 0.123825 0.382631 0.000000
H304  H     H_    0.229065 0.403017 0.342230 0.000000
H305  H     H_    0.074239 0.454467 0.380674 0.000000
H306  H     H_    0.045145 0.439560 0.347999 0.000000
H307  H     H_    0.985360 0.359806 0.406961 0.000000
H308  H     H_    0.122230 0.289360 0.418507 0.000000
N113  N     N_2   0.235663 0.493027 0.410383 0.000000
C365  C     C_R   0.197738 0.447903 0.418327 0.000000
C366  C     C_R   0.278119 0.411384 0.414640 0.000000
C367  C     C_R   0.258104 0.368926 0.428358 0.000000
C368  C     C_R   0.147473 0.361760 0.442329 0.000000
C369  C     C_R   0.060682 0.396848 0.443030 0.000000
C370  C     C_R   0.088684 0.441060 0.432796 0.000000
C371  C     C_R   0.130213 0.319479 0.459807 0.000000
N114  N     N_R   0.222913 0.285427 0.461748 0.000000
C372  C     C_R   0.194150 0.262842 0.486524 0.000000
C373  C     C_R   0.274811 0.236600 0.503288 0.000000
C374  C     C_R   0.243704 0.229721 0.531893 0.000000
N115  N     N_2   0.330184 0.207873 0.550236 0.000000
C375  C     C_R   0.127688 0.242264 0.542040 0.000000
C376  C     C_R   0.044063 0.265746 0.523951 0.000000
C377  C     C_R   0.084165 0.279147 0.497145 0.000000
N116  N     N_R   0.038122 0.314972 0.480556 0.000000
H309  H     H_    0.232855 0.513040 0.427916 0.000000
H310  H     H_    0.322337 0.492554 0.401032 0.000000
H311  H     H_    0.361182 0.418040 0.403069 0.000000
H312  H     H_    0.330045 0.342108 0.429020 0.000000
H313  H     H_    0.973055 0.388380 0.452015 0.000000
H314  H     H_    0.027621 0.470386 0.436092 0.000000
H315  H     H_    0.368115 0.229086 0.496104 0.000000
H316  H     H_    0.294730 0.199801 0.570140 0.000000
H317  H     H_    0.378506 0.182836 0.539812 0.000000
H318  H     H_    0.105658 0.234920 0.564349 0.000000
H319  H     H_    0.951779 0.274132 0.530537 0.000000
N117  N     N_2   0.311621 0.274603 0.575591 0.000000
C378  C     C_R   0.384248 0.283096 0.550875 0.000000
C379  C     C_R   0.328889 0.299797 0.525770 0.000000
C380  C     C_R   0.401473 0.310377 0.502290 0.000000
C381  C     C_R   0.527700 0.302970 0.503266 0.000000
C382  C     C_R   0.582822 0.285211 0.528000 0.000000
C383  C     C_R   0.511221 0.277015 0.552165 0.000000
C384  C     C_R   0.595712 0.307953 0.476480 0.000000
N118  N     N_R   0.542803 0.292609 0.452051 0.000000
C385  C     C_R   0.640223 0.290749 0.434426 0.000000
C386  C     C_R   0.640150 0.274481 0.407817 0.000000
C387  C     C_R   0.753116 0.268911 0.394399 0.000000
N119  N     N_2   0.760536 0.245978 0.368769 0.000000
C388  C     C_R   0.859828 0.285599 0.406230 0.000000
C389  C     C_R   0.854821 0.305990 0.432276 0.000000
C390  C     C_R   0.743566 0.306816 0.446501 0.000000
N120  N     N_R   0.720543 0.319049 0.473427 0.000000
H320  H     H_    0.226944 0.291682 0.575374 0.000000
H321  H     H_    0.360021 0.272041 0.594492 0.000000
H322  H     H_    0.230326 0.306993 0.525054 0.000000
H323  H     H_    0.360299 0.325159 0.482963 0.000000
H324  H     H_    0.681976 0.279699 0.528622 0.000000
H325  H     H_    0.553967 0.267013 0.572345 0.000000
H326  H     H_    0.554385 0.264090 0.398782 0.000000
H327  H     H_    0.845640 0.249349 0.359172 0.000000
H328  H     H_    0.683411 0.250719 0.356024 0.000000
H329  H     H_    0.947398 0.282297 0.395099 0.000000
H330  H     H_    0.937074 0.317738 0.441585 0.000000
N121  N     N_2   0.873942 0.778724 0.435274 0.000000
C391  C     C_R   0.916129 0.737481 0.449743 0.000000
C392  C     C_R   0.033586 0.734542 0.461153 0.000000
C393  C     C_R   0.082872 0.691447 0.469817 0.000000
C394  C     C_R   0.013059 0.652503 0.467888 0.000000
C395  C     C_R   0.889644 0.657280 0.461209 0.000000
C396  C     C_R   0.839910 0.699988 0.452644 0.000000
C397  C     C_R   0.081256 0.610747 0.461268 0.000000
N122  N     N_R   0.209440 0.616211 0.459170 0.000000
C398  C     C_R   0.231824 0.599635 0.433316 0.000000
C399  C     C_R   0.336001 0.605850 0.416911 0.000000
C400  C     C_R   0.343818 0.582981 0.391892 0.000000
N123  N     N_2   0.457709 0.581424 0.377098 0.000000
C401  C     C_R   0.242227 0.559330 0.382398 0.000000
C402  C     C_R   0.130861 0.559851 0.396930 0.000000
C403  C     C_R   0.128883 0.579812 0.422653 0.000000
N124  N     N_R   0.031288 0.583806 0.440171 0.000000
H331  H     H_    0.939271 0.790250 0.420572 0.000000
H332  H     H_    0.787399 0.775420 0.426536 0.000000
H333  H     H_    0.086324 0.765854 0.462631 0.000000
H334  H     H_    0.175793 0.686995 0.477912 0.000000
H335  H     H_    0.832411 0.627993 0.463110 0.000000
H336  H     H_    0.743276 0.703522 0.446937 0.000000
H337  H     H_    0.411856 0.625960 0.423546 0.000000
H338  H     H_    0.474259 0.550086 0.368078 0.000000
H339  H     H_    0.530439 0.592961 0.388762 0.000000
H340  H     H_    0.250405 0.537978 0.364624 0.000000
H341  H     H_    0.052069 0.541852 0.389432 0.000000
N125  N     N_2   0.444415 0.402067 0.479916 0.000000
C404  C     C_R   0.493435 0.446744 0.475094 0.000000
C405  C     C_R   0.434988 0.475837 0.455541 0.000000
C406  C     C_R   0.471213 0.520655 0.450832 0.000000
C407  C     C_R   0.566310 0.537509 0.466258 0.000000
C408  C     C_R   0.631065 0.507870 0.485282 0.000000
C409  C     C_R   0.595424 0.462003 0.489539 0.000000
C410  C     C_R   0.606292 0.584355 0.458444 0.000000
N126  N     N_R   0.529789 0.623715 0.460832 0.000000
C411  C     C_R   0.583557 0.654339 0.441917 0.000000
C412  C     C_R   0.540935 0.698129 0.433145 0.000000
C413  C     C_R   0.606617 0.722388 0.411812 0.000000
N127  N     N_2   0.565193 0.767211 0.402077 0.000000
C414  C     C_R   0.712931 0.702843 0.399885 0.000000
C415  C     C_R   0.754413 0.658571 0.408939 0.000000
C416  C     C_R   0.686085 0.634857 0.429548 0.000000
N128  N     N_R   0.704246 0.590609 0.439566 0.000000
H342  H     H_    0.387473 0.392902 0.463684 0.000000
H343  H     H_    0.504023 0.376584 0.487754 0.000000
H344  H     H_    0.361090 0.462307 0.443829 0.000000
H345  H     H_    0.427292 0.541913 0.434249 0.000000
H346  H     H_    0.707910 0.520640 0.497068 0.000000
H347  H     H_    0.643705 0.439237 0.505008 0.000000
H348  H     H_    0.457053 0.712849 0.441797 0.000000
H349  H     H_    0.633361 0.787035 0.392357 0.000000
H350  H     H_    0.509056 0.783594 0.416457 0.000000
H351  H     H_    0.763358 0.722335 0.383395 0.000000
H352  H     H_    0.836617 0.642998 0.399814 0.000000
N129  N     N_2   0.060435 0.786451 0.529623 0.000000
C417  C     C_R   0.133433 0.748159 0.539903 0.000000
C418  C     C_R   0.083549 0.705012 0.548104 0.000000
C419  C     C_R   0.160594 0.668985 0.556725 0.000000
C420  C     C_R   0.285306 0.674277 0.554532 0.000000
C421  C     C_R   0.333079 0.713959 0.543516 0.000000
C422  C     C_R   0.259551 0.752837 0.539163 0.000000
C423  C     C_R   0.361226 0.634203 0.552611 0.000000
N130  N     N_R   0.397699 0.605921 0.576217 0.000000
C424  C     C_R   0.431555 0.567916 0.562849 0.000000
C425  C     C_R   0.438388 0.526447 0.576047 0.000000
C426  C     C_R   0.456108 0.488139 0.561093 0.000000
N131  N     N_2   0.447058 0.445706 0.576821 0.000000
C427  C     C_R   0.448895 0.491640 0.531495 0.000000
C428  C     C_R   0.427883 0.534799 0.517400 0.000000
C429  C     C_R   0.420758 0.572829 0.533838 0.000000
N132  N     N_R   0.377440 0.615528 0.526073 0.000000
H353  H     H_    0.990341 0.777229 0.516691 0.000000
H354  H     H_    0.113240 0.812668 0.520548 0.000000
H355  H     H_    0.987642 0.696003 0.548969 0.000000
H356  H     H_    0.123132 0.635186 0.562493 0.000000
H357  H     H_    0.427184 0.710823 0.536908 0.000000
H358  H     H_    0.298714 0.785906 0.532866 0.000000
H359  H     H_    0.403137 0.523521 0.596823 0.000000
H360  H     H_    0.420325 0.418522 0.566302 0.000000
H361  H     H_    0.406063 0.449052 0.596447 0.000000
H362  H     H_    0.439992 0.460598 0.520141 0.000000
H363  H     H_    0.403063 0.537698 0.495106 0.000000
N133  N     N_2   0.505662 0.735346 0.574174 0.000000
C430  C     C_R   0.602132 0.751205 0.590100 0.000000
C431  C     C_R   0.617690 0.737644 0.618641 0.000000
C432  C     C_R   0.709772 0.756441 0.633463 0.000000
C433  C     C_R   0.789333 0.784707 0.619003 0.000000
C434  C     C_R   0.776390 0.797659 0.590830 0.000000
C435  C     C_R   0.679997 0.781379 0.576264 0.000000
C436  C     C_R   0.894173 0.798942 0.633302 0.000000
N134  N     N_R   0.945107 0.775149 0.656764 0.000000
C437  C     C_R   0.025984 0.806496 0.665669 0.000000
C438  C     C_R   0.103634 0.802227 0.688816 0.000000
C439  C     C_R   0.180529 0.839195 0.693407 0.000000
N135  N     N_2   0.260542 0.836867 0.717118 0.000000
C440  C     C_R   0.180345 0.878529 0.674671 0.000000
C441  C     C_R   0.104867 0.881372 0.650746 0.000000
C442  C     C_R   0.027553 0.844912 0.646967 0.000000
N136  N     N_R   0.943582 0.840969 0.626059 0.000000
H364  H     H_    0.457237 0.708200 0.582959 0.000000
H365  H     H_    0.457314 0.762584 0.564042 0.000000
H366  H     H_    0.555998 0.714814 0.630175 0.000000
H367  H     H_    0.721547 0.750025 0.656193 0.000000
H368  H     H_    0.848731 0.815940 0.579672 0.000000
H369  H     H_    0.671271 0.787775 0.553459 0.000000
H370  H     H_    0.103813 0.771486 0.703142 0.000000
H371  H     H_    0.289699 0.868888 0.722842 0.000000
H372  H     H_    0.232207 0.814367 0.733554 0.000000
H373  H     H_    0.241978 0.906680 0.678465 0.000000
H374  H     H_    0.108134 0.910924 0.635518 0.000000
N137  N     N_2   0.797056 0.405970 0.234599 0.000000
C443  C     C_R   0.687610 0.380599 0.235571 0.000000
C444  C     C_R   0.686329 0.338128 0.223965 0.000000
C445  C     C_R   0.577932 0.314346 0.222333 0.000000
C446  C     C_R   0.478691 0.328655 0.237834 0.000000
C447  C     C_R   0.483982 0.368437 0.252808 0.000000
C448  C     C_R   0.584514 0.397157 0.249016 0.000000
C449  C     C_R   0.381893 0.296814 0.244229 0.000000
N138  N     N_R   0.348389 0.260885 0.226927 0.000000
C450  C     C_R   0.304861 0.229617 0.246933 0.000000
C451  C     C_R   0.266474 0.185150 0.243015 0.000000
C452  C     C_R   0.240516 0.156968 0.267155 0.000000
N139  N     N_2   0.202943 0.110904 0.264139 0.000000
C453  C     C_R   0.255452 0.173157 0.294369 0.000000
C454  C     C_R   0.293629 0.218136 0.297959 0.000000
C455  C     C_R   0.312096 0.246309 0.273913 0.000000
N140  N     N_R   0.354640 0.289975 0.272774 0.000000
H375  H     H_    0.872607 0.384691 0.230894 0.000000
H376  H     H_    0.803550 0.428088 0.251042 0.000000
H377  H     H_    0.771544 0.324346 0.216517 0.000000
H378  H     H_    0.571291 0.282459 0.211504 0.000000
H379  H     H_    0.402950 0.378395 0.264731 0.000000
H380  H     H_    0.588676 0.431311 0.257210 0.000000
H381  H     H_    0.260040 0.171596 0.222002 0.000000
H382  H     H_    0.156342 0.096820 0.281663 0.000000
H383  H     H_    0.165646 0.105344 0.244473 0.000000
H384  H     H_    0.237926 0.150238 0.312935 0.000000
H385  H     H_    0.307250 0.230525 0.319071 0.000000
N141  N     N_2   0.865186 0.212748 0.318263 0.000000
C456  C     C_R   0.928298 0.255184 0.316130 0.000000
C457  C     C_R   0.864484 0.296426 0.319087 0.000000
C458  C     C_R   0.927781 0.337720 0.319208 0.000000
C459  C     C_R   0.051729 0.338436 0.311890 0.000000
C460  C     C_R   0.116586 0.296719 0.310366 0.000000
C461  C     C_R   0.054654 0.255106 0.313341 0.000000
C462  C     C_R   0.111718 0.383076 0.304895 0.000000
N142  N     N_R   0.047735 0.425378 0.303220 0.000000
C463  C     C_R   0.139241 0.455829 0.299560 0.000000
C464  C     C_R   0.120649 0.502457 0.292939 0.000000
C465  C     C_R   0.221409 0.528161 0.284149 0.000000
N143  N     N_2   0.204917 0.575287 0.274981 0.000000
C466  C     C_R   0.336715 0.506555 0.281889 0.000000
C467  C     C_R   0.348689 0.458414 0.285115 0.000000
C468  C     C_R   0.249145 0.433607 0.295199 0.000000
N144  N     N_R   0.237382 0.386965 0.299223 0.000000
H386  H     H_    0.771525 0.215857 0.314224 0.000000
H387  H     H_    0.912647 0.185292 0.309720 0.000000
H388  H     H_    0.764849 0.295603 0.320711 0.000000
H389  H     H_    0.878330 0.370183 0.321959 0.000000
H390  H     H_    0.215156 0.296699 0.306821 0.000000
H391  H     H_    0.101824 0.221878 0.312961 0.000000
H392  H     H_    0.028627 0.518142 0.293503 0.000000
H393  H     H_    0.282193 0.595409 0.276423 0.000000
H394  H     H_    0.118719 0.589526 0.279157 0.000000
H395  H     H_    0.414959 0.527484 0.275652 0.000000
H396  H     H_    0.434512 0.441432 0.280775 0.000000
N145  N     N_2   0.372636 0.582056 0.321078 0.000000
C469  C     C_R   0.438025 0.539008 0.322227 0.000000
C470  C     C_R   0.379601 0.497433 0.329180 0.000000
C471  C     C_R   0.444056 0.455710 0.327475 0.000000
C472  C     C_R   0.560130 0.455188 0.315742 0.000000
C473  C     C_R   0.619718 0.496410 0.309916 0.000000
C474  C     C_R   0.559928 0.538170 0.313774 0.000000
C475  C     C_R   0.613413 0.413568 0.303662 0.000000
N146  N     N_R   0.553310 0.372353 0.298375 0.000000
C476  C     C_R   0.645962 0.347952 0.285982 0.000000
C477  C     C_R   0.643803 0.303708 0.276510 0.000000
C478  C     C_R   0.755498 0.284320 0.267658 0.000000
N147  N     N_2   0.763760 0.236881 0.262744 0.000000
C479  C     C_R   0.863358 0.309672 0.266383 0.000000
C480  C     C_R   0.862128 0.354864 0.274484 0.000000
C481  C     C_R   0.752858 0.372577 0.284503 0.000000
N148  N     N_R   0.736488 0.413929 0.295680 0.000000
H397  H     H_    0.329765 0.589398 0.339931 0.000000
H398  H     H_    0.427012 0.608965 0.313417 0.000000
H399  H     H_    0.280536 0.496205 0.332173 0.000000
H400  H     H_    0.395709 0.423735 0.328989 0.000000
H401  H     H_    0.708367 0.496196 0.299368 0.000000
H402  H     H_    0.604980 0.570314 0.307801 0.000000
H403  H     H_    0.560213 0.283920 0.276618 0.000000
H404  H     H_    0.846610 0.223448 0.270690 0.000000
H405  H     H_    0.686445 0.219703 0.270055 0.000000
H406  H     H_    0.949454 0.293433 0.259756 0.000000
H407  H     H_    0.946089 0.374775 0.274404 0.000000
N149  N     N_2   0.671693 0.331516 0.369680 0.000000
C482  C     C_R   0.705476 0.361133 0.391116 0.000000
C483  C     C_R   0.631097 0.366751 0.414817 0.000000
C484  C     C_R   0.673200 0.392655 0.436422 0.000000
C485  C     C_R   0.777506 0.418525 0.432777 0.000000
C486  C     C_R   0.841532 0.417997 0.407687 0.000000
C487  C     C_R   0.810577 0.387266 0.387492 0.000000
C488  C     C_R   0.824857 0.443391 0.456408 0.000000
N150  N     N_R   0.856807 0.420352 0.482037 0.000000
C489  C     C_R   0.898360 0.455426 0.496918 0.000000
C490  C     C_R   0.950480 0.453289 0.523152 0.000000
C491  C     C_R   0.000200 0.493675 0.532207 0.000000
N151  N     N_2   0.069740 0.491652 0.556874 0.000000
C492  C     C_R   0.988594 0.535678 0.516849 0.000000
C493  C     C_R   0.932149 0.537242 0.490850 0.000000
C494  C     C_R   0.893021 0.496354 0.481094 0.000000
N152  N     N_R   0.849819 0.490531 0.455063 0.000000
H408  H     H_    0.708638 0.341001 0.350125 0.000000
H409  H     H_    0.581761 0.320525 0.370082 0.000000
H410  H     H_    0.540223 0.351705 0.416894 0.000000
H411  H     H_    0.622091 0.394798 0.455795 0.000000
H412  H     H_    0.919361 0.439950 0.405189 0.000000
H413  H     H_    0.869037 0.383764 0.368884 0.000000
H414  H     H_    0.956419 0.421346 0.535814 0.000000
H415  H     H_    0.106731 0.522639 0.562310 0.000000
H416  H     H_    0.063359 0.460899 0.568743 0.000000
H417  H     H_    0.026689 0.566809 0.524952 0.000000
H418  H     H_    0.921528 0.569215 0.478574 0.000000
N153  N     N_2   0.723870 0.528099 0.746273 0.000000
C495  C     C_R   0.695153 0.563409 0.725156 0.000000
C496  C     C_R   0.726836 0.609001 0.728632 0.000000
C497  C     C_R   0.705016 0.642368 0.707183 0.000000
C498  C     C_R   0.644995 0.630330 0.683459 0.000000
C499  C     C_R   0.595145 0.588603 0.682145 0.000000
C500  C     C_R   0.625647 0.553667 0.702047 0.000000
C501  C     C_R   0.662387 0.653635 0.656395 0.000000
N154  N     N_R   0.770285 0.677652 0.650410 0.000000
C502  C     C_R   0.767081 0.681249 0.621766 0.000000
C503  C     C_R   0.840885 0.708556 0.604559 0.000000
C504  C     C_R   0.803270 0.716560 0.576481 0.000000
N155  N     N_2   0.857425 0.750733 0.558497 0.000000
C505  C     C_R   0.702243 0.694679 0.566217 0.000000
C506  C     C_R   0.636548 0.663701 0.583090 0.000000
C507  C     C_R   0.666304 0.659438 0.611319 0.000000
N156  N     N_R   0.595590 0.641149 0.632607 0.000000
H419  H     H_    0.786027 0.536687 0.761610 0.000000
H420  H     H_    0.730564 0.495091 0.738865 0.000000
H421  H     H_    0.759586 0.619572 0.748538 0.000000
H422  H     H_    0.723403 0.678398 0.709390 0.000000
H423  H     H_    0.537563 0.586050 0.663946 0.000000
H424  H     H_    0.597009 0.519157 0.699820 0.000000
H425  H     H_    0.916400 0.726132 0.613901 0.000000
H426  H     H_    0.839804 0.746363 0.537450 0.000000
H427  H     H_    0.945846 0.757775 0.563878 0.000000
H428  H     H_    0.668763 0.705623 0.545519 0.000000
H429  H     H_    0.558895 0.647427 0.574420 0.000000
N157  N     N_2   0.477623 0.829805 0.667004 0.000000
C508  C     C_R   0.409660 0.790523 0.660688 0.000000
C509  C     C_R   0.293320 0.796002 0.648876 0.000000
C510  C     C_R   0.222557 0.757608 0.644994 0.000000
C511  C     C_R   0.273490 0.713897 0.649640 0.000000
C512  C     C_R   0.393372 0.708410 0.659210 0.000000
C513  C     C_R   0.458693 0.746557 0.666473 0.000000
C514  C     C_R   0.199994 0.672562 0.647899 0.000000
N158  N     N_R   0.080218 0.669669 0.659118 0.000000
C515  C     C_R   0.069779 0.624055 0.664570 0.000000
C516  C     C_R   0.983307 0.603288 0.682469 0.000000
C517  C     C_R   0.013601 0.559409 0.694218 0.000000
N159  N     N_2   0.938404 0.537070 0.714823 0.000000
C518  C     C_R   0.123288 0.538316 0.687569 0.000000
C519  C     C_R   0.197905 0.557790 0.666638 0.000000
C520  C     C_R   0.173271 0.601001 0.655950 0.000000
N160  N     N_R   0.258397 0.629896 0.644096 0.000000
H430  H     H_    0.421348 0.858185 0.670657 0.000000
H431  H     H_    0.546888 0.822624 0.681721 0.000000
H432  H     H_    0.257301 0.830310 0.643100 0.000000
H433  H     H_    0.129126 0.761278 0.637582 0.000000
H434  H     H_    0.434690 0.673913 0.661672 0.000000
H435  H     H_    0.548780 0.741877 0.676187 0.000000
H436  H     H_    0.902754 0.622437 0.689736 0.000000
H437  H     H_    0.982174 0.510485 0.726604 0.000000
H438  H     H_    0.893683 0.560848 0.726202 0.000000
H439  H     H_    0.149705 0.507574 0.700075 0.000000
H440  H     H_    0.285269 0.545662 0.662838 0.000000
N161  N     N_2   0.180909 0.499403 0.759184 0.000000
C521  C     C_R   0.115605 0.542004 0.754756 0.000000
C522  C     C_R   0.149053 0.573764 0.733324 0.000000
C523  C     C_R   0.080452 0.613956 0.726851 0.000000
C524  C     C_R   0.976732 0.622843 0.742808 0.000000
C525  C     C_R   0.947481 0.591415 0.765318 0.000000
C526  C     C_R   0.012802 0.550657 0.770579 0.000000
C527  C     C_R   0.913344 0.668276 0.741045 0.000000
N162  N     N_R   0.906253 0.700509 0.717519 0.000000
C528  C     C_R   0.867700 0.739305 0.730422 0.000000
C529  C     C_R   0.845070 0.783080 0.718117 0.000000
C530  C     C_R   0.823916 0.819191 0.736061 0.000000
N163  N     N_2   0.798608 0.864463 0.724332 0.000000
C531  C     C_R   0.834576 0.811542 0.765486 0.000000
C532  C     C_R   0.854004 0.766918 0.777361 0.000000
C533  C     C_R   0.856739 0.730964 0.759328 0.000000
N164  N     N_R   0.874681 0.685517 0.766455 0.000000
H441  H     H_    0.216083 0.487481 0.740533 0.000000
H442  H     H_    0.130470 0.474945 0.770771 0.000000
H443  H     H_    0.231137 0.567288 0.722131 0.000000
H444  H     H_    0.112690 0.639394 0.710818 0.000000
H445  H     H_    0.872442 0.596510 0.779281 0.000000
H446  H     H_    0.983213 0.525724 0.787196 0.000000
H447  H     H_    0.842233 0.789615 0.695372 0.000000
H448  H     H_    0.755101 0.885939 0.738331 0.000000
H449  H     H_    0.763214 0.865239 0.703953 0.000000
H450  H     H_    0.829402 0.840683 0.779123 0.000000
H451  H     H_    0.879398 0.761092 0.799492 0.000000
N165  N     N_2   0.926197 0.508651 0.589167 0.000000
C534  C     C_R   0.034533 0.505267 0.605402 0.000000
C535  C     C_R   0.082495 0.462027 0.614930 0.000000
C536  C     C_R   0.199264 0.458618 0.626786 0.000000
C537  C     C_R   0.265984 0.497851 0.628682 0.000000
C538  C     C_R   0.218983 0.540046 0.618023 0.000000
C539  C     C_R   0.102137 0.544272 0.607409 0.000000
C540  C     C_R   0.388811 0.495605 0.641354 0.000000
N166  N     N_R   0.429216 0.460945 0.660625 0.000000
C541  C     C_R   0.544595 0.473442 0.665835 0.000000
C542  C     C_R   0.627006 0.449632 0.683806 0.000000
C543  C     C_R   0.742192 0.468265 0.686896 0.000000
N167  N     N_2   0.835281 0.441723 0.701599 0.000000
C544  C     C_R   0.768097 0.511261 0.673441 0.000000
C545  C     C_R   0.683614 0.534410 0.655171 0.000000
C546  C     C_R   0.569414 0.515081 0.652271 0.000000
N168  N     N_R   0.466886 0.532927 0.638563 0.000000
H452  H     H_    0.882514 0.477863 0.590503 0.000000
H453  H     H_    0.875658 0.539276 0.590428 0.000000
H454  H     H_    0.029447 0.431001 0.612572 0.000000
H455  H     H_    0.241428 0.426351 0.635046 0.000000
H456  H     H_    0.272710 0.570257 0.617496 0.000000
H457  H     H_    0.067157 0.577540 0.598670 0.000000
H458  H     H_    0.602295 0.418566 0.696125 0.000000
H459  H     H_    0.919567 0.457248 0.703025 0.000000
H460  H     H_    0.804698 0.420821 0.718605 0.000000
H461  H     H_    0.859807 0.524311 0.673801 0.000000
H462  H     H_    0.707575 0.566693 0.643757 0.000000
N169  N     N_2   0.461388 0.657178 0.707410 0.000000
C547  C     C_R   0.456613 0.609367 0.715621 0.000000
C548  C     C_R   0.399777 0.579718 0.698375 0.000000
C549  C     C_R   0.396141 0.531715 0.705559 0.000000
C550  C     C_R   0.445366 0.515031 0.730880 0.000000
C551  C     C_R   0.506086 0.544858 0.747517 0.000000
C552  C     C_R   0.512954 0.591880 0.739758 0.000000
C553  C     C_R   0.414645 0.469084 0.743278 0.000000
N170  N     N_R   0.389726 0.429006 0.727940 0.000000
C554  C     C_R   0.340495 0.401312 0.749074 0.000000
C555  C     C_R   0.287822 0.358709 0.746300 0.000000
C556  C     C_R   0.237532 0.336515 0.770533 0.000000
N171  N     N_2   0.183290 0.292702 0.768624 0.000000
C557  C     C_R   0.238490 0.357371 0.796648 0.000000
C558  C     C_R   0.287657 0.401108 0.798921 0.000000
C559  C     C_R   0.338037 0.422548 0.774835 0.000000
N172  N     N_R   0.383090 0.465994 0.772273 0.000000
H463  H     H_    0.374772 0.672732 0.705228 0.000000
H464  H     H_    0.524919 0.675911 0.718050 0.000000
H465  H     H_    0.359531 0.597633 0.680123 0.000000
H466  H     H_    0.349984 0.505884 0.694044 0.000000
H467  H     H_    0.542743 0.530624 0.767344 0.000000
H468  H     H_    0.556335 0.615220 0.753467 0.000000
H469  H     H_    0.281836 0.343445 0.725778 0.000000
H470  H     H_    0.120530 0.284812 0.784700 0.000000
H471  H     H_    0.156707 0.285762 0.748252 0.000000
H472  H     H_    0.198202 0.339607 0.815279 0.000000
H473  H     H_    0.285865 0.417781 0.818986 0.000000
N173  N     N_2   0.075083 0.702606 0.317807 0.000000
C560  C     C_R   0.031352 0.658800 0.327632 0.000000
C561  C     C_R   0.102694 0.619190 0.324036 0.000000
C562  C     C_R   0.060185 0.575978 0.333551 0.000000
C563  C     C_R   0.946843 0.572807 0.347204 0.000000
C564  C     C_R   0.876296 0.612675 0.350906 0.000000
C565  C     C_R   0.917705 0.655536 0.340985 0.000000
C566  C     C_R   0.898317 0.528875 0.359234 0.000000
N174  N     N_R   0.858751 0.493026 0.342386 0.000000
C567  C     C_R   0.779339 0.471678 0.360891 0.000000
C568  C     C_R   0.706124 0.435647 0.355992 0.000000
C569  C     C_R   0.607347 0.426575 0.373824 0.000000
N175  N     N_2   0.516610 0.396432 0.364416 0.000000
C570  C     C_R   0.599717 0.447367 0.400003 0.000000
C571  C     C_R   0.687041 0.479394 0.406852 0.000000
C572  C     C_R   0.772784 0.491941 0.386305 0.000000
N176  N     N_R   0.851886 0.526684 0.387224 0.000000
H474  H     H_    0.141722 0.700911 0.302060 0.000000
H475  H     H_    0.005964 0.727544 0.314512 0.000000
H476  H     H_    0.192499 0.622683 0.314002 0.000000
H477  H     H_    0.117018 0.545154 0.331194 0.000000
H478  H     H_    0.786729 0.610036 0.361284 0.000000
H479  H     H_    0.861418 0.686539 0.343829 0.000000
H480  H     H_    0.732332 0.412206 0.340657 0.000000
H481  H     H_    0.466905 0.377021 0.379150 0.000000
H482  H     H_    0.539724 0.381272 0.345670 0.000000
H483  H     H_    0.528162 0.439284 0.415390 0.000000
H484  H     H_    0.681541 0.496627 0.426771 0.000000
N177  N     N_2   0.829219 0.169897 0.240543 0.000000
C573  C     C_R   0.893032 0.205600 0.225155 0.000000
C574  C     C_R   0.829503 0.242950 0.212026 0.000000
C575  C     C_R   0.890790 0.274648 0.193922 0.000000
C576  C     C_R   0.013489 0.267253 0.188212 0.000000
C577  C     C_R   0.079223 0.232738 0.203447 0.000000
C578  C     C_R   0.019177 0.201811 0.221917 0.000000
C579  C     C_R   0.075109 0.290042 0.163726 0.000000
N178  N     N_R   0.019705 0.316765 0.141010 0.000000
C580  C     C_R   0.118371 0.323337 0.123270 0.000000
C581  C     C_R   0.126393 0.347796 0.097144 0.000000
C582  C     C_R   0.242982 0.350141 0.083907 0.000000
N179  N     N_2   0.263007 0.376571 0.058226 0.000000
C583  C     C_R   0.343964 0.326142 0.095793 0.000000
C584  C     C_R   0.330402 0.299568 0.120682 0.000000
C585  C     C_R   0.220390 0.300771 0.134223 0.000000
N180  N     N_R   0.199142 0.280071 0.159775 0.000000
H485  H     H_    0.734062 0.171575 0.239265 0.000000
H486  H     H_    0.872432 0.137606 0.240881 0.000000
H487  H     H_    0.730935 0.244782 0.214457 0.000000
H488  H     H_    0.842719 0.301433 0.180864 0.000000
H489  H     H_    0.176574 0.227995 0.198971 0.000000
H490  H     H_    0.068066 0.172553 0.232314 0.000000
H491  H     H_    0.045947 0.363832 0.087260 0.000000
H492  H     H_    0.348432 0.369654 0.049497 0.000000
H493  H     H_    0.193397 0.377261 0.043534 0.000000
H494  H     H_    0.432462 0.327963 0.085094 0.000000
H495  H     H_    0.396645 0.275143 0.129217 0.000000
N181  N     N_2   0.240049 0.461880 0.119615 0.000000
C586  C     C_R   0.325489 0.426548 0.127604 0.000000
C587  C     C_R   0.448634 0.432556 0.121447 0.000000
C588  C     C_R   0.534348 0.398891 0.129816 0.000000
C589  C     C_R   0.495630 0.357861 0.143797 0.000000
C590  C     C_R   0.373828 0.354427 0.151639 0.000000
C591  C     C_R   0.286549 0.386779 0.142029 0.000000
C592  C     C_R   0.570685 0.315401 0.150503 0.000000
N182  N     N_R   0.695536 0.307950 0.143851 0.000000
C593  C     C_R   0.714108 0.263684 0.154002 0.000000
C594  C     C_R   0.823087 0.238880 0.155766 0.000000
C595  C     C_R   0.826037 0.197937 0.173047 0.000000
N183  N     N_2   0.940010 0.176495 0.180841 0.000000
C596  C     C_R   0.718273 0.180863 0.185487 0.000000
C597  C     C_R   0.609712 0.206371 0.182614 0.000000
C598  C     C_R   0.610971 0.247010 0.166894 0.000000
N184  N     N_R   0.517182 0.277698 0.165067 0.000000
H496  H     H_    0.279590 0.486100 0.105662 0.000000
H497  H     H_    0.155720 0.448627 0.114630 0.000000
H498  H     H_    0.478086 0.463879 0.109844 0.000000
H499  H     H_    0.627461 0.404801 0.122703 0.000000
H500  H     H_    0.350290 0.325370 0.165675 0.000000
H501  H     H_    0.189751 0.382591 0.147520 0.000000
H502  H     H_    0.905281 0.256107 0.148652 0.000000
H503  H     H_    0.932357 0.148527 0.195310 0.000000
H504  H     H_    0.993180 0.169941 0.163450 0.000000
H505  H     H_    0.719819 0.148975 0.198646 0.000000
H506  H     H_    0.528754 0.198609 0.194661 0.000000
N185  N     N_2   0.954597 0.203140 0.069430 0.000000
C599  C     C_R   0.054968 0.192703 0.087808 0.000000
C600  C     C_R   0.163330 0.175372 0.077273 0.000000
C601  C     C_R   0.263558 0.167358 0.095066 0.000000
C602  C     C_R   0.255944 0.179246 0.123011 0.000000
C603  C     C_R   0.147225 0.196865 0.133656 0.000000
C604  C     C_R   0.044115 0.200045 0.116227 0.000000
C605  C     C_R   0.348046 0.160615 0.142433 0.000000
N186  N     N_R   0.385273 0.115147 0.139380 0.000000
C606  C     C_R   0.425323 0.102152 0.165875 0.000000
C607  C     C_R   0.462429 0.058150 0.175843 0.000000
C608  C     C_R   0.496785 0.051837 0.204186 0.000000
N187  N     N_2   0.536104 0.007415 0.215132 0.000000
C609  C     C_R   0.492153 0.088864 0.221985 0.000000
C610  C     C_R   0.450925 0.132695 0.212055 0.000000
C611  C     C_R   0.416344 0.138878 0.183601 0.000000
N188  N     N_R   0.368690 0.177651 0.169201 0.000000
H507  H     H_    0.981153 0.207531 0.048367 0.000000
H508  H     H_    0.897668 0.229296 0.076573 0.000000
H509  H     H_    0.163532 0.166083 0.055584 0.000000
H510  H     H_    0.348488 0.151352 0.087733 0.000000
H511  H     H_    0.145475 0.206276 0.155629 0.000000
H512  H     H_    0.952657 0.206830 0.123775 0.000000
H513  H     H_    0.462655 0.028709 0.162517 0.000000
H514  H     H_    0.589256 0.008093 0.233279 0.000000
H515  H     H_    0.567607 0.985813 0.199717 0.000000
H516  H     H_    0.519780 0.083264 0.244073 0.000000
H517  H     H_    0.448917 0.160116 0.226909 0.000000
N189  N     N_2   0.139848 0.327946 0.213053 0.000000
C612  C     C_R   0.079590 0.371128 0.216135 0.000000
C613  C     C_R   0.008187 0.391392 0.194500 0.000000
C614  C     C_R   0.947399 0.433291 0.198500 0.000000
C615  C     C_R   0.956884 0.455391 0.223593 0.000000
C616  C     C_R   0.033793 0.436141 0.243432 0.000000
C617  C     C_R   0.094201 0.394077 0.240660 0.000000
C618  C     C_R   0.887503 0.496868 0.233105 0.000000
N190  N     N_R   0.847626 0.535144 0.215606 0.000000
C619  C     C_R   0.807980 0.565192 0.235374 0.000000
C620  C     C_R   0.747940 0.607885 0.230978 0.000000
C621  C     C_R   0.711633 0.631461 0.255042 0.000000
N191  N     N_2   0.640665 0.673155 0.252385 0.000000
C622  C     C_R   0.740244 0.613498 0.282317 0.000000
C623  C     C_R   0.795060 0.569946 0.286426 0.000000
C624  C     C_R   0.824494 0.546247 0.262628 0.000000
N192  N     N_R   0.871396 0.502809 0.262401 0.000000
H518  H     H_    0.190997 0.327935 0.194551 0.000000
H519  H     H_    0.189141 0.317063 0.230973 0.000000
H520  H     H_    0.996539 0.373962 0.174844 0.000000
H521  H     H_    0.888608 0.446460 0.182873 0.000000
H522  H     H_    0.041263 0.457275 0.260528 0.000000
H523  H     H_    0.153242 0.379160 0.257320 0.000000
H524  H     H_    0.724543 0.621693 0.209773 0.000000
H525  H     H_    0.645808 0.693378 0.269787 0.000000
H526  H     H_    0.641859 0.690234 0.232682 0.000000
H527  H     H_    0.714145 0.633014 0.300593 0.000000
H528  H     H_    0.814684 0.555390 0.307719 0.000000
N193  N     N_2   0.335476 0.600614 0.897354 0.000000
C625  C     C_R   0.217920 0.618613 0.889951 0.000000
C626  C     C_R   0.201955 0.640211 0.863527 0.000000
C627  C     C_R   0.087385 0.656433 0.855109 0.000000
C628  C     C_R   0.991476 0.654353 0.874280 0.000000
C629  C     C_R   0.007314 0.634786 0.901285 0.000000
C630  C     C_R   0.121314 0.616237 0.909257 0.000000
C631  C     C_R   0.886405 0.684099 0.867936 0.000000
N194  N     N_R   0.844395 0.691259 0.840402 0.000000
C632  C     C_R   0.776704 0.731270 0.841994 0.000000
C633  C     C_R   0.702072 0.753488 0.821551 0.000000
C634  C     C_R   0.651608 0.796815 0.827446 0.000000
N195  N     N_2   0.583326 0.822783 0.806330 0.000000
C635  C     C_R   0.669194 0.815286 0.853953 0.000000
C636  C     C_R   0.730897 0.789537 0.875518 0.000000
C637  C     C_R   0.784985 0.747917 0.868741 0.000000
N196  N     N_R   0.848935 0.717634 0.886268 0.000000
H529  H     H_    0.404341 0.616795 0.885641 0.000000
H530  H     H_    0.344573 0.594036 0.918994 0.000000
H531  H     H_    0.281545 0.646987 0.850473 0.000000
H532  H     H_    0.074694 0.675170 0.834702 0.000000
H533  H     H_    0.930186 0.635622 0.915867 0.000000
H534  H     H_    0.137438 0.603252 0.930966 0.000000
H535  H     H_    0.688044 0.738827 0.801092 0.000000
H536  H     H_    0.573535 0.857510 0.810335 0.000000
H537  H     H_    0.609370 0.815833 0.785817 0.000000
H538  H     H_    0.628575 0.848925 0.858221 0.000000
H539  H     H_    0.738771 0.802358 0.896691 0.000000
N197  N     N_2   0.761721 0.311644 0.838605 0.000000
C638  C     C_R   0.680236 0.347695 0.846576 0.000000
C639  C     C_R   0.641658 0.349721 0.874573 0.000000
C640  C     C_R   0.556840 0.383602 0.882047 0.000000
C641  C     C_R   0.513025 0.416486 0.861982 0.000000
C642  C     C_R   0.548870 0.413387 0.833691 0.000000
C643  C     C_R   0.633684 0.379538 0.826133 0.000000
C644  C     C_R   0.409159 0.447512 0.869576 0.000000
N198  N     N_R   0.332469 0.431344 0.891690 0.000000
C645  C     C_R   0.221128 0.436614 0.879126 0.000000
C646  C     C_R   0.132956 0.403297 0.881627 0.000000
C647  C     C_R   0.034290 0.405707 0.862830 0.000000
N199  N     N_2   0.941649 0.371998 0.865219 0.000000
C648  C     C_R   0.031715 0.438676 0.840114 0.000000
C649  C     C_R   0.132200 0.467111 0.834999 0.000000
C650  C     C_R   0.228334 0.463669 0.854143 0.000000
N200  N     N_R   0.346919 0.473319 0.847588 0.000000
H540  H     H_    0.806045 0.318368 0.819359 0.000000
H541  H     H_    0.815294 0.297443 0.855115 0.000000
H542  H     H_    0.674451 0.323752 0.890468 0.000000
H543  H     H_    0.518692 0.382996 0.903262 0.000000
H544  H     H_    0.506331 0.435804 0.817048 0.000000
H545  H     H_    0.660530 0.377044 0.803990 0.000000
H546  H     H_    0.152788 0.371835 0.894677 0.000000
H547  H     H_    0.894054 0.368588 0.846516 0.000000
H548  H     H_    0.969366 0.341594 0.876171 0.000000
H549  H     H_    0.958322 0.437910 0.824516 0.000000
H550  H     H_    0.140402 0.487716 0.815178 0.000000
N201  N     N_2   0.999080 0.523823 0.927295 0.000000
C651  C     C_R   0.034395 0.522092 0.898667 0.000000
C652  C     C_R   0.959417 0.503963 0.878494 0.000000
C653  C     C_R   0.978907 0.517598 0.850272 0.000000
C654  C     C_R   0.079717 0.544653 0.843633 0.000000
C655  C     C_R   0.171866 0.549546 0.863232 0.000000
C656  C     C_R   0.147727 0.538327 0.891217 0.000000
C657  C     C_R   0.100060 0.566521 0.815912 0.000000
N202  N     N_R   0.037241 0.607665 0.806433 0.000000
C658  C     C_R   0.119664 0.625630 0.787527 0.000000
C659  C     C_R   0.122660 0.670958 0.776783 0.000000
C660  C     C_R   0.227478 0.685000 0.761997 0.000000
N203  N     N_2   0.236618 0.731621 0.751591 0.000000
C661  C     C_R   0.328856 0.654853 0.760190 0.000000
C662  C     C_R   0.324211 0.609713 0.771765 0.000000
C663  C     C_R   0.219837 0.596470 0.785016 0.000000
N204  N     N_R   0.214083 0.559164 0.802992 0.000000
H551  H     H_    0.072337 0.536425 0.938181 0.000000
H552  H     H_    0.919177 0.543485 0.929611 0.000000
H553  H     H_    0.882697 0.481986 0.884816 0.000000
H554  H     H_    0.916545 0.507768 0.833753 0.000000
H555  H     H_    0.257794 0.565906 0.856906 0.000000
H556  H     H_    0.211349 0.544734 0.907903 0.000000
H557  H     H_    0.055921 0.696861 0.782992 0.000000
H558  H     H_    0.301932 0.736527 0.735670 0.000000
H559  H     H_    0.151772 0.748009 0.748159 0.000000
H560  H     H_    0.414703 0.668828 0.752866 0.000000
H561  H     H_    0.402818 0.588198 0.777786 0.000000
N205  N     N_2   0.323893 0.770154 0.788807 0.000000
C664  C     C_R   0.389718 0.727266 0.790936 0.000000
C665  C     C_R   0.337970 0.689208 0.805207 0.000000
C666  C     C_R   0.403627 0.647416 0.807847 0.000000
C667  C     C_R   0.518098 0.643315 0.795269 0.000000
C668  C     C_R   0.571825 0.681729 0.781802 0.000000
C669  C     C_R   0.506476 0.723436 0.779052 0.000000
C670  C     C_R   0.591990 0.600594 0.799981 0.000000
N206  N     N_R   0.542853 0.557422 0.809061 0.000000
C671  C     C_R   0.640040 0.539103 0.824063 0.000000
C672  C     C_R   0.628380 0.506181 0.845085 0.000000
C673  C     C_R   0.694381 0.511165 0.869561 0.000000
N207  N     N_2   0.652644 0.489162 0.894852 0.000000
C674  C     C_R   0.780814 0.545789 0.870903 0.000000
C675  C     C_R   0.814814 0.570796 0.846566 0.000000
C676  C     C_R   0.738280 0.568252 0.823661 0.000000
N208  N     N_R   0.715647 0.605494 0.806745 0.000000
H562  H     H_    0.349932 0.791741 0.771689 0.000000
H563  H     H_    0.230235 0.767647 0.792827 0.000000
H564  H     H_    0.245615 0.692408 0.813907 0.000000
H565  H     H_    0.364981 0.616428 0.818096 0.000000
H566  H     H_    0.664302 0.678852 0.772925 0.000000
H567  H     H_    0.546820 0.753065 0.767628 0.000000
H568  H     H_    0.546809 0.487250 0.845236 0.000000
H569  H     H_    0.643705 0.513663 0.909757 0.000000
H570  H     H_    0.575329 0.469796 0.892198 0.000000
H571  H     H_    0.816661 0.554763 0.891301 0.000000
H572  H     H_    0.878564 0.599144 0.847626 0.000000
N209  N     N_2   0.395968 0.264518 0.062626 0.000000
C677  C     C_R   0.269128 0.276923 0.060636 0.000000
C678  C     C_R   0.225168 0.302770 0.037319 0.000000
C679  C     C_R   0.099803 0.312241 0.034699 0.000000
C680  C     C_R   0.021852 0.301636 0.057373 0.000000
C681  C     C_R   0.066780 0.278639 0.081555 0.000000
C682  C     C_R   0.189197 0.264607 0.082459 0.000000
C683  C     C_R   0.896334 0.320149 0.056687 0.000000
N210  N     N_R   0.832617 0.327181 0.031103 0.000000
C684  C     C_R   0.731496 0.350873 0.039559 0.000000
C685  C     C_R   0.636288 0.369777 0.023320 0.000000
C686  C     C_R   0.541825 0.393041 0.036920 0.000000
N211  N     N_2   0.451703 0.417888 0.020305 0.000000
C687  C     C_R   0.533710 0.389935 0.066612 0.000000
C688  C     C_R   0.626403 0.366347 0.082068 0.000000
C689  C     C_R   0.731086 0.354410 0.068277 0.000000
N212  N     N_R   0.834526 0.336533 0.080557 0.000000
H573  H     H_    0.440179 0.263628 0.043148 0.000000
H574  H     H_    0.415320 0.237375 0.077250 0.000000
H575  H     H_    0.289754 0.319813 0.022893 0.000000
H576  H     H_    0.065443 0.333365 0.016531 0.000000
H577  H     H_    0.007055 0.273056 0.099938 0.000000
H578  H     H_    0.224277 0.246339 0.100871 0.000000
H579  H     H_    0.637024 0.369642 0.000713 0.000000
H580  H     H_    0.423399 0.448150 0.029180 0.000000
H581  H     H_    0.476272 0.421817 0.999069 0.000000
H582  H     H_    0.454549 0.404256 0.077658 0.000000
H583  H     H_    0.613245 0.348373 0.102261 0.000000
N213  N     N_2   0.230679 0.478482 0.051808 0.000000
C690  C     C_R   0.125857 0.477145 0.069715 0.000000
C691  C     C_R   0.045215 0.440403 0.069514 0.000000
C692  C     C_R   0.957786 0.434794 0.090522 0.000000
C693  C     C_R   0.952262 0.465447 0.111500 0.000000
C694  C     C_R   0.014410 0.506064 0.108594 0.000000
C695  C     C_R   0.102790 0.512432 0.087749 0.000000
C696  C     C_R   0.869563 0.456554 0.135059 0.000000
N214  N     N_R   0.818311 0.413160 0.140495 0.000000
C697  C     C_R   0.727931 0.423967 0.159407 0.000000
C698  C     C_R   0.652078 0.395304 0.175235 0.000000
C699  C     C_R   0.556926 0.416202 0.190399 0.000000
N215  N     N_2   0.471643 0.389299 0.205967 0.000000
C700  C     C_R   0.538736 0.463755 0.189171 0.000000
C701  C     C_R   0.621485 0.491796 0.174636 0.000000
C702  C     C_R   0.718753 0.470585 0.161979 0.000000
N216  N     N_R   0.815395 0.491964 0.150047 0.000000
H584  H     H_    0.243782 0.448583 0.041287 0.000000
H585  H     H_    0.306850 0.494271 0.059798 0.000000
H586  H     H_    0.047995 0.415547 0.053543 0.000000
H587  H     H_    0.892255 0.406992 0.090797 0.000000
H588  H     H_    0.996585 0.531006 0.123678 0.000000
H589  H     H_    0.159639 0.542997 0.086980 0.000000
H590  H     H_    0.673499 0.358891 0.177790 0.000000
H591  H     H_    0.404568 0.408511 0.216123 0.000000
H592  H     H_    0.443080 0.361378 0.195354 0.000000
H593  H     H_    0.455204 0.477867 0.198307 0.000000
H594  H     H_    0.604389 0.528156 0.169601 0.000000
N217  N     N_2   0.256266 0.512731 0.237593 0.000000
C703  C     C_R   0.340089 0.543421 0.223809 0.000000
C704  C     C_R   0.295195 0.578914 0.205669 0.000000
C705  C     C_R   0.375504 0.602091 0.187347 0.000000
C706  C     C_R   0.499352 0.590086 0.187145 0.000000
C707  C     C_R   0.546838 0.560547 0.208723 0.000000
C708  C     C_R   0.466794 0.536004 0.226530 0.000000
C709  C     C_R   0.571211 0.605787 0.161999 0.000000
N218  N     N_R   0.512353 0.628345 0.138736 0.000000
C710  C     C_R   0.604973 0.634162 0.120336 0.000000
C711  C     C_R   0.591314 0.651698 0.093181 0.000000
C712  C     C_R   0.681246 0.640365 0.074143 0.000000
N219  N     N_2   0.670199 0.658149 0.045942 0.000000
C713  C     C_R   0.783624 0.612966 0.082925 0.000000
C714  C     C_R   0.804057 0.603024 0.111708 0.000000
C715  C     C_R   0.710171 0.612698 0.130116 0.000000
N220  N     N_R   0.695551 0.594632 0.156935 0.000000
H595  H     H_    0.167630 0.516319 0.229600 0.000000
H596  H     H_    0.290118 0.478969 0.239624 0.000000
H597  H     H_    0.196392 0.585744 0.204015 0.000000
H598  H     H_    0.341428 0.627575 0.171590 0.000000
H599  H     H_    0.644180 0.551586 0.209293 0.000000
H600  H     H_    0.504058 0.506973 0.239627 0.000000
H601  H     H_    0.510770 0.672158 0.086634 0.000000
H602  H     H_    0.734119 0.643138 0.033305 0.000000
H603  H     H_    0.580325 0.660354 0.038617 0.000000
H604  H     H_    0.852574 0.602519 0.067508 0.000000
H605  H     H_    0.887928 0.586940 0.119346 0.000000
N221  N     N_2   0.019996 0.740759 0.241511 0.000000
C716  C     C_R   0.027851 0.715470 0.216629 0.000000
C717  C     C_R   0.929489 0.689217 0.208744 0.000000
C718  C     C_R   0.938383 0.663463 0.184709 0.000000
C719  C     C_R   0.045658 0.663791 0.168561 0.000000
C720  C     C_R   0.143028 0.690571 0.176309 0.000000
C721  C     C_R   0.134327 0.716523 0.200219 0.000000
C722  C     C_R   0.073282 0.624850 0.150808 0.000000
N222  N     N_R   0.015775 0.582992 0.158050 0.000000
C723  C     C_R   0.111901 0.553028 0.157380 0.000000
C724  C     C_R   0.111122 0.507840 0.166986 0.000000
C725  C     C_R   0.220363 0.482545 0.165677 0.000000
N223  N     N_2   0.228533 0.437202 0.177937 0.000000
C726  C     C_R   0.325753 0.502963 0.154322 0.000000
C727  C     C_R   0.324337 0.549027 0.145172 0.000000
C728  C     C_R   0.214669 0.573452 0.146518 0.000000
N224  N     N_R   0.194212 0.619105 0.140663 0.000000
H606  H     H_    0.954762 0.728500 0.255996 0.000000
H607  H     H_    0.104969 0.748520 0.249728 0.000000
H608  H     H_    0.848021 0.687225 0.222252 0.000000
H609  H     H_    0.865183 0.640352 0.179581 0.000000
H610  H     H_    0.229589 0.688818 0.164658 0.000000
H611  H     H_    0.212484 0.736350 0.206682 0.000000
H612  H     H_    0.028673 0.494264 0.176396 0.000000
H613  H     H_    0.319651 0.426777 0.179532 0.000000
H614  H     H_    0.178885 0.433541 0.196681 0.000000
H615  H     H_    0.411673 0.483755 0.153777 0.000000
H616  H     H_    0.409498 0.564737 0.139471 0.000000

loop_
_geom_bond_atom_site_label_1
_geom_bond_atom_site_label_2
_geom_bond_distance
_geom_bond_site_symmetry_2
_ccdc_geom_bond_type
Zn1   N2    2.068 .      S
Zn1   N32   2.170 1_655  S
Zn1   N34   2.138 .      S
Zn1   N210  2.131 1_556  S
Zn2   N4    2.065 .      S
Zn2   N6    2.065 .      S
Zn2   N18   2.031 .      S
Zn2   N22   1.965 .      S
Zn3   N12   2.028 .      S
Zn3   N14   2.058 .      S
Zn3   N26   2.055 .      S
Zn3   N56   2.053 .      S
Zn4   N38   2.112 .      S
Zn4   N42   2.122 .      S
Zn4   N46   2.122 .      S
Zn4   N58   2.114 1_556  S
Zn5   N20   2.100 .      S
Zn5   N24   2.042 .      S
Zn5   N28   2.072 .      S
Zn5   N186  2.136 .      S
Zn6   N30   2.175 .      S
Zn6   N36   2.189 .      S
Zn6   N40   2.103 .      S
Zn6   N198  2.180 .      S
Zn7   N44   2.086 .      S
Zn7   N48   2.069 1_655  S
Zn7   N52   2.096 .      S
Zn7   N196  2.078 .      S
Zn8   N54   2.081 .      S
Zn8   N60   2.152 .      S
Zn8   N218  2.078 .      S
Zn8   N224  2.106 .      S
Zn9   N8    2.094 .      S
Zn9   N10   2.078 1_655  S
Zn9   N16   2.093 .      S
Zn9   N50   2.092 1_554  S
Zn10  N62   2.069 .      S
Zn10  N68   2.029 .      S
Zn10  N70   2.092 .      S
Zn10  N76   2.108 .      S
Zn11  N64   2.086 .      S
Zn11  N78   2.304 .      S
Zn11  N82   1.996 .      S
Zn11  N88   2.067 .      S
Zn12  N66   2.052 1_655  S
Zn12  N72   2.098 .      S
Zn12  N90   2.175 .      S
Zn12  N96   2.036 .      S
Zn13  N92   2.126 .      S
Zn13  N100  2.159 .      S
Zn13  N104  2.193 .      S
Zn13  N106  2.234 1_655  S
Zn14  N74   2.050 .      S
Zn14  N112  2.132 .      S
Zn14  N114  2.102 .      S
Zn14  N118  2.072 .      S
Zn15  N80   2.166 .      S
Zn15  N122  2.180 .      S
Zn15  N126  2.131 .      S
Zn15  N132  2.164 .      S
Zn16  N84   2.007 1_655  S
Zn16  N86   2.089 .      S
Zn16  N94   1.976 .      S
Zn16  N136  2.064 .      S
Zn17  N110  2.123 .      S
Zn17  N140  2.140 .      S
Zn17  N144  2.048 .      S
Zn17  N146  2.119 .      S
Zn18  N98   2.109 .      S
Zn18  N116  2.149 1_655  S
Zn18  N120  2.094 .      S
Zn18  N150  2.102 .      S
Zn19  N134  2.094 .      S
Zn19  N154  2.142 .      S
Zn19  N158  2.060 1_655  S
Zn19  N162  2.145 .      S
Zn20  N102  2.187 .      S
Zn20  N108  2.188 .      S
Zn20  N166  1.988 .      S
Zn20  N170  2.245 .      S
Zn21  N124  2.182 1_655  S
Zn21  N128  2.085 .      S
Zn21  N152  2.048 .      S
Zn21  N176  2.122 .      S
Zn22  N130  2.222 .      S
Zn22  N156  2.167 .      S
Zn22  N160  2.222 .      S
Zn22  N168  2.156 .      S
Zn23  N138  2.183 .      S
Zn23  N180  2.112 .      S
Zn23  N184  2.079 .      S
Zn23  N188  2.162 .      S
Zn24  N142  2.058 1_655  S
Zn24  N148  2.074 .      S
Zn24  N174  2.201 .      S
Zn24  N192  2.143 .      S
Zn25  N164  2.088 .      S
Zn25  N194  2.084 .      S
Zn25  N202  2.147 1_655  S
Zn25  N208  2.084 .      S
Zn26  N172  2.218 .      S
Zn26  N200  2.171 .      S
Zn26  N204  2.148 .      S
Zn26  N206  2.225 .      S
Zn27  N178  2.132 1_655  S
Zn27  N182  2.079 .      S
Zn27  N212  2.164 .      S
Zn27  N214  2.142 .      S
Zn28  N190  2.137 .      S
Zn28  N216  2.073 .      S
Zn28  N220  2.080 .      S
Zn28  N222  2.117 1_655  S
N1    C1    1.391 .      S
N1    H1    1.015 .      S
N1    H2    1.029 .      S
C2    H3    1.075 .      S
C3    H4    1.075 .      S
C4    C7    1.439 .      S
C5    H5    1.065 .      S
C6    H6    1.077 .      S
C9    H7    1.081 .      S
C10   N3    1.408 .      S
N3    H8    1.029 .      S
N3    H9    1.029 .      S
C11   H10   1.081 .      S
C12   H11   1.081 .      S
N5    C14   1.407 .      S
N5    H12   1.028 1_556  S
N5    H13   1.026 .      S
C15   H14   1.075 .      S
C16   H15   1.059 .      S
C17   C20   1.466 .      S
C18   H16   1.081 .      S
C19   H17   1.081 .      S
C22   H18   1.066 .      S
C23   N7    1.405 .      S
N7    H19   1.029 .      S
N7    H20   1.029 .      S
C24   H21   1.081 .      S
C25   H22   1.071 .      S
H12   N5    1.028 1_554  S
N9    C27   1.408 .      S
N9    H23   1.029 .      S
N9    H24   1.029 .      S
C28   H25   1.081 .      S
C29   H26   1.077 .      S
C30   C33   1.455 .      S
C31   H27   1.074 .      S
C32   H28   1.076 .      S
N10   Zn9   2.078 1_455  S
C35   H29   1.071 .      S
C36   N11   1.404 .      S
N11   H30   1.027 .      S
N11   H31   1.028 .      S
C37   H32   1.081 .      S
C38   H33   1.062 .      S
N13   C40   1.408 .      S
N13   H34   1.029 .      S
N13   H35   1.029 .      S
C41   H36   1.080 .      S
C42   H37   1.071 .      S
C43   C46   1.464 .      S
C44   H38   1.076 .      S
C45   H39   1.081 .      S
C48   H40   1.081 .      S
C49   N15   1.395 1_554  S
N15   C49   1.395 1_556  S
N15   H41   1.023 .      S
N15   H42   1.022 1_556  S
C50   H43   1.081 .      S
C51   H44   1.067 .      S
H42   N15   1.022 1_554  S
N17   C53   1.409 .      S
N17   H45   1.029 .      S
N17   H46   1.025 .      S
C54   H47   1.078 .      S
C55   H48   1.065 .      S
C56   C59   1.476 .      S
C57   H49   1.079 .      S
C58   H50   1.081 .      S
C61   H51   1.052 .      S
C62   N19   1.406 .      S
N19   H52   1.028 .      S
N19   H53   1.029 .      S
C63   H54   1.081 .      S
C64   H55   1.054 .      S
N21   C66   1.408 .      S
N21   H56   1.029 1_655  S
N21   H57   1.029 .      S
C67   H58   1.080 1_655  S
C68   H59   1.076 .      S
C69   C72   1.450 .      S
C70   H60   1.076 .      S
C71   H61   1.081 .      S
C74   H62   1.070 1_554  S
C75   N23   1.407 .      S
N23   H63   1.026 .      S
N23   H64   1.029 .      S
C76   H65   1.059 1_554  S
C77   H66   1.059 .      S
H56   N21   1.029 1_455  S
H58   C67   1.080 1_455  S
H62   C74   1.070 1_556  S
H65   C76   1.059 1_556  S
N25   C79   1.412 .      S
N25   H67   1.026 .      S
N25   H68   1.027 .      S
C80   H69   1.064 .      S
C81   H70   1.071 .      S
C82   C85   1.434 .      S
C83   H71   1.077 .      S
C84   H72   1.067 .      S
C87   H73   1.076 .      S
C88   N27   1.408 .      S
N27   H74   1.029 .      S
N27   H75   1.029 .      S
C89   H76   1.081 .      S
C90   H77   1.072 1_565  S
H77   C90   1.072 1_545  S
N29   C92   1.401 .      S
N29   H78   1.029 .      S
N29   H79   1.029 .      S
C93   H80   1.070 .      S
C94   H81   1.083 .      S
C95   C98   1.472 1_655  S
C96   H82   1.058 .      S
C97   H83   1.076 .      S
C98   C95   1.472 1_455  S
C100  H84   1.081 .      S
C101  N31   1.408 .      S
N31   H85   1.029 .      S
N31   H86   1.029 .      S
C102  H87   1.077 .      S
C103  H88   1.060 .      S
N32   Zn1   2.170 1_455  S
N33   C105  1.398 .      S
N33   H89   1.029 .      S
N33   H90   1.029 .      S
C106  H91   1.078 .      S
C107  H92   1.080 .      S
C108  C111  1.437 .      S
C109  H93   1.068 .      S
C110  H94   1.080 .      S
C113  H95   1.074 .      S
C114  N35   1.388 .      S
N35   H96   1.008 1_655  S
N35   H97   1.016 1_655  S
C115  H98   1.075 .      S
C116  H99   1.078 .      S
H96   N35   1.008 1_455  S
H97   N35   1.016 1_455  S
N37   C118  1.406 .      S
N37   H100  1.029 .      S
N37   H101  1.028 .      S
C119  H102  1.081 .      S
C120  H103  1.063 .      S
C121  C124  1.452 .      S
C122  H104  1.070 .      S
C123  H105  1.079 .      S
C126  H106  1.072 .      S
C127  N39   1.409 .      S
N39   H107  1.027 1_455  S
N39   H108  1.027 .      S
C128  H109  1.077 .      S
C129  H110  1.067 .      S
H107  N39   1.027 1_655  S
N41   C131  1.408 .      S
N41   H111  1.029 .      S
N41   H112  1.029 .      S
C132  H113  1.082 .      S
C133  H114  1.062 .      S
C134  C137  1.465 .      S
C135  H115  1.067 .      S
C136  H116  1.075 .      S
C139  H117  1.057 .      S
C140  N43   1.404 .      S
N43   H118  1.029 .      S
N43   H119  1.027 .      S
C141  H120  1.077 1_556  S
C142  H121  1.062 .      S
H120  C141  1.077 1_554  S
N45   C144  1.403 .      S
N45   H122  1.028 .      S
N45   H123  1.027 .      S
C145  H124  1.081 .      S
C146  H125  1.061 .      S
C147  C150  1.445 .      S
C148  H126  1.074 .      S
C149  H127  1.073 .      S
C152  H128  1.081 .      S
C153  N47   1.409 .      S
N47   H129  1.029 .      S
N47   H130  1.027 .      S
C154  H131  1.081 .      S
C155  H132  1.079 .      S
N48   Zn7   2.069 1_455  S
N49   C157  1.406 .      S
N49   H133  1.029 .      S
N49   H134  1.027 .      S
C158  H135  1.078 .      S
C159  H136  1.077 .      S
C160  C163  1.447 .      S
C161  H137  1.075 .      S
C162  H138  1.079 1_554  S
N50   Zn9   2.092 1_556  S
C165  H139  1.080 .      S
C166  N51   1.408 .      S
N51   H140  1.029 .      S
N51   H141  1.029 .      S
C167  H142  1.081 .      S
C168  H143  1.081 .      S
H138  C162  1.079 1_556  S
N53   C170  1.406 .      S
N53   H144  1.027 .      S
N53   H145  1.029 .      S
C171  H146  1.075 1_455  S
C172  H147  1.081 .      S
C173  C176  1.451 .      S
C174  H148  1.073 .      S
C175  H149  1.070 .      S
C178  H150  1.068 .      S
C179  N55   1.404 .      S
N55   H151  1.029 .      S
N55   H152  1.028 .      S
C180  H153  1.082 .      S
C181  H154  1.071 .      S
H146  C171  1.075 1_655  S
N57   C183  1.407 .      S
N57   H155  1.029 .      S
N57   H156  1.027 .      S
C184  H157  1.081 .      S
C185  H158  1.073 .      S
C186  C189  1.471 .      S
C187  H159  1.057 .      S
C188  H160  1.081 .      S
N58   Zn4   2.114 1_554  S
C191  H161  1.046 1_554  S
C192  N59   1.407 .      S
N59   H162  1.024 1_455  S
N59   H163  1.029 1_554  S
C193  H164  1.064 .      S
C194  H165  1.080 .      S
H161  C191  1.046 1_556  S
H162  N59   1.024 1_655  S
H163  N59   1.029 1_556  S
N61   C196  1.407 .      S
N61   H166  1.028 .      S
N61   H167  1.029 .      S
C197  H168  1.082 1_565  S
C198  H169  1.073 1_565  S
C199  C202  1.446 .      S
C200  H170  1.081 .      S
C201  H171  1.081 .      S
C204  H172  1.080 .      S
C205  N63   1.408 1_565  S
N63   C205  1.408 1_545  S
N63   H173  1.029 .      S
N63   H174  1.029 1_545  S
C206  H175  1.081 .      S
C207  H176  1.081 .      S
H168  C197  1.082 1_545  S
H169  C198  1.073 1_545  S
H174  N63   1.029 1_565  S
N65   C209  1.405 .      S
N65   H177  1.029 .      S
N65   H178  1.027 .      S
C210  H179  1.081 .      S
C211  H180  1.069 .      S
C212  C215  1.465 .      S
C213  H181  1.077 .      S
C214  H182  1.074 .      S
N66   Zn12  2.052 1_455  S
C217  H183  1.079 .      S
C218  N67   1.408 .      S
N67   H184  1.029 .      S
N67   H185  1.029 .      S
C219  H186  1.081 .      S
C220  H187  1.077 .      S
N69   C222  1.409 .      S
N69   H188  1.029 .      S
N69   H189  1.029 .      S
C223  H190  1.069 .      S
C224  H191  1.067 .      S
C225  C228  1.435 .      S
C226  H192  1.069 .      S
C227  H193  1.063 .      S
C230  H194  1.076 .      S
C231  N71   1.410 .      S
N71   H195  1.028 .      S
N71   H196  1.029 .      S
C232  H197  1.081 .      S
C233  H198  1.080 .      S
N73   C235  1.405 .      S
N73   H199  1.028 .      S
N73   H200  1.026 .      S
C236  H201  1.081 1_455  S
C237  H202  1.081 .      S
C238  C241  1.437 .      S
C239  H203  1.070 .      S
C240  H204  1.057 1_455  S
C243  H205  1.056 .      S
C244  N75   1.408 .      S
N75   H206  1.029 .      S
N75   H207  1.029 .      S
C245  H208  1.082 .      S
C246  H209  1.062 .      S
H201  C236  1.081 1_655  S
H204  C240  1.057 1_655  S
N77   C248  1.399 .      S
N77   H210  1.021 .      S
N77   H211  1.029 .      S
C249  H212  1.060 .      S
C250  H213  1.067 .      S
C251  C254  1.453 .      S
C252  H214  1.053 .      S
C253  H215  1.081 .      S
C256  H216  1.057 .      S
C257  N79   1.408 .      S
N79   H217  1.029 .      S
N79   H218  1.029 .      S
C258  H219  1.081 .      S
C259  H220  1.082 .      S
N81   C261  1.400 .      S
N81   H221  1.029 .      S
N81   H222  1.027 .      S
C262  H223  1.040 .      S
C263  H224  1.058 .      S
C264  C267  1.450 .      S
C265  H225  1.052 .      S
C266  H226  1.073 .      S
C269  H227  1.059 .      S
C270  N83   1.408 .      S
N83   H228  1.029 .      S
N83   H229  1.028 .      S
C271  H230  1.063 .      S
C272  H231  1.076 .      S
N84   Zn16  2.007 1_455  S
N85   C274  1.406 .      S
N85   H232  1.029 .      S
N85   H233  1.029 .      S
C275  H234  1.080 .      S
C276  H235  1.069 .      S
C277  C280  1.465 .      S
C278  H236  1.079 .      S
C279  H237  1.080 .      S
C282  H238  1.081 .      S
C283  N87   1.409 .      S
N87   H239  1.029 .      S
N87   H240  1.029 .      S
C284  H241  1.080 .      S
C285  H242  1.076 .      S
N89   C287  1.409 .      S
N89   H243  1.027 .      S
N89   H244  1.029 .      S
C288  H245  1.069 .      S
C289  H246  1.070 .      S
C290  C293  1.436 .      S
C291  H247  1.081 .      S
C292  H248  1.065 .      S
C295  H249  1.081 .      S
C296  N91   1.408 .      S
N91   H250  1.029 .      S
N91   H251  1.029 .      S
C297  H252  1.081 .      S
C298  H253  1.082 1_655  S
H253  C298  1.082 1_455  S
N93   C300  1.411 .      S
N93   H254  1.029 .      S
N93   H255  1.029 .      S
C301  H256  1.088 .      S
C302  H257  1.081 1_665  S
C303  C306  1.458 .      S
C304  H258  1.075 .      S
C305  H259  1.079 .      S
C308  H260  1.074 .      S
C309  N95   1.407 .      S
N95   H261  1.029 .      S
N95   H262  1.028 .      S
C310  H263  1.081 1_655  S
C311  H264  1.056 .      S
H257  C302  1.081 1_445  S
H263  C310  1.081 1_455  S
N97   C313  1.401 .      S
N97   H265  1.030 .      S
N97   H266  1.030 .      S
C314  H267  1.081 .      S
C315  H268  1.053 .      S
C316  C319  1.447 1_455  S
C317  H269  1.081 .      S
C318  H270  1.054 .      S
C319  C316  1.447 1_655  S
C321  H271  1.070 .      S
C322  N99   1.395 .      S
N99   H272  1.024 .      S
N99   H273  1.020 .      S
C323  H274  1.080 .      S
C324  H275  1.070 .      S
N101  C326  1.411 .      S
N101  H276  1.027 .      S
N101  H277  1.029 .      S
C327  H278  1.061 .      S
C328  H279  1.063 .      S
C329  C332  1.448 .      S
C330  H280  1.063 .      S
C331  H281  1.074 .      S
C334  H282  1.077 .      S
C335  N103  1.408 .      S
N103  H283  1.029 .      S
N103  H284  1.029 .      S
C336  H285  1.081 .      S
C337  H286  1.057 .      S
N105  C339  1.406 .      S
N105  H287  1.024 .      S
N105  H288  1.029 .      S
C340  H289  1.079 .      S
C341  H290  1.081 .      S
C342  C345  1.456 .      S
C343  H291  1.078 .      S
C344  H292  1.079 .      S
N106  Zn13  2.234 1_455  S
C347  H293  1.061 .      S
C348  N107  1.404 .      S
N107  H294  1.027 .      S
N107  H295  1.026 .      S
C349  H296  1.076 .      S
C350  H297  1.081 .      S
N109  C352  1.408 .      S
N109  H298  1.029 .      S
N109  H299  1.029 .      S
C353  H300  1.076 .      S
C354  H301  1.074 .      S
C355  C358  1.456 .      S
C356  H302  1.081 .      S
C357  H303  1.080 .      S
C360  H304  1.052 .      S
C361  N111  1.407 .      S
N111  H305  1.027 .      S
N111  H306  1.021 .      S
C362  H307  1.069 1_455  S
C363  H308  1.076 .      S
H307  C362  1.069 1_655  S
N113  C365  1.400 .      S
N113  H309  1.028 .      S
N113  H310  1.030 .      S
C366  H311  1.060 .      S
C367  H312  1.081 .      S
C368  C371  1.444 .      S
C369  H313  1.060 1_455  S
C370  H314  1.075 .      S
C373  H315  1.080 .      S
C374  N115  1.388 .      S
N115  H316  1.023 .      S
N115  H317  1.023 .      S
C375  H318  1.081 .      S
C376  H319  1.066 1_455  S
N116  Zn18  2.149 1_455  S
H313  C369  1.060 1_655  S
H319  C376  1.066 1_655  S
N117  C378  1.407 .      S
N117  H320  1.027 .      S
N117  H321  1.029 .      S
C379  H322  1.078 .      S
C380  H323  1.073 .      S
C381  C384  1.452 .      S
C382  H324  1.077 .      S
C383  H325  1.076 .      S
C386  H326  1.074 .      S
C387  N119  1.402 .      S
N119  H327  1.023 .      S
N119  H328  1.028 .      S
C388  H329  1.081 .      S
C389  H330  1.060 .      S
N121  C391  1.402 .      S
N121  H331  1.030 .      S
N121  H332  1.029 .      S
C392  H333  1.081 .      S
C393  H334  1.075 .      S
C394  C397  1.441 .      S
C395  H335  1.054 .      S
C396  H336  1.078 .      S
C399  H337  1.069 .      S
C400  N123  1.407 .      S
N123  H338  1.027 .      S
N123  H339  1.029 .      S
C401  H340  1.063 .      S
C402  H341  1.075 .      S
N124  Zn21  2.182 1_455  S
N125  C404  1.406 .      S
N125  H342  1.029 .      S
N125  H343  1.019 .      S
C405  H344  1.062 .      S
C406  H345  1.068 .      S
C407  C410  1.451 .      S
C408  H346  1.080 .      S
C409  H347  1.078 .      S
C412  H348  1.076 .      S
C413  N127  1.408 .      S
N127  H349  1.029 .      S
N127  H350  1.029 .      S
C414  H351  1.081 .      S
C415  H352  1.080 .      S
N129  C417  1.404 .      S
N129  H353  1.019 1_455  S
N129  H354  1.027 .      S
C418  H355  1.071 1_455  S
C419  H356  1.081 .      S
C420  C423  1.405 .      S
C421  H357  1.062 .      S
C422  H358  1.075 .      S
C425  H359  1.043 .      S
C426  N131  1.396 .      S
N131  H360  0.995 .      S
N131  H361  1.026 .      S
C427  H362  1.070 .      S
C428  H363  1.078 .      S
H353  N129  1.019 1_655  S
H355  C418  1.071 1_655  S
N133  C430  1.383 .      S
N133  H364  1.016 .      S
N133  H365  1.027 .      S
C431  H366  1.069 .      S
C432  H367  1.079 .      S
C433  C436  1.397 .      S
C434  H368  1.068 .      S
C435  H369  1.079 .      S
C438  H370  1.081 .      S
C439  N135  1.408 .      S
N135  H371  1.029 .      S
N135  H372  1.028 .      S
C440  H373  1.081 .      S
C441  H374  1.081 .      S
N137  C443  1.400 .      S
N137  H375  1.027 .      S
N137  H376  1.029 .      S
C444  H377  1.057 .      S
C445  H378  1.075 .      S
C446  C449  1.423 .      S
C447  H379  1.076 .      S
C448  H380  1.076 .      S
C451  H381  1.081 .      S
C452  N139  1.408 .      S
N139  H382  1.029 .      S
N139  H383  1.029 .      S
C453  H384  1.081 .      S
C454  H385  1.081 .      S
N141  C456  1.409 .      S
N141  H386  1.029 .      S
N141  H387  1.029 .      S
C457  H388  1.077 .      S
C458  H389  1.078 .      S
C459  C462  1.470 .      S
C460  H390  1.074 .      S
C461  H391  1.073 .      S
N142  Zn24  2.058 1_455  S
C464  H392  1.081 .      S
C465  N143  1.407 .      S
N143  H393  1.029 .      S
N143  H394  1.029 .      S
C466  H395  1.077 .      S
C467  H396  1.060 .      S
N145  C469  1.410 .      S
N145  H397  1.024 .      S
N145  H398  1.029 .      S
C470  H399  1.077 .      S
C471  H400  1.066 .      S
C472  C475  1.457 .      S
C473  H401  1.073 .      S
C474  H402  1.077 .      S
C477  H403  1.076 .      S
C478  N147  1.396 .      S
N147  H404  1.029 .      S
N147  H405  1.026 .      S
C479  H406  1.081 .      S
C480  H407  1.081 .      S
N149  C482  1.406 .      S
N149  H408  1.023 .      S
N149  H409  1.026 .      S
C483  H410  1.081 .      S
C484  H411  1.063 .      S
C485  C488  1.451 .      S
C486  H412  1.063 .      S
C487  H413  1.081 .      S
C490  H414  1.067 .      S
C491  N151  1.379 .      S
N151  H415  1.029 .      S
N151  H416  1.022 .      S
C492  H417  1.081 1_655  S
C493  H418  1.062 .      S
H417  C492  1.081 1_455  S
N153  C495  1.410 .      S
N153  H419  1.028 .      S
N153  H420  1.029 .      S
C496  H421  1.061 .      S
C497  H422  1.070 .      S
C498  C501  1.415 .      S
C499  H423  1.064 .      S
C500  H424  1.056 .      S
C503  H425  1.075 .      S
C504  N155  1.395 .      S
N155  H426  1.020 .      S
N155  H427  1.015 .      S
C505  H428  1.066 .      S
C506  H429  1.061 .      S
N157  C508  1.405 .      S
N157  H430  1.027 .      S
N157  H431  1.029 .      S
C509  H432  1.074 .      S
C510  H433  1.068 .      S
C511  C514  1.449 .      S
C512  H434  1.079 .      S
C513  H435  1.077 .      S
N158  Zn19  2.060 1_455  S
C516  H436  1.081 .      S
C517  N159  1.396 1_455  S
N159  C517  1.396 1_655  S
N159  H437  1.026 .      S
N159  H438  1.003 .      S
C518  H439  1.068 .      S
C519  H440  1.015 .      S
N161  C521  1.406 .      S
N161  H441  1.023 .      S
N161  H442  1.028 .      S
C522  H443  1.044 .      S
C523  H444  1.081 .      S
C524  C527  1.460 .      S
C525  H445  1.050 .      S
C526  H446  1.081 1_455  S
C529  H447  1.072 .      S
C530  N163  1.407 .      S
N163  H448  1.029 .      S
N163  H449  1.029 .      S
C531  H450  1.081 .      S
C532  H451  1.077 .      S
H446  C526  1.081 1_655  S
N165  C534  1.396 1_655  S
N165  H452  1.011 .      S
N165  H453  1.030 .      S
C534  N165  1.396 1_455  S
C535  H454  1.081 .      S
C536  H455  1.078 .      S
C537  C540  1.453 .      S
C538  H456  1.054 .      S
C539  H457  1.081 .      S
C542  H458  1.075 .      S
C543  N167  1.407 .      S
N167  H459  1.025 .      S
N167  H460  1.029 .      S
C544  H461  1.066 .      S
C545  H462  1.082 .      S
N169  C547  1.410 .      S
N169  H463  1.029 .      S
N169  H464  1.028 .      S
C548  H465  1.064 .      S
C549  H466  1.074 .      S
C550  C553  1.459 .      S
C551  H467  1.069 .      S
C552  H468  1.070 .      S
C555  H469  1.081 .      S
C556  N171  1.408 .      S
N171  H470  1.029 .      S
N171  H471  1.029 .      S
C557  H472  1.081 .      S
C558  H473  1.078 .      S
N173  C560  1.408 .      S
N173  H474  1.029 .      S
N173  H475  1.029 .      S
C561  H476  1.078 .      S
C562  H477  1.077 .      S
C563  C566  1.462 .      S
C564  H478  1.081 .      S
C565  H479  1.081 .      S
C568  H480  1.045 .      S
C569  N175  1.409 .      S
N175  H481  1.021 .      S
N175  H482  1.028 .      S
C570  H483  1.073 .      S
C571  H484  1.081 .      S
N177  C573  1.412 .      S
N177  H485  1.028 .      S
N177  H486  1.029 .      S
C574  H487  1.068 .      S
C575  H488  1.082 .      S
C576  C579  1.455 .      S
C577  H489  1.076 .      S
C578  H490  1.078 .      S
N178  Zn27  2.132 1_455  S
C581  H491  1.069 .      S
C582  N179  1.406 .      S
N179  H492  1.025 .      S
N179  H493  1.020 .      S
C583  H494  1.076 .      S
C584  H495  1.055 .      S
N181  C586  1.394 .      S
N181  H496  1.027 .      S
N181  H497  1.026 .      S
C587  H498  1.080 .      S
C588  H499  1.070 .      S
C589  C592  1.470 .      S
C590  H500  1.069 .      S
C591  H501  1.081 .      S
C594  H502  1.067 .      S
C595  N183  1.403 .      S
N183  H503  1.028 .      S
N183  H504  1.017 .      S
C596  H505  1.077 .      S
C597  H506  1.058 .      S
N185  C599  1.403 1_655  S
N185  H507  1.028 .      S
N185  H508  1.029 .      S
C599  N185  1.403 1_455  S
C600  H509  1.064 .      S
C601  H510  1.078 .      S
C602  C605  1.426 .      S
C603  H511  1.078 .      S
C604  H512  1.063 1_455  S
C607  H513  1.079 .      S
C608  N187  1.408 .      S
N187  H514  1.029 .      S
N187  H515  1.029 1_545  S
C609  H516  1.081 .      S
C610  H517  1.079 .      S
H512  C604  1.063 1_655  S
H515  N187  1.029 1_565  S
N189  C612  1.403 .      S
N189  H518  1.025 .      S
N189  H519  1.027 .      S
C613  H520  1.081 1_455  S
C614  H521  1.023 .      S
C615  C618  1.481 .      S
C616  H522  1.036 .      S
C617  H523  1.075 .      S
C620  H524  1.079 .      S
C621  N191  1.408 .      S
N191  H525  1.029 .      S
N191  H526  1.022 .      S
C622  H527  1.081 .      S
C623  H528  1.081 .      S
H520  C613  1.081 1_655  S
N193  C625  1.396 .      S
N193  H529  1.026 .      S
N193  H530  1.026 .      S
C626  H531  1.066 .      S
C627  H532  1.080 .      S
C628  C631  1.427 .      S
C629  H533  1.074 1_455  S
C630  H534  1.078 .      S
C633  H535  1.080 .      S
C634  N195  1.408 .      S
N195  H536  1.029 .      S
N195  H537  1.028 .      S
C635  H538  1.081 .      S
C636  H539  1.081 .      S
H533  C629  1.074 1_655  S
N197  C638  1.408 .      S
N197  H540  1.029 .      S
N197  H541  1.029 .      S
C639  H542  1.081 .      S
C640  H543  1.073 .      S
C641  C644  1.470 .      S
C642  H544  1.082 .      S
C643  H545  1.081 .      S
C646  H546  1.082 .      S
C647  N199  1.407 1_455  S
N199  C647  1.407 1_655  S
N199  H547  1.028 .      S
N199  H548  1.029 .      S
C648  H549  1.081 1_455  S
C649  H550  1.079 .      S
H549  C648  1.081 1_655  S
N201  C651  1.395 1_655  S
N201  H551  1.026 1_655  S
N201  H552  1.028 .      S
C651  N201  1.395 1_455  S
C652  H553  1.082 .      S
C653  H554  1.081 .      S
C654  C657  1.430 .      S
C655  H555  1.081 .      S
C656  H556  1.069 .      S
N202  Zn25  2.147 1_455  S
C659  H557  1.074 .      S
C660  N203  1.407 .      S
N203  H558  1.029 .      S
N203  H559  1.029 .      S
C661  H560  1.065 .      S
C662  H561  1.068 .      S
H551  N201  1.026 1_455  S
N205  C664  1.408 .      S
N205  H562  1.029 .      S
N205  H563  1.029 .      S
C665  H564  1.077 .      S
C666  H565  1.080 .      S
C667  C670  1.457 .      S
C668  H566  1.081 .      S
C669  H567  1.080 .      S
C672  H568  1.044 .      S
C673  N207  1.390 .      S
N207  H569  1.021 .      S
N207  H570  1.024 .      S
C674  H571  1.079 .      S
C675  H572  1.081 .      S
N209  C677  1.407 .      S
N209  H573  1.028 .      S
N209  H574  1.029 .      S
C678  H575  1.075 .      S
C679  H576  1.081 .      S
C680  C683  1.443 1_455  S
C681  H577  1.079 .      S
C682  H578  1.053 .      S
C683  C680  1.443 1_655  S
N210  Zn1   2.131 1_554  S
C685  H579  1.059 .      S
C686  N211  1.406 .      S
N211  H580  1.024 .      S
N211  H581  1.029 1_554  S
C687  H582  1.081 .      S
C688  H583  1.064 .      S
H581  N211  1.029 1_556  S
N213  C690  1.403 .      S
N213  H584  1.021 .      S
N213  H585  1.029 .      S
C691  H586  1.062 .      S
C692  H587  1.078 .      S
C693  C696  1.431 .      S
C694  H588  1.048 1_455  S
C695  H589  1.081 .      S
C698  H590  1.068 .      S
C699  N215  1.392 .      S
N215  H591  1.030 .      S
N215  H592  1.021 .      S
C700  H593  1.075 .      S
C701  H594  1.072 .      S
H588  C694  1.048 1_655  S
N217  C703  1.407 .      S
N217  H595  1.029 .      S
N217  H596  1.029 .      S
C704  H597  1.081 .      S
C705  H598  1.072 .      S
C706  C709  1.463 .      S
C707  H599  1.075 .      S
C708  H600  1.081 .      S
C711  H601  1.075 .      S
C712  N219  1.396 .      S
N219  H602  1.011 .      S
N219  H603  1.029 .      S
C713  H604  1.082 .      S
C714  H605  1.061 .      S
N221  C716  1.408 .      S
N221  H606  1.029 1_455  S
N221  H607  1.029 .      S
C717  H608  1.080 .      S
C718  H609  1.079 .      S
C719  C722  1.455 .      S
C720  H610  1.080 .      S
C721  H611  1.081 .      S
N222  Zn28  2.117 1_455  S
C724  H612  1.062 .      S
C725  N223  1.397 .      S
N223  H613  1.022 .      S
N223  H614  1.028 .      S
C726  H615  1.069 .      S
C727  H616  1.058 .      S
H606  N221  1.029 1_655  S
C1    C2    1.371 .      A
C1    C6    1.359 .      A
C2    C3    1.366 .      A
C3    C4    1.371 .      A
C4    C5    1.365 .      A
C5    C6    1.378 .      A
C7    N2    1.370 1_554  A
C7    N4    1.378 .      A
N2    C7    1.370 1_556  A
N2    C8    1.348 .      A
C8    C9    1.372 .      A
C8    C13   1.368 .      A
C9    C10   1.385 .      A
C10   C11   1.392 .      A
C11   C12   1.386 .      A
C12   C13   1.377 .      A
C13   N4    1.348 1_556  A
N4    C13   1.348 1_554  A
C14   C15   1.377 1_566  A
C14   C19   1.377 .      A
C15   C14   1.377 1_544  A
C15   C16   1.366 .      A
C16   C17   1.374 1_545  A
C17   C16   1.374 1_565  A
C17   C18   1.380 1_554  A
C18   C17   1.380 1_556  A
C18   C19   1.377 .      A
C20   N6    1.375 1_565  A
C20   N8    1.384 .      A
N6    C20   1.375 1_545  A
N6    C21   1.343 1_554  A
C21   N6    1.343 1_556  A
C21   C22   1.363 1_655  A
C21   C26   1.363 1_545  A
C22   C21   1.363 1_455  A
C22   C23   1.384 .      A
C23   C24   1.384 1_545  A
C24   C23   1.384 1_565  A
C24   C25   1.380 .      A
C25   C26   1.368 1_455  A
C26   C21   1.363 1_565  A
C26   C25   1.368 1_655  A
C26   N8    1.343 1_556  A
N8    C26   1.343 1_554  A
C27   C28   1.378 .      A
C27   C32   1.378 .      A
C28   C29   1.379 .      A
C29   C30   1.376 1_556  A
C30   C29   1.376 1_554  A
C30   C31   1.370 .      A
C31   C32   1.376 1_554  A
C32   C31   1.376 1_556  A
C33   N10   1.384 .      A
C33   N12   1.379 .      A
N10   C34   1.347 1_455  A
C34   N10   1.347 1_655  A
C34   C35   1.368 .      A
C34   C39   1.350 1_655  A
C35   C36   1.384 .      A
C36   C37   1.385 .      A
C37   C38   1.379 1_655  A
C38   C37   1.379 1_455  A
C38   C39   1.363 .      A
C39   C34   1.350 1_455  A
C39   N12   1.337 .      A
C40   C41   1.378 .      A
C40   C45   1.377 .      A
C41   C42   1.383 .      A
C42   C43   1.368 .      A
C43   C44   1.369 .      A
C44   C45   1.379 .      A
C46   N14   1.381 .      A
C46   N16   1.392 .      A
N14   C47   1.336 .      A
C47   C48   1.362 .      A
C47   C52   1.361 .      A
C48   C49   1.376 .      A
C49   C50   1.385 1_554  A
C50   C49   1.385 1_556  A
C50   C51   1.381 .      A
C51   C52   1.374 1_556  A
C52   C51   1.374 1_554  A
C52   N16   1.350 .      A
C53   C54   1.378 .      A
C53   C58   1.381 .      A
C54   C55   1.382 1_556  A
C55   C54   1.382 1_554  A
C55   C56   1.366 .      A
C56   C57   1.389 .      A
C57   C58   1.384 1_554  A
C58   C57   1.384 1_556  A
C59   N18   1.363 1_455  A
C59   N20   1.406 .      A
N18   C59   1.363 1_655  A
N18   C60   1.347 .      A
C60   C61   1.371 .      A
C60   C65   1.347 1_655  A
C61   C62   1.379 .      A
C62   C63   1.383 1_655  A
C63   C62   1.383 1_455  A
C63   C64   1.375 .      A
C64   C65   1.360 .      A
C65   C60   1.347 1_455  A
C65   N20   1.340 .      A
C66   C67   1.381 .      A
C66   C71   1.384 .      A
C67   C68   1.383 .      A
C68   C69   1.376 .      A
C69   C70   1.370 .      A
C70   C71   1.380 .      A
C72   N22   1.373 .      A
C72   N24   1.379 .      A
N22   C73   1.323 .      A
C73   C74   1.362 .      A
C73   C78   1.346 .      A
C74   C75   1.364 1_554  A
C75   C74   1.364 1_556  A
C75   C76   1.382 1_556  A
C76   C75   1.382 1_554  A
C76   C77   1.391 .      A
C77   C78   1.355 .      A
C78   N24   1.348 .      A
C79   C80   1.384 .      A
C79   C84   1.370 .      A
C80   C81   1.378 .      A
C81   C82   1.369 .      A
C82   C83   1.364 .      A
C83   C84   1.356 .      A
C85   N26   1.376 .      A
C85   N28   1.374 1_565  A
N26   C86   1.348 .      A
C86   C87   1.378 .      A
C86   C91   1.368 .      A
C87   C88   1.381 .      A
C88   C89   1.385 .      A
C89   C90   1.383 .      A
C90   C91   1.383 .      A
C91   N28   1.355 1_565  A
N28   C85   1.374 1_545  A
N28   C91   1.355 1_545  A
C92   C93   1.367 .      A
C92   C97   1.354 .      A
C93   C94   1.389 1_655  A
C94   C93   1.389 1_455  A
C94   C95   1.383 1_455  A
C95   C94   1.383 1_655  A
C95   C96   1.381 .      A
C96   C97   1.369 .      A
C98   N30   1.410 .      A
C98   N32   1.392 .      A
N30   C99   1.342 .      A
C99   C100  1.372 .      A
C99   C104  1.367 .      A
C100  C101  1.382 .      A
C101  C102  1.389 .      A
C102  C103  1.383 .      A
C103  C104  1.364 .      A
C104  N32   1.351 .      A
C105  C106  1.379 .      A
C105  C110  1.370 1_554  A
C106  C107  1.370 1_554  A
C107  C106  1.370 1_556  A
C107  C108  1.372 .      A
C108  C109  1.358 .      A
C109  C110  1.372 .      A
C110  C105  1.370 1_556  A
C111  N34   1.389 .      A
C111  N36   1.406 .      A
N34   C112  1.312 .      A
C112  C113  1.332 .      A
C112  C117  1.352 .      A
C113  C114  1.347 .      A
C114  C115  1.387 .      A
C115  C116  1.403 .      A
C116  C117  1.364 .      A
C117  N36   1.350 .      A
C118  C119  1.377 .      A
C118  C123  1.382 .      A
C119  C120  1.377 .      A
C120  C121  1.364 .      A
C121  C122  1.375 .      A
C122  C123  1.380 .      A
C124  N38   1.388 .      A
C124  N40   1.389 .      A
N38   C125  1.349 .      A
C125  C126  1.375 1_556  A
C125  C130  1.360 .      A
C126  C125  1.375 1_554  A
C126  C127  1.384 .      A
C127  C128  1.385 .      A
C128  C129  1.386 1_554  A
C129  C128  1.386 1_556  A
C129  C130  1.368 .      A
C130  N40   1.349 .      A
C131  C132  1.374 .      A
C131  C136  1.374 .      A
C132  C133  1.382 .      A
C133  C134  1.370 .      A
C134  C135  1.366 .      A
C135  C136  1.380 .      A
C137  N42   1.390 .      A
C137  N44   1.391 .      A
N42   C138  1.345 .      A
C138  C139  1.355 1_556  A
C138  C143  1.351 .      A
C139  C138  1.355 1_554  A
C139  C140  1.385 .      A
C140  C141  1.385 1_554  A
C141  C140  1.385 1_556  A
C141  C142  1.378 .      A
C142  C143  1.364 .      A
C143  N44   1.339 .      A
C144  C145  1.379 1_655  A
C144  C149  1.369 .      A
C145  C144  1.379 1_455  A
C145  C146  1.379 .      A
C146  C147  1.353 1_554  A
C147  C146  1.353 1_556  A
C147  C148  1.370 1_455  A
C148  C147  1.370 1_655  A
C148  C149  1.363 1_556  A
C149  C148  1.363 1_554  A
C150  N46   1.391 .      A
C150  N48   1.374 .      A
N46   C151  1.351 .      A
C151  C152  1.370 .      A
C151  C156  1.368 .      A
C152  C153  1.390 .      A
C153  C154  1.390 .      A
C154  C155  1.383 .      A
C155  C156  1.372 .      A
C156  N48   1.342 .      A
C157  C158  1.374 .      A
C157  C162  1.377 .      A
C158  C159  1.382 .      A
C159  C160  1.376 1_554  A
C160  C159  1.376 1_556  A
C160  C161  1.369 .      A
C161  C162  1.378 1_556  A
C162  C161  1.378 1_554  A
C163  N50   1.377 .      A
C163  N52   1.387 .      A
N50   C164  1.350 .      A
C164  C165  1.374 .      A
C164  C169  1.373 .      A
C165  C166  1.387 .      A
C166  C167  1.392 .      A
C167  C168  1.385 .      A
C168  C169  1.372 .      A
C169  N52   1.346 .      A
C170  C171  1.370 1_655  A
C170  C175  1.370 .      A
C171  C170  1.370 1_455  A
C171  C172  1.376 .      A
C172  C173  1.375 .      A
C173  C174  1.361 .      A
C174  C175  1.389 1_455  A
C175  C174  1.389 1_655  A
C176  N54   1.378 .      A
C176  N56   1.380 .      A
N54   C177  1.352 .      A
C177  C178  1.374 .      A
C177  C182  1.360 .      A
C178  C179  1.380 .      A
C179  C180  1.384 .      A
C180  C181  1.380 .      A
C181  C182  1.373 .      A
C182  N56   1.341 .      A
C183  C184  1.377 .      A
C183  C188  1.376 .      A
C184  C185  1.382 .      A
C185  C186  1.381 .      A
C186  C187  1.359 .      A
C187  C188  1.377 .      A
C189  N58   1.397 .      A
C189  N60   1.400 .      A
N58   C190  1.339 .      A
C190  C191  1.364 .      A
C190  C195  1.357 .      A
C191  C192  1.359 .      A
C192  C193  1.368 .      A
C193  C194  1.393 .      A
C194  C195  1.366 .      A
C195  N60   1.343 .      A
C196  C197  1.377 .      A
C196  C201  1.381 .      A
C197  C198  1.371 .      A
C198  C199  1.368 .      A
C199  C200  1.377 .      A
C200  C201  1.380 .      A
C202  N62   1.369 1_565  A
C202  N64   1.381 .      A
N62   C202  1.369 1_545  A
N62   C203  1.353 1_545  A
C203  N62   1.353 1_565  A
C203  C204  1.376 1_565  A
C203  C208  1.367 .      A
C204  C203  1.376 1_545  A
C204  C205  1.387 1_545  A
C205  C204  1.387 1_565  A
C205  C206  1.393 .      A
C206  C207  1.385 .      A
C207  C208  1.367 .      A
C208  N64   1.343 .      A
C209  C210  1.366 .      A
C209  C214  1.371 .      A
C210  C211  1.378 .      A
C211  C212  1.369 .      A
C212  C213  1.377 .      A
C213  C214  1.387 .      A
C215  N66   1.378 .      A
C215  N68   1.383 .      A
N66   C216  1.346 1_455  A
C216  N66   1.346 1_655  A
C216  C217  1.372 .      A
C216  C221  1.361 1_655  A
C217  C218  1.386 .      A
C218  C219  1.393 1_655  A
C219  C218  1.393 1_455  A
C219  C220  1.386 .      A
C220  C221  1.375 .      A
C221  C216  1.361 1_455  A
C221  N68   1.340 .      A
C222  C223  1.368 .      A
C222  C227  1.371 .      A
C223  C224  1.380 .      A
C224  C225  1.362 .      A
C225  C226  1.347 .      A
C226  C227  1.373 .      A
C228  N70   1.379 .      A
C228  N72   1.386 .      A
N70   C229  1.347 .      A
C229  C230  1.367 .      A
C229  C234  1.367 .      A
C230  C231  1.388 .      A
C231  C232  1.393 .      A
C232  C233  1.386 .      A
C233  C234  1.370 .      A
C234  N72   1.344 .      A
C235  C236  1.372 1_655  A
C235  C240  1.379 1_655  A
C236  C235  1.372 1_455  A
C236  C237  1.372 .      A
C237  C238  1.379 .      A
C238  C239  1.356 .      A
C239  C240  1.366 .      A
C240  C235  1.379 1_455  A
C241  N74   1.366 .      A
C241  N76   1.382 .      A
N74   C242  1.346 .      A
C242  C243  1.375 .      A
C242  C247  1.362 .      A
C243  C244  1.375 .      A
C244  C245  1.378 .      A
C245  C246  1.388 .      A
C246  C247  1.367 .      A
C247  N76   1.351 .      A
C248  C249  1.372 .      A
C248  C253  1.361 .      A
C249  C250  1.373 .      A
C250  C251  1.363 .      A
C251  C252  1.381 .      A
C252  C253  1.368 .      A
C254  N78   1.410 .      A
C254  N80   1.384 .      A
N78   C255  1.382 .      A
C255  C256  1.394 .      A
C255  C260  1.384 .      A
C256  C257  1.388 .      A
C257  C258  1.382 .      A
C258  C259  1.374 .      A
C259  C260  1.377 .      A
C260  N80   1.334 .      A
C261  C262  1.361 .      A
C261  C266  1.356 .      A
C262  C263  1.348 .      A
C263  C264  1.356 .      A
C264  C265  1.369 .      A
C265  C266  1.383 .      A
C267  N82   1.374 .      A
C267  N84   1.377 .      A
N82   C268  1.325 .      A
C268  C269  1.351 .      A
C268  C273  1.345 .      A
C269  C270  1.366 .      A
C270  C271  1.375 1_455  A
C271  C270  1.375 1_655  A
C271  C272  1.387 .      A
C272  C273  1.357 1_655  A
C273  C272  1.357 1_455  A
C273  N84   1.338 .      A
C274  C275  1.371 .      A
C274  C279  1.381 .      A
C275  C276  1.374 .      A
C276  C277  1.380 .      A
C277  C278  1.375 .      A
C278  C279  1.387 .      A
C280  N86   1.392 .      A
C280  N88   1.376 .      A
N86   C281  1.338 .      A
C281  C282  1.372 .      A
C281  C286  1.359 .      A
C282  C283  1.381 .      A
C283  C284  1.390 .      A
C284  C285  1.387 .      A
C285  C286  1.379 .      A
C286  N88   1.357 .      A
C287  C288  1.365 .      A
C287  C292  1.376 .      A
C288  C289  1.379 .      A
C289  C290  1.367 .      A
C290  C291  1.370 .      A
C291  C292  1.371 .      A
C293  N90   1.379 .      A
C293  N92   1.395 .      A
N90   C294  1.354 .      A
C294  C295  1.377 .      A
C294  C299  1.372 .      A
C295  C296  1.385 .      A
C296  C297  1.390 .      A
C297  C298  1.384 .      A
C298  C299  1.372 .      A
C299  N92   1.347 .      A
C300  C301  1.385 .      A
C300  C305  1.373 .      A
C301  C302  1.385 .      A
C302  C303  1.381 .      A
C303  C304  1.371 .      A
C304  C305  1.375 .      A
C306  N94   1.362 .      A
C306  N96   1.380 1_565  A
N94   C307  1.339 .      A
C307  C308  1.371 .      A
C307  C312  1.354 1_565  A
C308  C309  1.383 .      A
C309  C310  1.387 1_565  A
C310  C309  1.387 1_545  A
C310  C311  1.384 .      A
C311  C312  1.361 .      A
C312  C307  1.354 1_545  A
C312  N96   1.350 .      A
N96   C306  1.380 1_545  A
C313  C314  1.358 .      A
C313  C318  1.377 .      A
C314  C315  1.363 .      A
C315  C316  1.374 .      A
C316  C317  1.369 .      A
C317  C318  1.376 .      A
C319  N98   1.384 .      A
C319  N100  1.396 .      A
N98   C320  1.324 .      A
C320  C321  1.346 .      A
C320  C325  1.357 .      A
C321  C322  1.370 .      A
C322  C323  1.390 .      A
C323  C324  1.385 .      A
C324  C325  1.368 .      A
C325  N100  1.349 .      A
C326  C327  1.367 .      A
C326  C331  1.371 .      A
C327  C328  1.372 .      A
C328  C329  1.344 .      A
C329  C330  1.376 .      A
C330  C331  1.368 .      A
C332  N102  1.406 .      A
C332  N104  1.385 .      A
N102  C333  1.342 .      A
C333  C334  1.372 .      A
C333  C338  1.375 .      A
C334  C335  1.382 .      A
C335  C336  1.388 .      A
C336  C337  1.385 .      A
C337  C338  1.367 .      A
C338  N104  1.357 .      A
C339  C340  1.381 .      A
C339  C344  1.370 .      A
C340  C341  1.385 .      A
C341  C342  1.379 .      A
C342  C343  1.376 .      A
C343  C344  1.373 .      A
C345  N106  1.412 .      A
C345  N108  1.403 .      A
N106  C346  1.357 .      A
C346  C347  1.363 1_455  A
C346  C351  1.365 .      A
C347  C346  1.363 1_655  A
C347  C348  1.370 .      A
C348  C349  1.382 1_655  A
C349  C348  1.382 1_455  A
C349  C350  1.386 .      A
C350  C351  1.364 .      A
C351  N108  1.334 .      A
C352  C353  1.377 .      A
C352  C357  1.376 .      A
C353  C354  1.380 .      A
C354  C355  1.372 .      A
C355  C356  1.380 .      A
C356  C357  1.378 .      A
C358  N110  1.397 .      A
C358  N112  1.388 .      A
N110  C359  1.354 .      A
C359  C360  1.376 .      A
C359  C364  1.353 .      A
C360  C361  1.367 .      A
C361  C362  1.382 .      A
C362  C363  1.382 .      A
C363  C364  1.363 .      A
C364  N112  1.335 .      A
C365  C366  1.364 .      A
C365  C370  1.366 .      A
C366  C367  1.370 .      A
C367  C368  1.371 .      A
C368  C369  1.362 .      A
C369  C370  1.374 .      A
C371  N114  1.383 .      A
C371  N116  1.389 .      A
N114  C372  1.337 .      A
C372  C373  1.363 .      A
C372  C377  1.366 .      A
C373  C374  1.385 .      A
C374  C375  1.383 .      A
C375  C376  1.381 .      A
C376  C377  1.364 .      A
C377  N116  1.344 .      A
C378  C379  1.380 .      A
C378  C383  1.377 .      A
C379  C380  1.371 .      A
C380  C381  1.373 .      A
C381  C382  1.374 .      A
C382  C383  1.379 .      A
C384  N118  1.379 .      A
C384  N120  1.394 .      A
N118  C385  1.334 .      A
C385  C386  1.355 .      A
C385  C390  1.353 .      A
C386  C387  1.377 .      A
C387  C388  1.386 .      A
C388  C389  1.382 .      A
C389  C390  1.369 .      A
C390  N120  1.348 .      A
C391  C392  1.376 1_655  A
C391  C396  1.370 .      A
C392  C391  1.376 1_455  A
C392  C393  1.379 .      A
C393  C394  1.370 .      A
C394  C395  1.370 1_455  A
C395  C394  1.370 1_655  A
C395  C396  1.370 .      A
C397  N122  1.396 .      A
C397  N124  1.405 .      A
N122  C398  1.344 .      A
C398  C399  1.367 .      A
C398  C403  1.368 .      A
C399  C400  1.376 .      A
C400  C401  1.389 .      A
C401  C402  1.377 .      A
C402  C403  1.362 .      A
C403  N124  1.337 .      A
C404  C405  1.355 .      A
C404  C409  1.386 .      A
C405  C406  1.361 .      A
C406  C407  1.369 .      A
C407  C408  1.381 .      A
C408  C409  1.386 .      A
C410  N126  1.395 .      A
C410  N128  1.382 .      A
N126  C411  1.353 .      A
C411  C412  1.374 .      A
C411  C416  1.368 .      A
C412  C413  1.388 .      A
C413  C414  1.393 .      A
C414  C415  1.385 .      A
C415  C416  1.372 .      A
C416  N128  1.343 .      A
C417  C418  1.397 .      A
C417  C422  1.369 .      A
C418  C419  1.359 .      A
C419  C420  1.359 .      A
C420  C421  1.339 .      A
C421  C422  1.363 .      A
C423  N130  1.390 .      A
C423  N132  1.389 .      A
N130  C424  1.332 .      A
C424  C425  1.314 .      A
C424  C429  1.364 .      A
C425  C426  1.347 .      A
C426  C427  1.387 .      A
C427  C428  1.389 .      A
C428  C429  1.372 .      A
C429  N132  1.337 .      A
C430  C431  1.383 .      A
C430  C435  1.357 .      A
C431  C432  1.353 .      A
C432  C433  1.349 .      A
C433  C434  1.359 .      A
C434  C435  1.352 .      A
C436  N134  1.374 .      A
C436  N136  1.357 .      A
N134  C437  1.351 1_655  A
C437  N134  1.351 1_455  A
C437  C438  1.372 .      A
C437  C442  1.373 .      A
C438  C439  1.389 .      A
C439  C440  1.394 .      A
C440  C441  1.386 .      A
C441  C442  1.373 .      A
C442  N136  1.348 1_455  A
N136  C442  1.348 1_655  A
C443  C444  1.364 .      A
C443  C448  1.364 .      A
C444  C445  1.371 .      A
C445  C446  1.358 .      A
C446  C447  1.376 .      A
C447  C448  1.382 .      A
C449  N138  1.402 .      A
C449  N140  1.372 .      A
N138  C450  1.353 .      A
C450  C451  1.375 .      A
C450  C455  1.379 .      A
C451  C452  1.386 .      A
C452  C453  1.392 .      A
C453  C454  1.385 .      A
C454  C455  1.368 .      A
C455  N140  1.345 .      A
C456  C457  1.371 .      A
C456  C461  1.367 1_655  A
C457  C458  1.383 .      A
C458  C459  1.378 1_655  A
C459  C458  1.378 1_455  A
C459  C460  1.380 .      A
C460  C461  1.383 .      A
C461  C456  1.367 1_455  A
C462  N142  1.384 .      A
C462  N144  1.385 .      A
N142  C463  1.337 .      A
C463  C464  1.371 .      A
C463  C468  1.353 .      A
C464  C465  1.376 .      A
C465  C466  1.383 .      A
C466  C467  1.388 .      A
C467  C468  1.369 .      A
C468  N144  1.353 .      A
C469  C470  1.386 .      A
C469  C474  1.370 .      A
C470  C471  1.379 .      A
C471  C472  1.364 .      A
C472  C473  1.374 .      A
C473  C474  1.370 .      A
C475  N146  1.397 .      A
C475  N148  1.376 .      A
N146  C476  1.354 .      A
C476  C477  1.371 .      A
C476  C481  1.365 .      A
C477  C478  1.386 .      A
C478  C479  1.385 .      A
C479  C480  1.373 .      A
C480  C481  1.364 .      A
C481  N148  1.333 .      A
C482  C483  1.380 .      A
C482  C487  1.378 .      A
C483  C484  1.373 .      A
C484  C485  1.367 .      A
C485  C486  1.360 .      A
C486  C487  1.376 .      A
C488  N150  1.381 .      A
C488  N152  1.386 .      A
N150  C489  1.343 .      A
C489  C490  1.352 .      A
C489  C494  1.357 .      A
C490  C491  1.378 1_655  A
C491  C490  1.378 1_455  A
C491  C492  1.376 1_455  A
C492  C491  1.376 1_655  A
C492  C493  1.363 .      A
C493  C494  1.361 .      A
C494  N152  1.328 .      A
C495  C496  1.380 .      A
C495  C500  1.365 .      A
C496  C497  1.369 .      A
C497  C498  1.354 .      A
C498  C499  1.330 .      A
C499  C500  1.369 .      A
C501  N154  1.385 .      A
C501  N156  1.397 .      A
N154  C502  1.341 .      A
C502  C503  1.361 .      A
C502  C507  1.372 .      A
C503  C504  1.384 .      A
C504  C505  1.372 .      A
C505  C506  1.366 .      A
C506  C507  1.361 .      A
C507  N156  1.343 .      A
C508  C509  1.376 .      A
C508  C513  1.374 .      A
C509  C510  1.376 .      A
C510  C511  1.368 .      A
C511  C512  1.373 .      A
C512  C513  1.375 .      A
C514  N158  1.394 .      A
C514  N160  1.386 .      A
N158  C515  1.330 .      A
C515  C516  1.375 1_455  A
C515  C520  1.356 .      A
C516  C515  1.375 1_655  A
C516  C517  1.382 1_655  A
C517  C516  1.382 1_455  A
C517  C518  1.359 .      A
C518  C519  1.369 .      A
C519  C520  1.336 .      A
C520  N160  1.349 .      A
C521  C522  1.373 .      A
C521  C526  1.356 .      A
C522  C523  1.379 .      A
C523  C524  1.368 1_455  A
C524  C523  1.368 1_655  A
C524  C525  1.391 .      A
C525  C526  1.366 1_655  A
C526  C525  1.366 1_455  A
C527  N162  1.403 .      A
C527  N164  1.373 .      A
N162  C528  1.354 .      A
C528  C529  1.373 .      A
C528  C533  1.367 .      A
C529  C530  1.385 .      A
C530  C531  1.389 .      A
C531  C532  1.383 .      A
C532  C533  1.370 .      A
C533  N164  1.341 .      A
C534  C535  1.388 .      A
C534  C539  1.359 .      A
C535  C536  1.378 .      A
C536  C537  1.358 .      A
C537  C538  1.374 .      A
C538  C539  1.357 .      A
C540  N166  1.374 .      A
C540  N168  1.379 .      A
N166  C541  1.329 .      A
C541  C542  1.373 .      A
C541  C546  1.356 .      A
C542  C543  1.374 .      A
C543  C544  1.390 .      A
C544  C545  1.388 .      A
C545  C546  1.372 .      A
C546  N168  1.358 .      A
C547  C548  1.363 .      A
C547  C552  1.354 .      A
C548  C549  1.404 .      A
C549  C550  1.361 .      A
C550  C551  1.369 .      A
C551  C552  1.385 .      A
C553  N170  1.422 .      A
C553  N172  1.397 .      A
N170  C554  1.351 .      A
C554  C555  1.374 .      A
C554  C559  1.381 .      A
C555  C556  1.386 .      A
C556  C557  1.391 .      A
C557  C558  1.385 .      A
C558  C559  1.372 .      A
C559  N172  1.349 .      A
C560  C561  1.378 .      A
C560  C565  1.375 1_455  A
C561  C562  1.384 .      A
C562  C563  1.378 1_455  A
C563  C562  1.378 1_655  A
C563  C564  1.380 .      A
C564  C565  1.376 .      A
C565  C560  1.375 1_655  A
C566  N174  1.407 .      A
C566  N176  1.400 .      A
N174  C567  1.349 .      A
C567  C568  1.346 .      A
C567  C572  1.354 .      A
C568  C569  1.370 .      A
C569  C570  1.394 .      A
C570  C571  1.382 .      A
C571  C572  1.370 .      A
C572  N176  1.330 .      A
C573  C574  1.379 .      A
C573  C578  1.370 1_655  A
C574  C575  1.387 .      A
C575  C576  1.362 1_655  A
C576  C575  1.362 1_455  A
C576  C577  1.377 .      A
C577  C578  1.377 .      A
C578  C573  1.370 1_455  A
C579  N178  1.407 .      A
C579  N180  1.375 .      A
N178  C580  1.356 .      A
C580  C581  1.382 .      A
C580  C585  1.354 .      A
C581  C582  1.399 .      A
C582  C583  1.380 .      A
C583  C584  1.368 .      A
C584  C585  1.342 .      A
C585  N180  1.329 .      A
C586  C587  1.369 .      A
C586  C591  1.369 .      A
C587  C588  1.367 .      A
C588  C589  1.390 .      A
C589  C590  1.365 .      A
C590  C591  1.369 .      A
C592  N182  1.394 .      A
C592  N184  1.385 .      A
N182  C593  1.346 .      A
C593  C594  1.361 .      A
C593  C598  1.347 .      A
C594  C595  1.392 .      A
C595  C596  1.384 .      A
C596  C597  1.371 .      A
C597  C598  1.348 .      A
C598  N184  1.327 .      A
C599  C600  1.360 .      A
C599  C604  1.363 .      A
C600  C601  1.376 .      A
C601  C602  1.372 .      A
C602  C603  1.369 .      A
C603  C604  1.381 .      A
C605  N186  1.374 .      A
C605  N188  1.391 .      A
N186  C606  1.347 .      A
C606  C607  1.377 .      A
C606  C611  1.380 .      A
C607  C608  1.382 .      A
C608  C609  1.387 .      A
C609  C610  1.385 .      A
C610  C611  1.387 .      A
C611  N188  1.364 .      A
C612  C613  1.373 .      A
C612  C617  1.367 .      A
C613  C614  1.380 1_455  A
C614  C613  1.380 1_655  A
C614  C615  1.371 .      A
C615  C616  1.338 1_655  A
C616  C615  1.338 1_455  A
C616  C617  1.373 .      A
C618  N190  1.398 .      A
C618  N192  1.402 .      A
N190  C619  1.361 .      A
C619  C620  1.381 .      A
C619  C624  1.372 .      A
C620  C621  1.396 .      A
C621  C622  1.386 .      A
C622  C623  1.377 .      A
C623  C624  1.370 .      A
C624  N192  1.338 .      A
C625  C626  1.365 .      A
C625  C630  1.376 .      A
C626  C627  1.363 .      A
C627  C628  1.366 1_455  A
C628  C627  1.366 1_655  A
C628  C629  1.367 1_655  A
C629  C628  1.367 1_455  A
C629  C630  1.374 .      A
C631  N194  1.373 .      A
C631  N196  1.378 .      A
N194  C632  1.354 .      A
C632  C633  1.376 .      A
C632  C637  1.369 .      A
C633  C634  1.389 .      A
C634  C635  1.392 .      A
C635  C636  1.384 .      A
C636  C637  1.372 .      A
C637  N196  1.346 .      A
C638  C639  1.378 .      A
C638  C643  1.378 .      A
C639  C640  1.379 .      A
C640  C641  1.375 .      A
C641  C642  1.385 .      A
C642  C643  1.379 .      A
C644  N198  1.389 .      A
C644  N200  1.402 .      A
N198  C645  1.341 .      A
C645  C646  1.364 .      A
C645  C650  1.373 .      A
C646  C647  1.383 .      A
C647  C648  1.387 .      A
C648  C649  1.383 .      A
C649  C650  1.373 .      A
C650  N200  1.344 .      A
C651  C652  1.378 1_455  A
C651  C656  1.354 .      A
C652  C651  1.378 1_655  A
C652  C653  1.375 .      A
C653  C654  1.375 1_655  A
C654  C653  1.375 1_455  A
C654  C655  1.371 .      A
C655  C656  1.358 .      A
C657  N202  1.402 .      A
C657  N204  1.384 .      A
N202  C658  1.343 .      A
C658  C659  1.373 .      A
C658  C663  1.361 .      A
C659  C660  1.379 .      A
C660  C661  1.385 .      A
C661  C662  1.381 .      A
C662  C663  1.335 .      A
C663  N204  1.330 .      A
C664  C665  1.378 .      A
C664  C669  1.378 .      A
C665  C666  1.381 .      A
C666  C667  1.370 .      A
C667  C668  1.379 .      A
C668  C669  1.378 .      A
C670  N206  1.404 .      A
C670  N208  1.384 .      A
N206  C671  1.346 .      A
C671  C672  1.336 .      A
C671  C676  1.364 .      A
C672  C673  1.368 .      A
C673  C674  1.383 .      A
C674  C675  1.367 .      A
C675  C676  1.363 .      A
C676  N208  1.317 .      A
C677  C678  1.369 .      A
C677  C682  1.370 .      A
C678  C679  1.377 .      A
C679  C680  1.376 .      A
C680  C681  1.366 .      A
C681  C682  1.371 .      A
C683  N210  1.388 .      A
C683  N212  1.397 .      A
N210  C684  1.342 .      A
C684  C685  1.366 .      A
C684  C689  1.355 .      A
C685  C686  1.378 .      A
C686  C687  1.391 .      A
C687  C688  1.381 .      A
C688  C689  1.344 .      A
C689  N212  1.337 .      A
C690  C691  1.383 .      A
C690  C695  1.373 .      A
C691  C692  1.364 1_455  A
C692  C691  1.364 1_655  A
C692  C693  1.355 .      A
C693  C694  1.359 1_655  A
C694  C693  1.359 1_455  A
C694  C695  1.368 .      A
C696  N214  1.386 .      A
C696  N216  1.385 .      A
N214  C697  1.355 .      A
C697  C698  1.362 .      A
C697  C702  1.354 .      A
C698  C699  1.389 .      A
C699  C700  1.375 .      A
C700  C701  1.369 .      A
C701  C702  1.351 .      A
C702  N216  1.327 .      A
C703  C704  1.374 .      A
C703  C708  1.383 .      A
C704  C705  1.373 .      A
C705  C706  1.371 .      A
C706  C707  1.378 .      A
C707  C708  1.376 .      A
C709  N218  1.387 .      A
C709  N220  1.393 .      A
N218  C710  1.323 .      A
C710  C711  1.351 .      A
C710  C715  1.349 .      A
C711  C712  1.360 .      A
C712  C713  1.393 .      A
C713  C714  1.381 .      A
C714  C715  1.360 .      A
C715  N220  1.343 .      A
C716  C717  1.378 1_455  A
C716  C721  1.378 .      A
C717  C716  1.378 1_655  A
C717  C718  1.382 .      A
C718  C719  1.378 1_655  A
C719  C718  1.378 1_455  A
C719  C720  1.377 .      A
C720  C721  1.381 .      A
C722  N222  1.391 .      A
C722  N224  1.394 .      A
N222  C723  1.334 .      A
C723  C724  1.352 .      A
C723  C728  1.349 .      A
C724  C725  1.373 .      A
C725  C726  1.381 .      A
C726  C727  1.370 .      A
C727  C728  1.364 .      A
C728  N224  1.340 .      A
