data_str_m1_o12004_LTF
_audit_creation_date              2015-10-01T06:31:24-0700
_symmetry_space_group_name_H-M    P1
_symmetry_Int_Tables_number       1
_space_group_crystal_system       triclinic
loop_
_symmetry_equiv_pos_as_xyz
  x,y,z
_cell_length_a                    62.2852367
_cell_length_b                    61.7097152
_cell_length_c                    15.8661002
_cell_angle_alpha                 87.8516498
_cell_angle_beta                  92.1620582
_cell_angle_gamma                 116.098815
_cell_volume                      54711.1626608

loop_
_atom_site_label
_atom_site_type_symbol
_atom_site_description
_atom_site_fract_x
_atom_site_fract_y
_atom_site_fract_z
_atom_type_partial_charge
Zn1   Zn    Zn3+2 0.233963 0.806698 0.887644 0.000000
Zn2   Zn    Zn3+2 0.551863 0.914951 0.873162 0.000000
Zn3   Zn    Zn3+2 0.526974 0.297657 0.360945 0.000000
Zn4   Zn    Zn3+2 0.848847 0.401995 0.376757 0.000000
Zn5   Zn    Zn3+2 0.325316 0.005609 0.877986 0.000000
Zn6   Zn    Zn3+2 0.646433 0.816619 0.859779 0.000000
Zn7   Zn    Zn3+2 0.937062 0.714488 0.368359 0.000000
Zn8   Zn    Zn3+2 0.334166 0.601066 0.837276 0.000000
Zn9   Zn    Zn3+2 0.740293 0.609051 0.360179 0.000000
Zn10  Zn    Zn3+2 0.534578 0.404757 0.357747 0.000000
Zn11  Zn    Zn3+2 0.331183 0.202400 0.351989 0.000000
Zn12  Zn    Zn3+2 0.844370 0.199096 0.337687 0.000000
Zn13  Zn    Zn3+2 0.564896 0.255948 0.064961 0.000000
Zn14  Zn    Zn3+2 0.891607 0.480439 0.076910 0.000000
Zn15  Zn    Zn3+2 0.820615 0.947186 0.575999 0.000000
Zn16  Zn    Zn3+2 0.198798 0.052802 0.569675 0.000000
Zn17  Zn    Zn3+2 0.665674 0.577150 0.062516 0.000000
Zn18  Zn    Zn3+2 0.986450 0.896650 0.062253 0.000000
Zn19  Zn    Zn3+2 0.879529 0.888285 0.666387 0.000000
Zn20  Zn    Zn3+2 0.985433 0.246154 0.633287 0.000000
Zn21  Zn    Zn3+2 0.886171 0.165933 0.044312 0.000000
Zn22  Zn    Zn3+2 0.251237 0.264937 0.040585 0.000000
Zn23  Zn    Zn3+2 0.668457 0.158579 0.659378 0.000000
Zn24  Zn    Zn3+2 0.463486 0.472279 0.649159 0.000000
Zn25  Zn    Zn3+2 0.466766 0.158459 0.096417 0.000000
Zn26  Zn    Zn3+2 0.619436 0.048234 0.545645 0.000000
Zn27  Zn    Zn3+2 0.670140 0.683064 0.051777 0.000000
Zn28  Zn    Zn3+2 0.990239 0.470877 0.066562 0.000000
Zn29  Zn    Zn3+2 0.615098 0.744338 0.157614 0.000000
Zn30  Zn    Zn3+2 0.399380 0.047374 0.189490 0.000000
Zn31  Zn    Zn3+2 0.096672 0.750503 0.569589 0.000000
Zn32  Zn    Zn3+2 0.405454 0.530407 0.527742 0.000000
Zn33  Zn    Zn3+2 0.755098 0.013793 0.871411 0.000000
Zn34  Zn    Zn3+2 0.329740 0.300615 0.356109 0.000000
Zn35  Zn    Zn3+2 0.134596 0.393763 0.818755 0.000000
Zn36  Zn    Zn3+2 0.983630 0.681571 0.081638 0.000000
Zn37  Zn    Zn3+2 0.095320 0.531522 0.574917 0.000000
Zn38  Zn    Zn3+2 0.402850 0.050632 0.590180 0.000000
Zn39  Zn    Zn3+2 0.616186 0.743444 0.560004 0.000000
Zn40  Zn    Zn3+2 0.232080 0.599350 0.883058 0.000000
Zn41  Zn    Zn3+2 0.141932 0.497124 0.885335 0.000000
Zn42  Zn    Zn3+2 0.187442 0.630889 0.568026 0.000000
Zn43  Zn    Zn3+2 0.093803 0.315096 0.533704 0.000000
Zn44  Zn    Zn3+2 0.197558 0.321989 0.523993 0.000000
Zn45  Zn    Zn3+2 0.097467 0.959573 0.583667 0.000000
Zn46  Zn    Zn3+2 0.846728 0.619117 0.345283 0.000000
Zn47  Zn    Zn3+2 0.541434 0.807929 0.820959 0.000000
Zn48  Zn    Zn3+2 0.334108 0.907075 0.874118 0.000000
Zn49  Zn    Zn3+2 0.742910 0.304976 0.369606 0.000000
Zn50  Zn    Zn3+2 0.825934 0.050805 0.562724 0.000000
Zn51  Zn    Zn3+2 0.259827 0.167245 0.045507 0.000000
Zn52  Zn    Zn3+2 0.979829 0.261716 0.017821 0.000000
Zn53  Zn    Zn3+2 0.881310 0.891830 0.059773 0.000000
Zn54  Zn    Zn3+2 0.516801 0.957396 0.559534 0.000000
Zn55  Zn    Zn3+2 0.189824 0.735598 0.578445 0.000000
Zn56  Zn    Zn3+2 0.409381 0.633915 0.531771 0.000000
Zn57  Zn    Zn3+2 0.509669 0.732841 0.138028 0.000000
Zn58  Zn    Zn3+2 0.407555 0.948074 0.177280 0.000000
Zn59  Zn    Zn3+2 0.667802 0.262254 0.659992 0.000000
Zn60  Zn    Zn3+2 0.568911 0.476997 0.662459 0.000000
Zn61  Zn    Zn3+2 0.188736 0.633940 0.181090 0.000000
Zn62  Zn    Zn3+2 0.895169 0.583299 0.659730 0.000000
Zn63  Zn    Zn3+2 0.412374 0.632755 0.139132 0.000000
Zn64  Zn    Zn3+2 0.128559 0.915414 0.899508 0.000000
Zn65  Zn    Zn3+2 0.847451 0.814826 0.375086 0.000000
Zn66  Zn    Zn3+2 0.670809 0.160511 0.074251 0.000000
Zn67  Zn    Zn3+2 0.461953 0.471236 0.048112 0.000000
Zn68  Zn    Zn3+2 0.983753 0.689117 0.687358 0.000000
Zn69  Zn    Zn3+2 0.100191 0.531887 0.177110 0.000000
Zn70  Zn    Zn3+2 0.092962 0.743237 0.175846 0.000000
Zn71  Zn    Zn3+2 0.408163 0.529863 0.128139 0.000000
Zn72  Zn    Zn3+2 0.459453 0.159437 0.703488 0.000000
Zn73  Zn    Zn3+2 0.616485 0.049820 0.155704 0.000000
Zn74  Zn    Zn3+2 0.676660 0.685016 0.647464 0.000000
Zn75  Zn    Zn3+2 0.984709 0.462400 0.666093 0.000000
Zn76  Zn    Zn3+2 0.946463 0.820625 0.370926 0.000000
Zn77  Zn    Zn3+2 0.748805 0.911565 0.871610 0.000000
Zn78  Zn    Zn3+2 0.134913 0.816358 0.884431 0.000000
Zn79  Zn    Zn3+2 0.331692 0.497856 0.827455 0.000000
Zn80  Zn    Zn3+2 0.431037 0.201051 0.386559 0.000000
Zn81  Zn    Zn3+2 0.652449 0.009801 0.858049 0.000000
Zn82  Zn    Zn3+2 0.750517 0.714421 0.354835 0.000000
Zn83  Zn    Zn3+2 0.947585 0.391442 0.366033 0.000000
Zn84  Zn    Zn3+2 0.745048 0.205784 0.376253 0.000000
Zn85  Zn    Zn3+2 0.429560 0.397958 0.354342 0.000000
Zn86  Zn    Zn3+2 0.832364 0.054707 0.169449 0.000000
Zn87  Zn    Zn3+2 0.257039 0.163575 0.656553 0.000000
Zn88  Zn    Zn3+2 0.197978 0.328023 0.133509 0.000000
Zn89  Zn    Zn3+2 0.095695 0.961024 0.194291 0.000000
Zn90  Zn    Zn3+2 0.092857 0.323476 0.133005 0.000000
Zn91  Zn    Zn3+2 0.987501 0.903138 0.647924 0.000000
Zn92  Zn    Zn3+2 0.887492 0.160010 0.654681 0.000000
Zn93  Zn    Zn3+2 0.255163 0.264042 0.646263 0.000000
Zn94  Zn    Zn3+2 0.824567 0.948259 0.183459 0.000000
Zn95  Zn    Zn3+2 0.193263 0.058607 0.186053 0.000000
Zn96  Zn    Zn3+2 0.235140 0.396343 0.816942 0.000000
Zn97  Zn    Zn3+2 0.938967 0.285413 0.328102 0.000000
Zn98  Zn    Zn3+2 0.223409 0.009442 0.890661 0.000000
Zn99  Zn    Zn3+2 0.412510 0.954183 0.574868 0.000000
Zn100 Zn    Zn3+2 0.671836 0.262394 0.047859 0.000000
Zn101 Zn    Zn3+2 0.566509 0.477857 0.044177 0.000000
Zn102 Zn    Zn3+2 0.667045 0.580414 0.667025 0.000000
Zn103 Zn    Zn3+2 0.886258 0.473436 0.688736 0.000000
Zn104 Zn    Zn3+2 0.563090 0.258842 0.680632 0.000000
Zn105 Zn    Zn3+2 0.515635 0.956566 0.168394 0.000000
Zn106 Zn    Zn3+2 0.190541 0.740052 0.195651 0.000000
Zn107 Zn    Zn3+2 0.891490 0.582979 0.053389 0.000000
Zn108 Zn    Zn3+2 0.508590 0.733879 0.525751 0.000000
C1    C     C_3   0.248997 0.836458 0.584186 0.000000
N1    N     N_3   0.238240 0.810511 0.600370 0.000000
C2    C     C_3   0.224490 0.805369 0.676390 0.000000
C3    C     C_R   0.219600 0.781149 0.714500 0.000000
N2    N     N_R   0.206780 0.758516 0.678381 0.000000
C4    C     C_R   0.203682 0.743759 0.746178 0.000000
C5    C     C_R   0.186778 0.720184 0.754255 0.000000
C6    C     C_R   0.185600 0.708067 0.829768 0.000000
C7    C     C_R   0.201793 0.719281 0.894275 0.000000
C8    C     C_R   0.217190 0.743524 0.887018 0.000000
C9    C     C_R   0.216428 0.755936 0.814042 0.000000
N3    N     N_R   0.225044 0.779945 0.798830 0.000000
H1    H     H_    0.254093 0.840263 0.517105 0.000000
H2    H     H_    0.236236 0.843880 0.597660 0.000000
H3    H     H_    0.265266 0.845373 0.624631 0.000000
H4    H     H_    0.252343 0.806123 0.613716 0.000000
H5    H     H_    0.234876 0.819057 0.723710 0.000000
H6    H     H_    0.207893 0.807131 0.664887 0.000000
H7    H     H_    0.173996 0.711374 0.704855 0.000000
H8    H     H_    0.171954 0.689867 0.838228 0.000000
H9    H     H_    0.201540 0.709407 0.952203 0.000000
H10   H     H_    0.229464 0.751733 0.937014 0.000000
C10   C     C_3   0.281436 0.884912 0.105650 0.000000
N4    N     N_3   0.284491 0.883961 0.015578 0.000000
C11   C     C_3   0.280668 0.859616 0.998300 0.000000
C12   C     C_R   0.284355 0.856688 0.907554 0.000000
N5    N     N_R   0.269472 0.835272 0.868111 0.000000
C13   C     C_R   0.282934 0.835738 0.802825 0.000000
C14   C     C_R   0.280444 0.816619 0.754967 0.000000
C15   C     C_R   0.296958 0.820467 0.693509 0.000000
C16   C     C_R   0.315590 0.843132 0.680953 0.000000
C17   C     C_R   0.318886 0.861691 0.733712 0.000000
C18   C     C_R   0.302923 0.857354 0.797081 0.000000
N6    N     N_R   0.304675 0.871635 0.862263 0.000000
H11   H     H_    0.271161 0.895314 0.116031 0.000000
H12   H     H_    0.271394 0.866572 0.133531 0.000000
H13   H     H_    0.299235 0.893609 0.137667 0.000000
H14   H     H_    0.302241 0.895589 0.002768 0.000000
H15   H     H_    0.292420 0.854576 0.039627 0.000000
H16   H     H_    0.262178 0.846612 0.013603 0.000000
H17   H     H_    0.267048 0.798669 0.767375 0.000000
H18   H     H_    0.295286 0.805701 0.654965 0.000000
H19   H     H_    0.328174 0.846098 0.631670 0.000000
H20   H     H_    0.333696 0.878756 0.723937 0.000000
C19   C     C_3   0.207777 0.831893 0.132419 0.000000
N7    N     N_3   0.217610 0.818776 0.085415 0.000000
C20   C     C_3   0.200560 0.793395 0.082500 0.000000
C21   C     C_R   0.213807 0.779716 0.058492 0.000000
N8    N     N_R   0.232404 0.790287 0.003544 0.000000
C22   C     C_R   0.248822 0.783664 0.037011 0.000000
C23   C     C_R   0.271529 0.790186 0.009494 0.000000
C24   C     C_R   0.285723 0.781834 0.055953 0.000000
C25   C     C_R   0.277171 0.767838 0.128758 0.000000
C26   C     C_R   0.253951 0.761005 0.153648 0.000000
C27   C     C_R   0.239571 0.768040 0.103754 0.000000
N9    N     N_R   0.216657 0.763905 0.116007 0.000000
H21   H     H_    0.218943 0.851527 0.122972 0.000000
H22   H     H_    0.189250 0.827323 0.110212 0.000000
H23   H     H_    0.208479 0.827616 0.200411 0.000000
H24   H     H_    0.232652 0.819888 0.119952 0.000000
H25   H     H_    0.193584 0.787149 0.146333 0.000000
H26   H     H_    0.185748 0.790780 0.037225 0.000000
H27   H     H_    0.278294 0.801687 0.954431 0.000000
H28   H     H_    0.303827 0.786868 0.037029 0.000000
H29   H     H_    0.288837 0.762444 0.166845 0.000000
H30   H     H_    0.247996 0.751811 0.213070 0.000000
C28   C     C_3   0.592877 0.940901 0.608324 0.000000
N10   N     N_3   0.569193 0.929832 0.643456 0.000000
C29   C     C_3   0.564264 0.948289 0.680284 0.000000
C30   C     C_R   0.539270 0.937191 0.707415 0.000000
N11   N     N_R   0.520317 0.934136 0.652871 0.000000
C31   C     C_R   0.502611 0.913840 0.685028 0.000000
C32   C     C_R   0.481758 0.898472 0.646013 0.000000
C33   C     C_R   0.467367 0.876875 0.686522 0.000000
C34   C     C_R   0.473608 0.871399 0.766149 0.000000
C35   C     C_R   0.495313 0.886481 0.802231 0.000000
C36   C     C_R   0.509941 0.906853 0.758317 0.000000
N12   N     N_R   0.533120 0.921220 0.774739 0.000000
H31   H     H_    0.600380 0.927652 0.610613 0.000000
H32   H     H_    0.591593 0.945503 0.541809 0.000000
H33   H     H_    0.604643 0.957416 0.642509 0.000000
H34   H     H_    0.569780 0.918605 0.693014 0.000000
H35   H     H_    0.575963 0.955322 0.736070 0.000000
H36   H     H_    0.567040 0.962685 0.634295 0.000000
H37   H     H_    0.477352 0.902206 0.583210 0.000000
H38   H     H_    0.451108 0.864177 0.656169 0.000000
H39   H     H_    0.462017 0.854803 0.798315 0.000000
H40   H     H_    0.500709 0.882072 0.862056 0.000000
C37   C     C_3   0.535776 0.873274 0.600817 0.000000
N13   N     N_3   0.535654 0.876434 0.691118 0.000000
C38   C     C_3   0.550459 0.866076 0.730072 0.000000
C39   C     C_R   0.546335 0.861735 0.821962 0.000000
N14   N     N_R   0.542481 0.877293 0.874156 0.000000
C40   C     C_R   0.527272 0.861392 0.931173 0.000000
C41   C     C_R   0.513624 0.865249 0.990387 0.000000
C42   C     C_R   0.495715 0.845761 0.030041 0.000000
C43   C     C_R   0.490444 0.822628 0.007128 0.000000
C44   C     C_R   0.504024 0.818874 0.947992 0.000000
C45   C     C_R   0.523241 0.838350 0.914752 0.000000
N15   N     N_R   0.536464 0.838068 0.850256 0.000000
H41   H     H_    0.535415 0.889005 0.566827 0.000000
H42   H     H_    0.552271 0.872091 0.583043 0.000000
H43   H     H_    0.519913 0.856585 0.582193 0.000000
H44   H     H_    0.518203 0.865642 0.710010 0.000000
H45   H     H_    0.543653 0.847896 0.704455 0.000000
H46   H     H_    0.569385 0.876803 0.714305 0.000000
H47   H     H_    0.514301 0.882398 0.000905 0.000000
H48   H     H_    0.484572 0.848696 0.074473 0.000000
H49   H     H_    0.475280 0.807484 0.033816 0.000000
H50   H     H_    0.498243 0.801136 0.925101 0.000000
C46   C     C_3   0.493686 0.948911 0.836545 0.000000
N16   N     N_3   0.514090 0.946722 0.876216 0.000000
C47   C     C_3   0.505803 0.932863 0.953805 0.000000
C48   C     C_R   0.525988 0.933042 0.007593 0.000000
N17   N     N_R   0.540849 0.923410 0.981602 0.000000
C49   C     C_R   0.550414 0.919689 0.054624 0.000000
C50   C     C_R   0.565077 0.908374 0.065894 0.000000
C51   C     C_R   0.573564 0.907023 0.146747 0.000000
C52   C     C_R   0.567674 0.917339 0.212931 0.000000
C53   C     C_R   0.552513 0.928221 0.199466 0.000000
C54   C     C_R   0.543076 0.928091 0.120198 0.000000
N18   N     N_R   0.527601 0.937031 0.093399 0.000000
H51   H     H_    0.477205 0.932013 0.846406 0.000000
H52   H     H_    0.491525 0.964067 0.863865 0.000000
H53   H     H_    0.496328 0.952013 0.767945 0.000000
H54   H     H_    0.526976 0.963909 0.891301 0.000000
H55   H     H_    0.495513 0.940087 0.988588 0.000000
H56   H     H_    0.493790 0.913860 0.938900 0.000000
H57   H     H_    0.570370 0.901347 0.013330 0.000000
H58   H     H_    0.585391 0.898563 0.158001 0.000000
H59   H     H_    0.575074 0.916946 0.275366 0.000000
H60   H     H_    0.548505 0.936871 0.249182 0.000000
C55   C     C_3   0.602759 0.317534 0.282852 0.000000
N19   N     N_3   0.587711 0.295597 0.329266 0.000000
C56   C     C_3   0.574828 0.275672 0.272911 0.000000
C57   C     C_R   0.555546 0.278978 0.224598 0.000000
N20   N     N_R   0.541095 0.288901 0.254628 0.000000
C58   C     C_R   0.532581 0.294331 0.181727 0.000000
C59   C     C_R   0.517327 0.304798 0.173431 0.000000
C60   C     C_R   0.509567 0.308246 0.093579 0.000000
C61   C     C_R   0.516087 0.299751 0.024206 0.000000
C62   C     C_R   0.530458 0.287947 0.034433 0.000000
C63   C     C_R   0.539301 0.286202 0.114029 0.000000
N21   N     N_R   0.553807 0.276005 0.138760 0.000000
H61   H     H_    0.609840 0.332926 0.325639 0.000000
H62   H     H_    0.618415 0.315917 0.259660 0.000000
H63   H     H_    0.592546 0.321739 0.231541 0.000000
H64   H     H_    0.574969 0.298721 0.359489 0.000000
H65   H     H_    0.587440 0.274367 0.228719 0.000000
H66   H     H_    0.567086 0.258370 0.307829 0.000000
H67   H     H_    0.510386 0.308446 0.228688 0.000000
H68   H     H_    0.497391 0.316401 0.085578 0.000000
H69   H     H_    0.509193 0.301563 0.962144 0.000000
H70   H     H_    0.534082 0.280197 0.980791 0.000000
C64   C     C_3   0.459050 0.323995 0.301608 0.000000
N22   N     N_3   0.481081 0.324814 0.337585 0.000000
C65   C     C_3   0.500616 0.343305 0.292113 0.000000
C66   C     C_R   0.523966 0.349829 0.337367 0.000000
N23   N     N_R   0.538744 0.373812 0.351785 0.000000
C67   C     C_R   0.560283 0.374153 0.362194 0.000000
C68   C     C_R   0.581658 0.394145 0.374128 0.000000
C69   C     C_R   0.601464 0.390452 0.395920 0.000000
C70   C     C_R   0.599126 0.367142 0.407524 0.000000
C71   C     C_R   0.577376 0.347368 0.392439 0.000000
C72   C     C_R   0.558254 0.351306 0.364949 0.000000
N24   N     N_R   0.535316 0.334877 0.349044 0.000000
H71   H     H_    0.455921 0.316331 0.237745 0.000000
H72   H     H_    0.444160 0.312702 0.343283 0.000000
H73   H     H_    0.460024 0.342282 0.296589 0.000000
H74   H     H_    0.480967 0.308493 0.322842 0.000000
H75   H     H_    0.500861 0.337653 0.227217 0.000000
H76   H     H_    0.498195 0.359876 0.284410 0.000000
H77   H     H_    0.582795 0.412111 0.368956 0.000000
H78   H     H_    0.618544 0.405696 0.407587 0.000000
H79   H     H_    0.614414 0.364438 0.429537 0.000000
H80   H     H_    0.575403 0.329646 0.407026 0.000000
C73   C     C_3   0.557296 0.224472 0.453128 0.000000
N25   N     N_3   0.547498 0.236461 0.506887 0.000000
C74   C     C_3   0.550704 0.258607 0.462833 0.000000
C75   C     C_R   0.546757 0.276190 0.514936 0.000000
N26   N     N_R   0.540284 0.293101 0.478052 0.000000
C76   C     C_R   0.540408 0.306279 0.544639 0.000000
C77   C     C_R   0.533666 0.324723 0.546622 0.000000
C78   C     C_R   0.530176 0.332595 0.622376 0.000000
C79   C     C_R   0.536130 0.324133 0.695903 0.000000
C80   C     C_R   0.544789 0.307217 0.693668 0.000000
C81   C     C_R   0.546640 0.297894 0.617143 0.000000
N27   N     N_R   0.551691 0.279124 0.600592 0.000000
H81   H     H_    0.551188 0.224682 0.386926 0.000000
H82   H     H_    0.577119 0.233525 0.457247 0.000000
H83   H     H_    0.550940 0.205327 0.473022 0.000000
H84   H     H_    0.558930 0.241295 0.559113 0.000000
H85   H     H_    0.569382 0.267257 0.444454 0.000000
H86   H     H_    0.538408 0.254361 0.407020 0.000000
H87   H     H_    0.529491 0.332477 0.492160 0.000000
H88   H     H_    0.523154 0.345756 0.624036 0.000000
H89   H     H_    0.533674 0.330459 0.755744 0.000000
H90   H     H_    0.547428 0.300723 0.753767 0.000000
C82   C     C_3   0.822281 0.314645 0.531554 0.000000
N28   N     N_3   0.808381 0.327414 0.503279 0.000000
C83   C     C_3   0.812911 0.333732 0.414494 0.000000
C84   C     C_R   0.800328 0.348184 0.382824 0.000000
N29   N     N_R   0.775538 0.338222 0.367646 0.000000
C85   C     C_R   0.773337 0.356955 0.329072 0.000000
C86   C     C_R   0.752476 0.357252 0.298705 0.000000
C87   C     C_R   0.754226 0.376274 0.246100 0.000000
C88   C     C_R   0.776505 0.393389 0.220932 0.000000
C89   C     C_R   0.797138 0.392873 0.254302 0.000000
C90   C     C_R   0.795173 0.375951 0.315860 0.000000
N30   N     N_R   0.813002 0.372181 0.354896 0.000000
H91   H     H_    0.820242 0.310924 0.600424 0.000000
H92   H     H_    0.815894 0.297349 0.498231 0.000000
H93   H     H_    0.841460 0.325800 0.519191 0.000000
H94   H     H_    0.814767 0.343331 0.536696 0.000000
H95   H     H_    0.832285 0.344789 0.405662 0.000000
H96   H     H_    0.806709 0.317125 0.377225 0.000000
H97   H     H_    0.735228 0.342761 0.313361 0.000000
H98   H     H_    0.738214 0.376816 0.219661 0.000000
H99   H     H_    0.777754 0.406840 0.173221 0.000000
H100  H     H_    0.813939 0.403826 0.226033 0.000000
C91   C     C_3   0.893143 0.496633 0.409841 0.000000
N31   N     N_3   0.880615 0.480612 0.478289 0.000000
C92   C     C_3   0.885424 0.459753 0.477068 0.000000
C93   C     C_R   0.866965 0.440522 0.526832 0.000000
N32   N     N_R   0.863423 0.443589 0.610347 0.000000
C94   C     C_R   0.843784 0.422553 0.627461 0.000000
C95   C     C_R   0.834127 0.412268 0.704115 0.000000
C96   C     C_R   0.813563 0.390760 0.705707 0.000000
C97   C     C_R   0.803191 0.379280 0.631608 0.000000
C98   C     C_R   0.814443 0.388265 0.556269 0.000000
C99   C     C_R   0.835343 0.409219 0.556299 0.000000
N33   N     N_R   0.850384 0.419186 0.491942 0.000000
H101  H     H_    0.895988 0.515197 0.423681 0.000000
H102  H     H_    0.910529 0.496156 0.402269 0.000000
H103  H     H_    0.881971 0.490641 0.351665 0.000000
H104  H     H_    0.862476 0.474454 0.462993 0.000000
H105  H     H_    0.883843 0.453647 0.412065 0.000000
H106  H     H_    0.903410 0.464009 0.504422 0.000000
H107  H     H_    0.842740 0.419254 0.762946 0.000000
H108  H     H_    0.805677 0.382751 0.765388 0.000000
H109  H     H_    0.786909 0.362630 0.633165 0.000000
H110  H     H_    0.806626 0.379014 0.499671 0.000000
C100  C     C_3   0.931861 0.447016 0.255587 0.000000
N34   N     N_3   0.907262 0.437835 0.280957 0.000000
C101  C     C_3   0.893317 0.436253 0.204985 0.000000
C102  C     C_R   0.873111 0.440525 0.221260 0.000000
N35   N     N_R   0.856930 0.429920 0.284970 0.000000
C103  C     C_R   0.844632 0.443321 0.279617 0.000000
C104  C     C_R   0.826368 0.441496 0.329776 0.000000
C105  C     C_R   0.813833 0.454516 0.305102 0.000000
C106  C     C_R   0.820063 0.469272 0.233037 0.000000
C107  C     C_R   0.839962 0.472652 0.187948 0.000000
C108  C     C_R   0.851971 0.459361 0.212647 0.000000
N36   N     N_R   0.870513 0.458352 0.174881 0.000000
H111  H     H_    0.940031 0.466973 0.249653 0.000000
H112  H     H_    0.941942 0.441312 0.301846 0.000000
H113  H     H_    0.932756 0.439303 0.196146 0.000000
H114  H     H_    0.906385 0.451436 0.315094 0.000000
H115  H     H_    0.903650 0.451426 0.164371 0.000000
H116  H     H_    0.887475 0.419665 0.170023 0.000000
H117  H     H_    0.820906 0.429201 0.383540 0.000000
H118  H     H_    0.798643 0.452657 0.340774 0.000000
H119  H     H_    0.809515 0.478607 0.212947 0.000000
H120  H     H_    0.844967 0.484312 0.132672 0.000000
C109  C     C_3   0.393259 0.999474 0.843919 0.000000
N37   N     N_3   0.368271 0.991533 0.823146 0.000000
C110  C     C_3   0.366302 0.000672 0.739177 0.000000
C111  C     C_R   0.365155 0.024237 0.739335 0.000000
N38   N     N_R   0.345744 0.025178 0.775298 0.000000
C112  C     C_R   0.341216 0.040132 0.720933 0.000000
C113  C     C_R   0.320662 0.042887 0.711798 0.000000
C114  C     C_R   0.316618 0.052706 0.636585 0.000000
C115  C     C_R   0.334242 0.062917 0.577480 0.000000
C116  C     C_R   0.355541 0.061509 0.589975 0.000000
C117  C     C_R   0.358016 0.048968 0.660311 0.000000
N39   N     N_R   0.374481 0.040580 0.672659 0.000000
H121  H     H_    0.403033 0.019013 0.830941 0.000000
H122  H     H_    0.395415 0.995896 0.911469 0.000000
H123  H     H_    0.400025 0.989280 0.806749 0.000000
H124  H     H_    0.361323 0.998754 0.866367 0.000000
H125  H     H_    0.380841 0.001774 0.700817 0.000000
H126  H     H_    0.349605 0.987746 0.708302 0.000000
H127  H     H_    0.307093 0.035862 0.757575 0.000000
H128  H     H_    0.299182 0.051433 0.621790 0.000000
H129  H     H_    0.330901 0.070997 0.519932 0.000000
H130  H     H_    0.369117 0.068738 0.542988 0.000000
C118  C     C_3   0.297094 0.946892 0.112044 0.000000
N40   N     N_3   0.299202 0.944319 0.022848 0.000000
C119  C     C_3   0.324342 0.953328 0.001860 0.000000
C120  C     C_R   0.325271 0.953858 0.908690 0.000000
N41   N     N_R   0.321189 0.933199 0.865744 0.000000
C121  C     C_R   0.308761 0.935095 0.796968 0.000000
C122  C     C_R   0.297644 0.918233 0.736191 0.000000
C123  C     C_R   0.286814 0.924602 0.668288 0.000000
C124  C     C_R   0.287927 0.947603 0.661560 0.000000
C125  C     C_R   0.298895 0.964135 0.724611 0.000000
C126  C     C_R   0.308102 0.956890 0.793668 0.000000
N42   N     N_R   0.318531 0.969525 0.863150 0.000000
H131  H     H_    0.278223 0.942327 0.125531 0.000000
H132  H     H_    0.302378 0.934360 0.148174 0.000000
H133  H     H_    0.308470 0.965661 0.130525 0.000000
H134  H     H_    0.292227 0.954993 0.991044 0.000000
H135  H     H_    0.334834 0.971822 0.025120 0.000000
H136  H     H_    0.331543 0.941100 0.029638 0.000000
H137  H     H_    0.297562 0.900714 0.740277 0.000000
H138  H     H_    0.278142 0.911879 0.618691 0.000000
H139  H     H_    0.280392 0.952658 0.606163 0.000000
H140  H     H_    0.300639 0.982255 0.719186 0.000000
C127  C     C_3   0.418954 0.069665 0.896608 0.000000
N43   N     N_3   0.402126 0.064343 0.964009 0.000000
C128  C     C_3   0.386318 0.038914 0.959553 0.000000
C129  C     C_R   0.367059 0.031704 0.020105 0.000000
N44   N     N_R   0.370575 0.039722 0.102246 0.000000
C130  C     C_R   0.347980 0.033729 0.124395 0.000000
C131  C     C_R   0.340456 0.042079 0.190909 0.000000
C132  C     C_R   0.316151 0.032356 0.204480 0.000000
C133  C     C_R   0.300135 0.014556 0.152416 0.000000
C134  C     C_R   0.308029 0.007956 0.081749 0.000000
C135  C     C_R   0.332060 0.019445 0.065387 0.000000
N45   N     N_R   0.343410 0.018812 0.995072 0.000000
H141  H     H_    0.433660 0.087722 0.905830 0.000000
H142  H     H_    0.426542 0.056554 0.897320 0.000000
H143  H     H_    0.409797 0.068573 0.834673 0.000000
H144  H     H_    0.391784 0.073400 0.947972 0.000000
H145  H     H_    0.378163 0.035872 0.896341 0.000000
H146  H     H_    0.395912 0.027964 0.972615 0.000000
H147  H     H_    0.353086 0.055282 0.232975 0.000000
H148  H     H_    0.309697 0.037961 0.257851 0.000000
H149  H     H_    0.281294 0.006324 0.165828 0.000000
H150  H     H_    0.295493 0.994427 0.040478 0.000000
C136  C     C_3   0.610494 0.830813 0.075649 0.000000
N46   N     N_3   0.594405 0.827400 0.003365 0.000000
C137  C     C_3   0.592177 0.806795 0.955130 0.000000
C138  C     C_R   0.595139 0.814185 0.866070 0.000000
N47   N     N_R   0.578643 0.818785 0.817206 0.000000
C139  C     C_R   0.592506 0.832606 0.753472 0.000000
C140  C     C_R   0.585791 0.841269 0.681356 0.000000
C141  C     C_R   0.603228 0.855049 0.624444 0.000000
C142  C     C_R   0.626630 0.858260 0.636556 0.000000
C143  C     C_R   0.632668 0.847380 0.705087 0.000000
C144  C     C_R   0.615326 0.835100 0.763036 0.000000
N48   N     N_R   0.617303 0.822805 0.831987 0.000000
H151  H     H_    0.610587 0.845364 0.114805 0.000000
H152  H     H_    0.604385 0.814009 0.113980 0.000000
H153  H     H_    0.628873 0.836202 0.054931 0.000000
H154  H     H_    0.601591 0.842919 0.965002 0.000000
H155  H     H_    0.606210 0.801658 0.975582 0.000000
H156  H     H_    0.574954 0.790768 0.961967 0.000000
H157  H     H_    0.567389 0.835763 0.664932 0.000000
H158  H     H_    0.598292 0.862166 0.567618 0.000000
H159  H     H_    0.639878 0.868315 0.590174 0.000000
H160  H     H_    0.650469 0.848615 0.712581 0.000000
C145  C     C_3   0.566553 0.753612 0.802506 0.000000
N49   N     N_3   0.591174 0.758687 0.786789 0.000000
C146  C     C_3   0.600788 0.774496 0.713556 0.000000
C147  C     C_R   0.626430 0.780670 0.706146 0.000000
N50   N     N_R   0.643332 0.794173 0.765428 0.000000
C148  C     C_R   0.661727 0.789827 0.749727 0.000000
C149  C     C_R   0.680351 0.793838 0.804058 0.000000
C150  C     C_R   0.698441 0.788872 0.777651 0.000000
C151  C     C_R   0.696437 0.779019 0.699612 0.000000
C152  C     C_R   0.675381 0.771401 0.653310 0.000000
C153  C     C_R   0.657499 0.776543 0.679793 0.000000
N51   N     N_R   0.634700 0.769775 0.649764 0.000000
H161  H     H_    0.561703 0.744745 0.865421 0.000000
H162  H     H_    0.564427 0.770393 0.803433 0.000000
H163  H     H_    0.554341 0.741264 0.755009 0.000000
H164  H     H_    0.591864 0.742481 0.776859 0.000000
H165  H     H_    0.591500 0.765677 0.656199 0.000000
H166  H     H_    0.599117 0.791111 0.719925 0.000000
H167  H     H_    0.680272 0.800374 0.865865 0.000000
H168  H     H_    0.714249 0.793095 0.816573 0.000000
H169  H     H_    0.710961 0.776193 0.675728 0.000000
H170  H     H_    0.674469 0.762782 0.597713 0.000000
C154  C     C_3   0.625162 0.728577 0.872729 0.000000
N52   N     N_3   0.632015 0.743717 0.945750 0.000000
C155  C     C_3   0.619939 0.759066 0.941513 0.000000
C156  C     C_R   0.631457 0.778060 0.002233 0.000000
N53   N     N_R   0.634718 0.773519 0.085359 0.000000
C157  C     C_R   0.653270 0.794213 0.108746 0.000000
C158  C     C_R   0.666707 0.798765 0.182314 0.000000
C159  C     C_R   0.681263 0.822593 0.200279 0.000000
C160  C     C_R   0.682972 0.840687 0.142479 0.000000
C161  C     C_R   0.672899 0.835038 0.062379 0.000000
C162  C     C_R   0.658224 0.811248 0.046235 0.000000
N54   N     N_R   0.645120 0.801284 0.976037 0.000000
H171  H     H_    0.634407 0.716816 0.877561 0.000000
H172  H     H_    0.605589 0.717347 0.870185 0.000000
H173  H     H_    0.630914 0.739884 0.814533 0.000000
H174  H     H_    0.650047 0.755392 0.938392 0.000000
H175  H     H_    0.623506 0.768418 0.881075 0.000000
H176  H     H_    0.600667 0.749301 0.951797 0.000000
H177  H     H_    0.664768 0.784518 0.227383 0.000000
H178  H     H_    0.690681 0.827197 0.260483 0.000000
H179  H     H_    0.693312 0.859383 0.158637 0.000000
H180  H     H_    0.675275 0.849305 0.018089 0.000000
C163  C     C_3   0.875046 0.663497 0.610979 0.000000
N55   N     N_3   0.883635 0.659334 0.532202 0.000000
C164  C     C_3   0.878852 0.673961 0.467807 0.000000
C165  C     C_R   0.886212 0.670538 0.384329 0.000000
N56   N     N_R   0.902844 0.690436 0.342730 0.000000
C166  C     C_R   0.894256 0.687381 0.262611 0.000000
C167  C     C_R   0.903002 0.702753 0.194336 0.000000
C168  C     C_R   0.888557 0.698317 0.122441 0.000000
C169  C     C_R   0.865950 0.678969 0.120847 0.000000
C170  C     C_R   0.858283 0.662945 0.188957 0.000000
C171  C     C_R   0.873513 0.666960 0.257052 0.000000
N57   N     N_R   0.868825 0.654910 0.331258 0.000000
H181  H     H_    0.866175 0.675554 0.601458 0.000000
H182  H     H_    0.862165 0.646076 0.638318 0.000000
H183  H     H_    0.890255 0.671858 0.655116 0.000000
H184  H     H_    0.902126 0.665644 0.538312 0.000000
H185  H     H_    0.859619 0.669424 0.462636 0.000000
H186  H     H_    0.887935 0.693092 0.482516 0.000000
H187  H     H_    0.919442 0.718998 0.198835 0.000000
H188  H     H_    0.894362 0.710734 0.068962 0.000000
H189  H     H_    0.854198 0.676579 0.066488 0.000000
H190  H     H_    0.840152 0.649143 0.192152 0.000000
C172  C     C_3   0.013009 0.718323 0.372951 0.000000
N58   N     N_3   0.006240 0.719760 0.458690 0.000000
C173  C     C_3   0.985124 0.697967 0.479641 0.000000
C174  C     C_R   0.966437 0.702821 0.522258 0.000000
N59   N     N_R   0.964307 0.700170 0.608201 0.000000
C175  C     C_R   0.947006 0.706921 0.623380 0.000000
C176  C     C_R   0.935923 0.705839 0.697713 0.000000
C177  C     C_R   0.919978 0.715834 0.699192 0.000000
C178  C     C_R   0.914386 0.725297 0.625774 0.000000
C179  C     C_R   0.924309 0.724390 0.550341 0.000000
C180  C     C_R   0.939768 0.714046 0.550573 0.000000
N60   N     N_R   0.950194 0.710061 0.483979 0.000000
H191  H     H_    0.030106 0.734229 0.358862 0.000000
H192  H     H_    0.015030 0.701547 0.365767 0.000000
H193  H     H_    0.999412 0.718264 0.326666 0.000000
H194  H     H_    0.002274 0.734246 0.463213 0.000000
H195  H     H_    0.978991 0.687965 0.422986 0.000000
H196  H     H_    0.990495 0.686895 0.523443 0.000000
H197  H     H_    0.938786 0.696764 0.753045 0.000000
H198  H     H_    0.911164 0.715429 0.757034 0.000000
H199  H     H_    0.901151 0.732080 0.626649 0.000000
H200  H     H_    0.919216 0.730777 0.492826 0.000000
C181  C     C_3   0.993806 0.775772 0.139437 0.000000
N61   N     N_3   0.992478 0.752021 0.159460 0.000000
C182  C     C_3   0.967617 0.736125 0.175134 0.000000
C183  C     C_R   0.963726 0.711717 0.209201 0.000000
N62   N     N_R   0.969621 0.694498 0.175165 0.000000
C184  C     C_R   0.961410 0.676898 0.235512 0.000000
C185  C     C_R   0.967598 0.658558 0.248568 0.000000
C186  C     C_R   0.961115 0.644684 0.321762 0.000000
C187  C     C_R   0.946981 0.648573 0.378725 0.000000
C188  C     C_R   0.939638 0.666416 0.362400 0.000000
C189  C     C_R   0.949644 0.681811 0.294958 0.000000
N63   N     N_R   0.951934 0.704123 0.283335 0.000000
H201  H     H_    0.012141 0.788457 0.122264 0.000000
H202  H     H_    0.982001 0.774646 0.084285 0.000000
H203  H     H_    0.988682 0.782875 0.194445 0.000000
H204  H     H_    0.002360 0.753261 0.215134 0.000000
H205  H     H_    0.961449 0.744249 0.223276 0.000000
H206  H     H_    0.955978 0.735412 0.120671 0.000000
H207  H     H_    0.979331 0.657076 0.206552 0.000000
H208  H     H_    0.967262 0.631000 0.334936 0.000000
H209  H     H_    0.942538 0.638438 0.437679 0.000000
H210  H     H_    0.929735 0.670153 0.409033 0.000000
C190  C     C_3   0.321111 0.562487 0.103702 0.000000
N64   N     N_3   0.332929 0.583791 0.050538 0.000000
C191  C     C_3   0.357947 0.589347 0.044209 0.000000
C192  C     C_R   0.369427 0.613171 0.002863 0.000000
N65   N     N_R   0.358647 0.619133 0.934109 0.000000
C193  C     C_R   0.369801 0.643328 0.934102 0.000000
C194  C     C_R   0.364756 0.658846 0.882654 0.000000
C195  C     C_R   0.379675 0.683192 0.886030 0.000000
C196  C     C_R   0.400172 0.691154 0.936296 0.000000
C197  C     C_R   0.404865 0.675057 0.987699 0.000000
C198  C     C_R   0.387989 0.651366 0.992886 0.000000
N66   N     N_R   0.388119 0.632609 0.040486 0.000000
H211  H     H_    0.302457 0.552024 0.080619 0.000000
H212  H     H_    0.330572 0.551141 0.101703 0.000000
H213  H     H_    0.320768 0.567981 0.169069 0.000000
H214  H     H_    0.332726 0.598165 0.082487 0.000000
H215  H     H_    0.366081 0.591168 0.108124 0.000000
H216  H     H_    0.360156 0.575723 0.006461 0.000000
H217  H     H_    0.349160 0.652317 0.843193 0.000000
H218  H     H_    0.376021 0.695848 0.846263 0.000000
H219  H     H_    0.412876 0.709980 0.933718 0.000000
H220  H     H_    0.422317 0.680880 0.015046 0.000000
C199  C     C_3   0.418868 0.641660 0.861605 0.000000
N67   N     N_3   0.402809 0.643917 0.797945 0.000000
C200  C     C_3   0.392217 0.621070 0.756326 0.000000
C201  C     C_R   0.374396 0.621177 0.695237 0.000000
N68   N     N_R   0.350891 0.612163 0.718891 0.000000
C202  C     C_R   0.339335 0.608903 0.643592 0.000000
C203  C     C_R   0.314915 0.597949 0.629039 0.000000
C204  C     C_R   0.306430 0.593977 0.546731 0.000000
C205  C     C_R   0.322247 0.598836 0.481871 0.000000
C206  C     C_R   0.346588 0.608133 0.498803 0.000000
C207  C     C_R   0.355135 0.615068 0.579077 0.000000
N69   N     N_R   0.378093 0.623802 0.608798 0.000000
H221  H     H_    0.430823 0.659531 0.887191 0.000000
H222  H     H_    0.408367 0.629053 0.911222 0.000000
H223  H     H_    0.429126 0.632963 0.835761 0.000000
H224  H     H_    0.412249 0.657580 0.754457 0.000000
H225  H     H_    0.405244 0.617090 0.723260 0.000000
H226  H     H_    0.382987 0.606564 0.803615 0.000000
H227  H     H_    0.302578 0.591482 0.680216 0.000000
H228  H     H_    0.287387 0.585479 0.533459 0.000000
H229  H     H_    0.315419 0.593783 0.418343 0.000000
H230  H     H_    0.358094 0.607992 0.450976 0.000000
C208  C     C_3   0.286026 0.592721 0.125105 0.000000
N70   N     N_3   0.289920 0.588875 0.038035 0.000000
C209  C     C_3   0.291506 0.609543 0.987507 0.000000
C210  C     C_R   0.286147 0.604342 0.895672 0.000000
N71   N     N_R   0.305299 0.610312 0.842520 0.000000
C211  C     C_R   0.301063 0.624180 0.782326 0.000000
C212  C     C_R   0.316666 0.639792 0.723772 0.000000
C213  C     C_R   0.309425 0.653862 0.671938 0.000000
C214  C     C_R   0.287416 0.653472 0.682272 0.000000
C215  C     C_R   0.272564 0.638985 0.744334 0.000000
C216  C     C_R   0.279297 0.623724 0.792493 0.000000
N72   N     N_R   0.268318 0.609574 0.860074 0.000000
H231  H     H_    0.285548 0.577503 0.165623 0.000000
H232  H     H_    0.300796 0.609768 0.147418 0.000000
H233  H     H_    0.268759 0.593625 0.130679 0.000000
H234  H     H_    0.275663 0.573364 0.017135 0.000000
H235  H     H_    0.278871 0.616113 0.010354 0.000000
H236  H     H_    0.309876 0.624268 0.994399 0.000000
H237  H     H_    0.334672 0.642286 0.718911 0.000000
H238  H     H_    0.321474 0.666057 0.625800 0.000000
H239  H     H_    0.282306 0.665456 0.644435 0.000000
H240  H     H_    0.257100 0.641507 0.756600 0.000000
C217  C     C_3   0.778640 0.556057 0.249475 0.000000
N73   N     N_3   0.796768 0.579953 0.226542 0.000000
C218  C     C_3   0.787303 0.597517 0.234263 0.000000
C219  C     C_R   0.790376 0.605921 0.322896 0.000000
N74   N     N_R   0.771497 0.603786 0.372112 0.000000
C220  C     C_R   0.781849 0.608055 0.448982 0.000000
C221  C     C_R   0.771300 0.597816 0.523909 0.000000
C222  C     C_R   0.785174 0.605094 0.596810 0.000000
C223  C     C_R   0.809041 0.621474 0.591668 0.000000
C224  C     C_R   0.819890 0.626633 0.513995 0.000000
C225  C     C_R   0.805781 0.617124 0.444068 0.000000
N75   N     N_R   0.812080 0.614211 0.366431 0.000000
H241  H     H_    0.786475 0.543051 0.248699 0.000000
H242  H     H_    0.772255 0.555974 0.313760 0.000000
H243  H     H_    0.763732 0.550317 0.202294 0.000000
H244  H     H_    0.799908 0.579437 0.162728 0.000000
H245  H     H_    0.797378 0.613107 0.191702 0.000000
H246  H     H_    0.768149 0.589465 0.215459 0.000000
H247  H     H_    0.752841 0.584619 0.526222 0.000000
H248  H     H_    0.777321 0.598442 0.657642 0.000000
H249  H     H_    0.819733 0.627303 0.648928 0.000000
H250  H     H_    0.838771 0.633813 0.510524 0.000000
C226  C     C_3   0.744647 0.615135 0.077863 0.000000
N76   N     N_3   0.722830 0.618223 0.080683 0.000000
C227  C     C_3   0.715572 0.618999 0.166747 0.000000
C228  C     C_R   0.705489 0.594752 0.203033 0.000000
N77   N     N_R   0.691128 0.575964 0.152790 0.000000
C229  C     C_R   0.697932 0.558613 0.178389 0.000000
C230  C     C_R   0.692069 0.536551 0.143186 0.000000
C231  C     C_R   0.701385 0.521838 0.181049 0.000000
C232  C     C_R   0.716382 0.529304 0.251924 0.000000
C233  C     C_R   0.723014 0.551976 0.284083 0.000000
C234  C     C_R   0.713636 0.566276 0.245492 0.000000
N78   N     N_R   0.718320 0.589005 0.264368 0.000000
H251  H     H_    0.746588 0.610151 0.013172 0.000000
H252  H     H_    0.760232 0.632446 0.091221 0.000000
H253  H     H_    0.744322 0.600809 0.122248 0.000000
H254  H     H_    0.709356 0.605325 0.044539 0.000000
H255  H     H_    0.731265 0.630805 0.203610 0.000000
H256  H     H_    0.701832 0.625640 0.168762 0.000000
H257  H     H_    0.680337 0.530634 0.088259 0.000000
H258  H     H_    0.696777 0.504287 0.155635 0.000000
H259  H     H_    0.723292 0.517488 0.281223 0.000000
H260  H     H_    0.734917 0.558067 0.338437 0.000000
C235  C     C_3   0.686615 0.532771 0.456804 0.000000
N79   N     N_3   0.687979 0.553470 0.406614 0.000000
C236  C     C_3   0.679580 0.567804 0.453510 0.000000
C237  C     C_R   0.699524 0.585221 0.505764 0.000000
N80   N     N_R   0.721661 0.600528 0.473111 0.000000
C238  C     C_R   0.732827 0.614161 0.539799 0.000000
C239  C     C_R   0.754963 0.633786 0.541875 0.000000
C240  C     C_R   0.765029 0.642633 0.619357 0.000000
C241  C     C_R   0.752485 0.632495 0.691680 0.000000
C242  C     C_R   0.728921 0.615266 0.686690 0.000000
C243  C     C_R   0.719114 0.606414 0.609300 0.000000
N81   N     N_R   0.697027 0.588931 0.589823 0.000000
H261  H     H_    0.692786 0.521943 0.419009 0.000000
H262  H     H_    0.698518 0.538883 0.513343 0.000000
H263  H     H_    0.667818 0.521102 0.473479 0.000000
H264  H     H_    0.676037 0.546898 0.356060 0.000000
H265  H     H_    0.673349 0.577785 0.407314 0.000000
H266  H     H_    0.664395 0.556197 0.493307 0.000000
H267  H     H_    0.765419 0.640770 0.486287 0.000000
H268  H     H_    0.783227 0.656488 0.623766 0.000000
H269  H     H_    0.760944 0.638733 0.752515 0.000000
H270  H     H_    0.719199 0.608633 0.743123 0.000000
C244  C     C_3   0.586761 0.508323 0.297142 0.000000
N82   N     N_3   0.582829 0.487282 0.248736 0.000000
C245  C     C_3   0.558002 0.469329 0.251573 0.000000
C246  C     C_R   0.555385 0.447719 0.208283 0.000000
N83   N     N_R   0.564463 0.451210 0.129637 0.000000
C247  C     C_R   0.567821 0.431413 0.119900 0.000000
C248  C     C_R   0.579924 0.427002 0.056668 0.000000
C249  C     C_R   0.578786 0.404253 0.052741 0.000000
C250  C     C_R   0.564548 0.386307 0.108193 0.000000
C251  C     C_R   0.553277 0.391527 0.172445 0.000000
C252  C     C_R   0.557157 0.415025 0.183015 0.000000
N84   N     N_R   0.549387 0.424817 0.243806 0.000000
H271  H     H_    0.596548 0.525000 0.259058 0.000000
H272  H     H_    0.569555 0.507328 0.317009 0.000000
H273  H     H_    0.598401 0.509544 0.352601 0.000000
H274  H     H_    0.593078 0.479508 0.277652 0.000000
H275  H     H_    0.552737 0.464454 0.315277 0.000000
H276  H     H_    0.546631 0.476281 0.218671 0.000000
H277  H     H_    0.589542 0.440630 0.009658 0.000000
H278  H     H_    0.587590 0.400045 0.002839 0.000000
H279  H     H_    0.561750 0.367928 0.100075 0.000000
H280  H     H_    0.539985 0.376835 0.205368 0.000000
C253  C     C_3   0.614432 0.466056 0.448963 0.000000
N85   N     N_3   0.599278 0.475664 0.484683 0.000000
C254  C     C_3   0.575764 0.464720 0.443941 0.000000
C255  C     C_R   0.559097 0.445958 0.499249 0.000000
N86   N     N_R   0.551440 0.422490 0.472858 0.000000
C256  C     C_R   0.558610 0.412625 0.539519 0.000000
C257  C     C_R   0.558177 0.390227 0.548180 0.000000
C258  C     C_R   0.571516 0.386069 0.612891 0.000000
C259  C     C_R   0.582746 0.403059 0.673609 0.000000
C260  C     C_R   0.580772 0.424406 0.669995 0.000000
C261  C     C_R   0.568559 0.428913 0.602007 0.000000
N87   N     N_R   0.566024 0.449176 0.582797 0.000000
H281  H     H_    0.632361 0.474336 0.479994 0.000000
H282  H     H_    0.606657 0.446251 0.459765 0.000000
H283  H     H_    0.616812 0.470620 0.380737 0.000000
H284  H     H_    0.606955 0.494158 0.471259 0.000000
H285  H     H_    0.569296 0.478493 0.432309 0.000000
H286  H     H_    0.576955 0.455335 0.387863 0.000000
H287  H     H_    0.547942 0.376034 0.506709 0.000000
H288  H     H_    0.573247 0.369426 0.616651 0.000000
H289  H     H_    0.592634 0.399383 0.725073 0.000000
H290  H     H_    0.588664 0.436779 0.720743 0.000000
C262  C     C_3   0.423636 0.266066 0.257143 0.000000
N88   N     N_3   0.407991 0.240405 0.259454 0.000000
C263  C     C_3   0.396926 0.234727 0.341052 0.000000
C264  C     C_R   0.384499 0.208263 0.354600 0.000000
N89   N     N_R   0.360104 0.195388 0.363286 0.000000
C265  C     C_R   0.357457 0.172872 0.380091 0.000000
C266  C     C_R   0.336776 0.152823 0.397941 0.000000
C267  C     C_R   0.338276 0.131487 0.417923 0.000000
C268  C     C_R   0.360276 0.130772 0.420378 0.000000
C269  C     C_R   0.381003 0.151366 0.402878 0.000000
C270  C     C_R   0.378967 0.172232 0.381604 0.000000
N90   N     N_R   0.396646 0.194469 0.366015 0.000000
H291  H     H_    0.426266 0.272755 0.190729 0.000000
H292  H     H_    0.415573 0.275816 0.291468 0.000000
H293  H     H_    0.441017 0.269471 0.288012 0.000000
H294  H     H_    0.418502 0.231246 0.255833 0.000000
H295  H     H_    0.410564 0.242837 0.391647 0.000000
H296  H     H_    0.383803 0.241965 0.342455 0.000000
H297  H     H_    0.320031 0.153848 0.397594 0.000000
H298  H     H_    0.322270 0.115298 0.432306 0.000000
H299  H     H_    0.361226 0.114024 0.436277 0.000000
H300  H     H_    0.398061 0.150749 0.403972 0.000000
C271  C     C_3   0.282091 0.114321 0.238544 0.000000
N91   N     N_3   0.287221 0.136461 0.190562 0.000000
C272  C     C_3   0.281681 0.152669 0.239960 0.000000
C273  C     C_R   0.293964 0.177012 0.201772 0.000000
N92   N     N_R   0.316584 0.191534 0.232099 0.000000
C274  C     C_R   0.328836 0.199575 0.160572 0.000000
C275  C     C_R   0.353049 0.208622 0.151975 0.000000
C276  C     C_R   0.362037 0.212454 0.071605 0.000000
C277  C     C_R   0.346760 0.207696 0.001836 0.000000
C278  C     C_R   0.322308 0.197802 0.011899 0.000000
C279  C     C_R   0.313691 0.193166 0.092247 0.000000
N93   N     N_R   0.290962 0.179953 0.116804 0.000000
H301  H     H_    0.282656 0.100684 0.196399 0.000000
H302  H     H_    0.296016 0.117698 0.288465 0.000000
H303  H     H_    0.264072 0.107325 0.265702 0.000000
H304  H     H_    0.275870 0.132015 0.137831 0.000000
H305  H     H_    0.262204 0.146559 0.242947 0.000000
H306  H     H_    0.289786 0.154012 0.302961 0.000000
H307  H     H_    0.364735 0.211972 0.205999 0.000000
H308  H     H_    0.381082 0.219435 0.063178 0.000000
H309  H     H_    0.353976 0.211021 0.939260 0.000000
H310  H     H_    0.310648 0.193047 0.957674 0.000000
C280  C     C_3   0.368165 0.265114 0.120146 0.000000
N94   N     N_3   0.361501 0.255520 0.205425 0.000000
C281  C     C_3   0.345270 0.264466 0.234138 0.000000
C282  C     C_R   0.336642 0.255774 0.320717 0.000000
N95   N     N_R   0.341616 0.238269 0.361521 0.000000
C283  C     C_R   0.352315 0.248778 0.434145 0.000000
C284  C     C_R   0.365179 0.241441 0.490806 0.000000
C285  C     C_R   0.379013 0.257386 0.551913 0.000000
C286  C     C_R   0.379832 0.280168 0.554588 0.000000
C287  C     C_R   0.366400 0.286902 0.497459 0.000000
C288  C     C_R   0.352158 0.270500 0.439372 0.000000
N96   N     N_R   0.340491 0.274418 0.371950 0.000000
H311  H     H_    0.383203 0.261616 0.100374 0.000000
H312  H     H_    0.352690 0.256502 0.075920 0.000000
H313  H     H_    0.374345 0.284858 0.118136 0.000000
H314  H     H_    0.376951 0.263984 0.242189 0.000000
H315  H     H_    0.355927 0.283989 0.241277 0.000000
H316  H     H_    0.331349 0.262219 0.187440 0.000000
H317  H     H_    0.365992 0.224546 0.484752 0.000000
H318  H     H_    0.389825 0.252368 0.595893 0.000000
H319  H     H_    0.391474 0.292933 0.600110 0.000000
H320  H     H_    0.368831 0.305127 0.494189 0.000000
C289  C     C_3   0.338886 0.194591 0.734913 0.000000
N97   N     N_3   0.318132 0.187321 0.678355 0.000000
C290  C     C_3   0.324092 0.183278 0.594521 0.000000
C291  C     C_R   0.303870 0.179689 0.535206 0.000000
N98   N     N_R   0.280715 0.171370 0.563057 0.000000
C292  C     C_R   0.268796 0.171767 0.492236 0.000000
C293  C     C_R   0.244625 0.164009 0.482723 0.000000
C294  C     C_R   0.235683 0.166626 0.405561 0.000000
C295  C     C_R   0.251352 0.179646 0.343914 0.000000
C296  C     C_R   0.275776 0.188309 0.356750 0.000000
C297  C     C_R   0.283709 0.181472 0.427955 0.000000
N99   N     N_R   0.306375 0.186433 0.449917 0.000000
H321  H     H_    0.334342 0.199119 0.796584 0.000000
H322  H     H_    0.343785 0.179492 0.745178 0.000000
H323  H     H_    0.354053 0.210826 0.709108 0.000000
H324  H     H_    0.313940 0.201769 0.673475 0.000000
H325  H     H_    0.340084 0.199062 0.573242 0.000000
H326  H     H_    0.327110 0.166853 0.595681 0.000000
H327  H     H_    0.232517 0.155805 0.532111 0.000000
H328  H     H_    0.216733 0.161041 0.396988 0.000000
H329  H     H_    0.244153 0.185152 0.290303 0.000000
H330  H     H_    0.288675 0.200879 0.315301 0.000000
C298  C     C_3   0.759989 0.130825 0.293319 0.000000
N100  N     N_3   0.771851 0.156877 0.282554 0.000000
C299  C     C_3   0.770929 0.167366 0.361797 0.000000
C300  C     C_R   0.788161 0.193345 0.363277 0.000000
N101  N     N_R   0.812372 0.203267 0.345406 0.000000
C301  C     C_R   0.816931 0.226576 0.331654 0.000000
C302  C     C_R   0.833157 0.242254 0.276753 0.000000
C303  C     C_R   0.834885 0.265238 0.264911 0.000000
C304  C     C_R   0.819320 0.271570 0.304670 0.000000
C305  C     C_R   0.800609 0.254251 0.348346 0.000000
C306  C     C_R   0.798951 0.231214 0.356919 0.000000
N102  N     N_R   0.779624 0.210222 0.372656 0.000000
H331  H     H_    0.771778 0.124937 0.330561 0.000000
H332  H     H_    0.743264 0.125088 0.328081 0.000000
H333  H     H_    0.756065 0.122348 0.230673 0.000000
H334  H     H_    0.761875 0.161716 0.237993 0.000000
H335  H     H_    0.752839 0.166216 0.367927 0.000000
H336  H     H_    0.773992 0.157500 0.415953 0.000000
H337  H     H_    0.843106 0.235817 0.240244 0.000000
H338  H     H_    0.847913 0.278224 0.223387 0.000000
H339  H     H_    0.820622 0.289555 0.295926 0.000000
H340  H     H_    0.788217 0.259572 0.372983 0.000000
C307  C     C_3   0.906624 0.247680 0.565877 0.000000
N103  N     N_3   0.890612 0.222069 0.566227 0.000000
C308  C     C_3   0.894113 0.209662 0.495681 0.000000
C309  C     C_R   0.872955 0.186114 0.491961 0.000000
N104  N     N_R   0.868228 0.169591 0.558213 0.000000
C310  C     C_R   0.844417 0.155992 0.546659 0.000000
C311  C     C_R   0.828183 0.143319 0.606839 0.000000
C312  C     C_R   0.804107 0.133072 0.585241 0.000000
C313  C     C_R   0.796638 0.135779 0.504308 0.000000
C314  C     C_R   0.813018 0.151287 0.447759 0.000000
C315  C     C_R   0.836323 0.162274 0.473661 0.000000
N105  N     N_R   0.853361 0.181952 0.438557 0.000000
H341  H     H_    0.896666 0.256990 0.588300 0.000000
H342  H     H_    0.920494 0.252783 0.614723 0.000000
H343  H     H_    0.915595 0.253877 0.505491 0.000000
H344  H     H_    0.873026 0.219764 0.564193 0.000000
H345  H     H_    0.895556 0.219634 0.436032 0.000000
H346  H     H_    0.910289 0.206740 0.506418 0.000000
H347  H     H_    0.833655 0.144293 0.671419 0.000000
H348  H     H_    0.790886 0.123560 0.632150 0.000000
H349  H     H_    0.777771 0.127211 0.488444 0.000000
H350  H     H_    0.808010 0.155414 0.385852 0.000000
C316  C     C_3   0.864272 0.139786 0.294991 0.000000
N106  N     N_3   0.876265 0.164521 0.323370 0.000000
C317  C     C_3   0.884976 0.181071 0.251493 0.000000
C318  C     C_R   0.864987 0.179868 0.197347 0.000000
N107  N     N_R   0.861870 0.172357 0.115447 0.000000
C319  C     C_R   0.839709 0.170618 0.095894 0.000000
C320  C     C_R   0.825368 0.161413 0.025145 0.000000
C321  C     C_R   0.803811 0.162772 0.017710 0.000000
C322  C     C_R   0.796843 0.173319 0.079829 0.000000
C323  C     C_R   0.810924 0.181713 0.151652 0.000000
C324  C     C_R   0.831646 0.179051 0.159961 0.000000
N108  N     N_R   0.847105 0.184800 0.226143 0.000000
H351  H     H_    0.860708 0.127292 0.350242 0.000000
H352  H     H_    0.846776 0.136247 0.264867 0.000000
H353  H     H_    0.875733 0.136210 0.251355 0.000000
H354  H     H_    0.891247 0.166252 0.359290 0.000000
H355  H     H_    0.894291 0.199641 0.274173 0.000000
H356  H     H_    0.896899 0.176486 0.214289 0.000000
H357  H     H_    0.830549 0.153720 0.974658 0.000000
H358  H     H_    0.792552 0.156009 0.962072 0.000000
H359  H     H_    0.780228 0.174798 0.072321 0.000000
H360  H     H_    0.805741 0.190419 0.198367 0.000000
C325  C     C_3   0.490278 0.236418 0.931498 0.000000
N109  N     N_3   0.487810 0.214702 0.977208 0.000000
C326  C     C_3   0.500646 0.220984 0.057165 0.000000
C327  C     C_R   0.514938 0.207438 0.074739 0.000000
N110  N     N_R   0.505030 0.183229 0.101072 0.000000
C328  C     C_R   0.524678 0.182031 0.138982 0.000000
C329  C     C_R   0.526429 0.163608 0.186953 0.000000
C330  C     C_R   0.546494 0.168624 0.237352 0.000000
C331  C     C_R   0.564457 0.191809 0.241722 0.000000
C332  C     C_R   0.563781 0.209795 0.189050 0.000000
C333  C     C_R   0.544211 0.204178 0.135813 0.000000
N111  N     N_R   0.539343 0.220118 0.089332 0.000000
H361  H     H_    0.476607 0.231293 0.880454 0.000000
H362  H     H_    0.486856 0.248421 0.973249 0.000000
H363  H     H_    0.508318 0.245798 0.904687 0.000000
H364  H     H_    0.493644 0.204708 0.941228 0.000000
H365  H     H_    0.513116 0.240263 0.056456 0.000000
H366  H     H_    0.487912 0.217184 0.108460 0.000000
H367  H     H_    0.512047 0.146202 0.195546 0.000000
H368  H     H_    0.547243 0.154664 0.278864 0.000000
H369  H     H_    0.578605 0.195697 0.288091 0.000000
H370  H     H_    0.577570 0.228057 0.193577 0.000000
C334  C     C_3   0.588242 0.183920 0.041504 0.000000
N112  N     N_3   0.607684 0.207423 0.059565 0.000000
C335  C     C_3   0.600755 0.225323 0.024166 0.000000
C336  C     C_R   0.613889 0.249805 0.060463 0.000000
N113  N     N_R   0.638654 0.263960 0.058599 0.000000
C337  C     C_R   0.640376 0.285951 0.073841 0.000000
C338  C     C_R   0.660458 0.307520 0.069244 0.000000
C339  C     C_R   0.658388 0.328554 0.081399 0.000000
C340  C     C_R   0.636312 0.327554 0.097891 0.000000
C341  C     C_R   0.616258 0.305558 0.100921 0.000000
C342  C     C_R   0.618620 0.285030 0.087641 0.000000
N114  N     N_R   0.601092 0.262454 0.079900 0.000000
H371  H     H_    0.595392 0.170502 0.040981 0.000000
H372  H     H_    0.574524 0.178484 0.090091 0.000000
H373  H     H_    0.580013 0.184197 0.978635 0.000000
H374  H     H_    0.621755 0.208711 0.023102 0.000000
H375  H     H_    0.603052 0.226267 0.956060 0.000000
H376  H     H_    0.581850 0.219596 0.036094 0.000000
H377  H     H_    0.677122 0.308126 0.052988 0.000000
H378  H     H_    0.673981 0.345788 0.077724 0.000000
H379  H     H_    0.634752 0.343991 0.108703 0.000000
H380  H     H_    0.599375 0.304413 0.117401 0.000000
C343  C     C_3   0.535526 0.191826 0.919212 0.000000
N115  N     N_3   0.535628 0.213252 0.877316 0.000000
C344  C     C_3   0.559840 0.230457 0.861071 0.000000
C345  C     C_R   0.562138 0.255179 0.868038 0.000000
N116  N     N_R   0.568137 0.270055 0.798879 0.000000
C346  C     C_R   0.577868 0.292248 0.831022 0.000000
C347  C     C_R   0.590578 0.313924 0.788841 0.000000
C348  C     C_R   0.598815 0.334832 0.834122 0.000000
C349  C     C_R   0.594286 0.333583 0.919387 0.000000
C350  C     C_R   0.582676 0.311477 0.960838 0.000000
C351  C     C_R   0.575503 0.290682 0.915750 0.000000
N117  N     N_R   0.565577 0.267137 0.942416 0.000000
H381  H     H_    0.539361 0.180706 0.875195 0.000000
H382  H     H_    0.548538 0.196332 0.971730 0.000000
H383  H     H_    0.517834 0.181174 0.946261 0.000000
H384  H     H_    0.530406 0.221965 0.920689 0.000000
H385  H     H_    0.572232 0.228345 0.906176 0.000000
H386  H     H_    0.564928 0.228189 0.797212 0.000000
H387  H     H_    0.593666 0.314624 0.722001 0.000000
H388  H     H_    0.608321 0.352172 0.802728 0.000000
H389  H     H_    0.599985 0.350031 0.954040 0.000000
H390  H     H_    0.578488 0.311236 0.025473 0.000000
C352  C     C_3   0.922108 0.412862 0.949792 0.000000
N118  N     N_3   0.938234 0.436476 0.981657 0.000000
C353  C     C_3   0.923871 0.445250 0.026519 0.000000
C354  C     C_R   0.938316 0.470103 0.061651 0.000000
N119  N     N_R   0.962829 0.480436 0.078345 0.000000
C355  C     C_R   0.966749 0.501475 0.112660 0.000000
C356  C     C_R   0.986876 0.517587 0.154284 0.000000
C357  C     C_R   0.987722 0.539025 0.179094 0.000000
C358  C     C_R   0.969385 0.544756 0.155095 0.000000
C359  C     C_R   0.949410 0.528177 0.112736 0.000000
C360  C     C_R   0.946932 0.505150 0.105840 0.000000
N120  N     N_R   0.927777 0.485038 0.079743 0.000000
H391  H     H_    0.932222 0.406188 0.910771 0.000000
H392  H     H_    0.913912 0.399666 0.001900 0.000000
H393  H     H_    0.907460 0.414219 0.912391 0.000000
H394  H     H_    0.945380 0.447547 0.929317 0.000000
H395  H     H_    0.909051 0.445307 0.986399 0.000000
H396  H     H_    0.915002 0.431861 0.075716 0.000000
H397  H     H_    0.001926 0.514287 0.167090 0.000000
H398  H     H_    0.003385 0.551965 0.211952 0.000000
H399  H     H_    0.970867 0.562283 0.169696 0.000000
H400  H     H_    0.936740 0.533600 0.083735 0.000000
C361  C     C_3   0.936995 0.481631 0.863102 0.000000
N121  N     N_3   0.929590 0.499695 0.836385 0.000000
C362  C     C_3   0.912415 0.499731 0.893842 0.000000
C363  C     C_R   0.890129 0.477068 0.889591 0.000000
N122  N     N_R   0.876433 0.468895 0.816620 0.000000
C364  C     C_R   0.854125 0.457506 0.848166 0.000000
C365  C     C_R   0.832512 0.451616 0.806765 0.000000
C366  C     C_R   0.811829 0.440761 0.852895 0.000000
C367  C     C_R   0.813023 0.437382 0.939636 0.000000
C368  C     C_R   0.834959 0.445828 0.981579 0.000000
C369  C     C_R   0.855163 0.456105 0.934227 0.000000
N123  N     N_R   0.877796 0.468536 0.962068 0.000000
H401  H     H_    0.946696 0.478931 0.812874 0.000000
H402  H     H_    0.948943 0.488092 0.918359 0.000000
H403  H     H_    0.921619 0.463955 0.870423 0.000000
H404  H     H_    0.919696 0.493481 0.781956 0.000000
H405  H     H_    0.920128 0.503294 0.957453 0.000000
H406  H     H_    0.907671 0.514515 0.877988 0.000000
H407  H     H_    0.831377 0.454717 0.740140 0.000000
H408  H     H_    0.794608 0.435127 0.821205 0.000000
H409  H     H_    0.796748 0.429057 0.974952 0.000000
H410  H     H_    0.836002 0.444324 0.049166 0.000000
C370  C     C_3   0.831773 0.507689 0.906739 0.000000
N124  N     N_3   0.847410 0.521435 0.975199 0.000000
C371  C     C_3   0.871005 0.522890 0.963031 0.000000
C372  C     C_R   0.884907 0.528799 0.044105 0.000000
N125  N     N_R   0.892407 0.550689 0.082582 0.000000
C373  C     C_R   0.902410 0.547125 0.155526 0.000000
C374  C     C_R   0.917423 0.564312 0.209541 0.000000
C375  C     C_R   0.930669 0.557756 0.268038 0.000000
C376  C     C_R   0.926689 0.533953 0.278110 0.000000
C377  C     C_R   0.910587 0.516601 0.225793 0.000000
C378  C     C_R   0.900015 0.524188 0.161701 0.000000
N126  N     N_R   0.890589 0.512536 0.090084 0.000000
H411  H     H_    0.814302 0.508281 0.909975 0.000000
H412  H     H_    0.840002 0.515328 0.845179 0.000000
H413  H     H_    0.828526 0.488629 0.913366 0.000000
H414  H     H_    0.840785 0.511548 0.030822 0.000000
H415  H     H_    0.869043 0.505354 0.942213 0.000000
H416  H     H_    0.880443 0.536753 0.914138 0.000000
H417  H     H_    0.921103 0.582833 0.199798 0.000000
H418  H     H_    0.945075 0.571376 0.303683 0.000000
H419  H     H_    0.937763 0.529292 0.321778 0.000000
H420  H     H_    0.909153 0.498509 0.228159 0.000000
C379  C     C_3   0.574710 0.567175 0.994262 0.000000
N127  N     N_3   0.594867 0.563678 0.029984 0.000000
C380  C     C_3   0.594781 0.542758 0.991962 0.000000
C381  C     C_R   0.609372 0.532698 0.042080 0.000000
N128  N     N_R   0.632198 0.545676 0.078405 0.000000
C382  C     C_R   0.634192 0.528313 0.127315 0.000000
C383  C     C_R   0.646015 0.530868 0.203600 0.000000
C384  C     C_R   0.646033 0.510311 0.242264 0.000000
C385  C     C_R   0.634395 0.488304 0.203697 0.000000
C386  C     C_R   0.618685 0.486013 0.137486 0.000000
C387  C     C_R   0.616858 0.506300 0.108473 0.000000
N129  N     N_R   0.599521 0.508126 0.060342 0.000000
H421  H     H_    0.579058 0.586629 0.993488 0.000000
H422  H     H_    0.570489 0.560550 0.929034 0.000000
H423  H     H_    0.558793 0.557216 0.033312 0.000000
H424  H     H_    0.590674 0.558527 0.092325 0.000000
H425  H     H_    0.576142 0.528537 0.991353 0.000000
H426  H     H_    0.600650 0.546999 0.926620 0.000000
H427  H     H_    0.654493 0.548128 0.233328 0.000000
H428  H     H_    0.655919 0.511276 0.300281 0.000000
H429  H     H_    0.635759 0.472562 0.230321 0.000000
H430  H     H_    0.608588 0.469006 0.110032 0.000000
C388  C     C_3   0.611376 0.590019 0.821518 0.000000
N130  N     N_3   0.634206 0.590641 0.801445 0.000000
C389  C     C_3   0.646379 0.589445 0.879466 0.000000
C390  C     C_R   0.665294 0.581260 0.869564 0.000000
N131  N     N_R   0.674522 0.577965 0.795293 0.000000
C391  C     C_R   0.690656 0.570080 0.825213 0.000000
C392  C     C_R   0.705871 0.564004 0.781271 0.000000
C393  C     C_R   0.721812 0.557605 0.825590 0.000000
C394  C     C_R   0.723046 0.558073 0.912631 0.000000
C395  C     C_R   0.708026 0.564545 0.955785 0.000000
C396  C     C_R   0.691480 0.569682 0.911114 0.000000
N132  N     N_R   0.675429 0.576321 0.941272 0.000000
H431  H     H_    0.606865 0.601127 0.774106 0.000000
H432  H     H_    0.597181 0.571371 0.819929 0.000000
H433  H     H_    0.612312 0.597321 0.884603 0.000000
H434  H     H_    0.643862 0.608192 0.779939 0.000000
H435  H     H_    0.654536 0.607318 0.907584 0.000000
H436  H     H_    0.633897 0.577247 0.925339 0.000000
H437  H     H_    0.707175 0.565842 0.714405 0.000000
H438  H     H_    0.734122 0.553260 0.791870 0.000000
H439  H     H_    0.736296 0.554105 0.946775 0.000000
H440  H     H_    0.710471 0.566891 0.022044 0.000000
C397  C     C_3   0.738973 0.668566 0.014633 0.000000
N133  N     N_3   0.716101 0.656769 0.056939 0.000000
C398  C     C_3   0.695798 0.645524 0.998899 0.000000
C399  C     C_R   0.673106 0.633434 0.045974 0.000000
N134  N     N_R   0.663218 0.609394 0.073719 0.000000
C400  C     C_R   0.643535 0.607150 0.110953 0.000000
C401  C     C_R   0.630458 0.589827 0.169073 0.000000
C402  C     C_R   0.610487 0.591005 0.198950 0.000000
C403  C     C_R   0.602055 0.606046 0.157679 0.000000
C404  C     C_R   0.616510 0.623757 0.101513 0.000000
C405  C     C_R   0.639504 0.626728 0.094344 0.000000
N135  N     N_R   0.658990 0.645031 0.059720 0.000000
H441  H     H_    0.753046 0.679487 0.060865 0.000000
H442  H     H_    0.744127 0.655173 0.989260 0.000000
H443  H     H_    0.738294 0.680259 0.961766 0.000000
H444  H     H_    0.713546 0.668373 0.095889 0.000000
H445  H     H_    0.694532 0.659427 0.955898 0.000000
H446  H     H_    0.697742 0.631483 0.963709 0.000000
H447  H     H_    0.636106 0.576593 0.193759 0.000000
H448  H     H_    0.600217 0.578463 0.247553 0.000000
H449  H     H_    0.584506 0.604376 0.171170 0.000000
H450  H     H_    0.609945 0.635077 0.067072 0.000000
C406  C     C_3   0.800703 0.864019 0.765323 0.000000
N136  N     N_3   0.823893 0.884100 0.747975 0.000000
C407  C     C_3   0.823596 0.891056 0.660196 0.000000
C408  C     C_R   0.845565 0.913238 0.635250 0.000000
N137  N     N_R   0.843739 0.932724 0.595831 0.000000
C409  C     C_R   0.862908 0.942370 0.548313 0.000000
C410  C     C_R   0.868257 0.961195 0.492006 0.000000
C411  C     C_R   0.888710 0.968737 0.447534 0.000000
C412  C     C_R   0.900519 0.954395 0.447244 0.000000
C413  C     C_R   0.893221 0.934079 0.499132 0.000000
C414  C     C_R   0.876009 0.929923 0.557938 0.000000
N138  N     N_R   0.866665 0.912241 0.618764 0.000000
H451  H     H_    0.801259 0.856351 0.829261 0.000000
H452  H     H_    0.786414 0.870102 0.762042 0.000000
H453  H     H_    0.796160 0.849785 0.718222 0.000000
H454  H     H_    0.836403 0.877402 0.754352 0.000000
H455  H     H_    0.821907 0.876051 0.620054 0.000000
H456  H     H_    0.807870 0.894444 0.649727 0.000000
H457  H     H_    0.857681 0.970866 0.485666 0.000000
H458  H     H_    0.894635 0.985326 0.411354 0.000000
H459  H     H_    0.915680 0.959130 0.407319 0.000000
H460  H     H_    0.902253 0.923120 0.495091 0.000000
C415  C     C_3   0.036301 0.246414 0.438385 0.000000
N139  N     N_3   0.044640 0.272510 0.428024 0.000000
C416  C     C_3   0.031063 0.280495 0.481031 0.000000
C417  C     C_R   0.038329 0.278797 0.568543 0.000000
N140  N     N_R   0.062306 0.287563 0.592074 0.000000
C418  C     C_R   0.060942 0.273204 0.660865 0.000000
C419  C     C_R   0.079156 0.271266 0.706967 0.000000
C420  C     C_R   0.073747 0.251956 0.762618 0.000000
C421  C     C_R   0.050309 0.235318 0.774675 0.000000
C422  C     C_R   0.032023 0.237989 0.731006 0.000000
C423  C     C_R   0.037726 0.257188 0.675854 0.000000
N141  N     N_R   0.022700 0.260779 0.620861 0.000000
H461  H     H_    0.032747 0.238065 0.375630 0.000000
H462  H     H_    0.050092 0.242491 0.471947 0.000000
H463  H     H_    0.019699 0.237770 0.474543 0.000000
H464  H     H_    0.042039 0.276654 0.365414 0.000000
H465  H     H_    0.033496 0.298655 0.463051 0.000000
H466  H     H_    0.011954 0.268868 0.475068 0.000000
H467  H     H_    0.097472 0.282927 0.695998 0.000000
H468  H     H_    0.088103 0.249124 0.793032 0.000000
H469  H     H_    0.046407 0.219801 0.816104 0.000000
H470  H     H_    0.014054 0.224182 0.734533 0.000000
C424  C     C_3   0.727767 0.132946 0.872958 0.000000
N142  N     N_3   0.704114 0.131540 0.856202 0.000000
C425  C     C_3   0.705753 0.154435 0.881376 0.000000
C426  C     C_R   0.682625 0.155717 0.871056 0.000000
N143  N     N_R   0.670792 0.155413 0.793723 0.000000
C427  C     C_R   0.649872 0.153114 0.821501 0.000000
C428  C     C_R   0.630157 0.149575 0.774120 0.000000
C429  C     C_R   0.609160 0.145018 0.813745 0.000000
C430  C     C_R   0.609302 0.146462 0.900281 0.000000
C431  C     C_R   0.630496 0.152829 0.945150 0.000000
C432  C     C_R   0.649787 0.154074 0.905628 0.000000
N144  N     N_R   0.670515 0.156731 0.941495 0.000000
H471  H     H_    0.729756 0.119083 0.836310 0.000000
H472  H     H_    0.741879 0.150903 0.854605 0.000000
H473  H     H_    0.730388 0.130573 0.941227 0.000000
H474  H     H_    0.692516 0.118336 0.897228 0.000000
H475  H     H_    0.710078 0.154870 0.949004 0.000000
H476  H     H_    0.719577 0.169669 0.846295 0.000000
H477  H     H_    0.631492 0.149841 0.708183 0.000000
H478  H     H_    0.592935 0.141429 0.777716 0.000000
H479  H     H_    0.593287 0.144139 0.931441 0.000000
H480  H     H_    0.632735 0.157431 0.008618 0.000000
C433  C     C_3   0.515787 0.533544 0.835385 0.000000
N145  N     N_3   0.501383 0.507519 0.838731 0.000000
C434  C     C_3   0.476187 0.502152 0.839502 0.000000
C435  C     C_R   0.461395 0.475617 0.845011 0.000000
N146  N     N_R   0.455174 0.461920 0.773645 0.000000
C436  C     C_R   0.445719 0.439129 0.805814 0.000000
C437  C     C_R   0.439145 0.417887 0.763810 0.000000
C438  C     C_R   0.432113 0.396506 0.809675 0.000000
C439  C     C_R   0.434574 0.396912 0.896425 0.000000
C440  C     C_R   0.443226 0.418606 0.937122 0.000000
C441  C     C_R   0.446737 0.439324 0.891699 0.000000
N147  N     N_R   0.455907 0.462209 0.919935 0.000000
H481  H     H_    0.528169 0.538401 0.782067 0.000000
H482  H     H_    0.504319 0.543065 0.827079 0.000000
H483  H     H_    0.526609 0.539306 0.894412 0.000000
H484  H     H_    0.505652 0.500906 0.895110 0.000000
H485  H     H_    0.472259 0.510585 0.892781 0.000000
H486  H     H_    0.471216 0.509015 0.780285 0.000000
H487  H     H_    0.441112 0.417520 0.697482 0.000000
H488  H     H_    0.426859 0.379740 0.777424 0.000000
H489  H     H_    0.431154 0.380464 0.931904 0.000000
H490  H     H_    0.448089 0.419226 0.002779 0.000000
C442  C     C_3   0.500882 0.127143 0.864778 0.000000
N148  N     N_3   0.492758 0.145905 0.867738 0.000000
C443  C     C_3   0.467981 0.134963 0.891496 0.000000
C444  C     C_R   0.458987 0.153512 0.898479 0.000000
N149  N     N_R   0.455337 0.161104 0.975032 0.000000
C445  C     C_R   0.443666 0.174281 0.952813 0.000000
C446  C     C_R   0.439032 0.188831 0.004852 0.000000
C447  C     C_R   0.428008 0.202435 0.973120 0.000000
C448  C     C_R   0.423460 0.202651 0.888017 0.000000
C449  C     C_R   0.430770 0.190154 0.834798 0.000000
C450  C     C_R   0.440881 0.175337 0.867398 0.000000
N150  N     N_R   0.450900 0.162382 0.829442 0.000000
H491  H     H_    0.517539 0.133967 0.828465 0.000000
H492  H     H_    0.504805 0.122293 0.929371 0.000000
H493  H     H_    0.487074 0.110796 0.834652 0.000000
H494  H     H_    0.493693 0.153655 0.807831 0.000000
H495  H     H_    0.457212 0.122307 0.842386 0.000000
H496  H     H_    0.466099 0.125237 0.952667 0.000000
H497  H     H_    0.446109 0.191499 0.067578 0.000000
H498  H     H_    0.424094 0.213819 0.013823 0.000000
H499  H     H_    0.415549 0.213973 0.861891 0.000000
H500  H     H_    0.428335 0.193484 0.770290 0.000000
C451  C     C_3   0.369861 0.099334 0.132975 0.000000
N151  N     N_3   0.389526 0.094107 0.111882 0.000000
C452  C     C_3   0.410735 0.110713 0.156795 0.000000
C453  C     C_R   0.430626 0.104322 0.145320 0.000000
N152  N     N_R   0.428883 0.081583 0.165155 0.000000
C454  C     C_R   0.452020 0.085633 0.159669 0.000000
C455  C     C_R   0.462414 0.070782 0.184326 0.000000
C456  C     C_R   0.486156 0.078178 0.165197 0.000000
C457  C     C_R   0.498590 0.099335 0.119025 0.000000
C458  C     C_R   0.488144 0.114563 0.099145 0.000000
C459  C     C_R   0.465679 0.108212 0.127629 0.000000
N153  N     N_R   0.453271 0.121308 0.122620 0.000000
H501  H     H_    0.352986 0.084775 0.110254 0.000000
H502  H     H_    0.368667 0.100041 0.202204 0.000000
H503  H     H_    0.372150 0.116474 0.101506 0.000000
H504  H     H_    0.392550 0.098511 0.048001 0.000000
H505  H     H_    0.416112 0.129041 0.130652 0.000000
H506  H     H_    0.407381 0.109936 0.225211 0.000000
H507  H     H_    0.452608 0.053994 0.218293 0.000000
H508  H     H_    0.495022 0.067279 0.185315 0.000000
H509  H     H_    0.516806 0.104380 0.101449 0.000000
H510  H     H_    0.497742 0.131422 0.065221 0.000000
C460  C     C_3   0.705439 0.112046 0.531355 0.000000
N154  N     N_3   0.685821 0.118649 0.537155 0.000000
C461  C     C_3   0.671415 0.106195 0.609458 0.000000
C462  C     C_R   0.647079 0.104568 0.597309 0.000000
N155  N     N_R   0.641459 0.123397 0.613799 0.000000
C463  C     C_R   0.617285 0.112876 0.592367 0.000000
C464  C     C_R   0.598660 0.119019 0.606522 0.000000
C465  C     C_R   0.576485 0.106222 0.568395 0.000000
C466  C     C_R   0.571999 0.086518 0.520426 0.000000
C467  C     C_R   0.588952 0.078040 0.518092 0.000000
C468  C     C_R   0.610763 0.090947 0.557510 0.000000
N156  N     N_R   0.628152 0.084029 0.567093 0.000000
H511  H     H_    0.721657 0.127876 0.509971 0.000000
H512  H     H_    0.709461 0.105593 0.593388 0.000000
H513  H     H_    0.700873 0.098191 0.483007 0.000000
H514  H     H_    0.675155 0.112595 0.482947 0.000000
H515  H     H_    0.669857 0.087806 0.616525 0.000000
H516  H     H_    0.679496 0.115991 0.667593 0.000000
H517  H     H_    0.599903 0.133571 0.643219 0.000000
H518  H     H_    0.562595 0.111989 0.575410 0.000000
H519  H     H_    0.554963 0.077244 0.488118 0.000000
H520  H     H_    0.585155 0.061702 0.485478 0.000000
C469  C     C_3   0.612713 0.108920 0.346609 0.000000
N157  N     N_3   0.608097 0.083719 0.348488 0.000000
C470  C     C_3   0.630612 0.082332 0.352763 0.000000
C471  C     C_R   0.626729 0.056910 0.351889 0.000000
N158  N     N_R   0.627953 0.044854 0.425027 0.000000
C472  C     C_R   0.632117 0.026782 0.396648 0.000000
C473  C     C_R   0.634798 0.008667 0.442464 0.000000
C474  C     C_R   0.635721 0.990115 0.399268 0.000000
C475  C     C_R   0.631477 0.988727 0.313031 0.000000
C476  C     C_R   0.628904 0.007218 0.268948 0.000000
C477  C     C_R   0.630974 0.026788 0.310973 0.000000
N159  N     N_R   0.627065 0.045353 0.279310 0.000000
H521  H     H_    0.595726 0.110278 0.333486 0.000000
H522  H     H_    0.620270 0.117018 0.408176 0.000000
H523  H     H_    0.625558 0.118942 0.296963 0.000000
H524  H     H_    0.600639 0.076792 0.290785 0.000000
H525  H     H_    0.641409 0.091725 0.298210 0.000000
H526  H     H_    0.640539 0.090705 0.410876 0.000000
H527  H     H_    0.634784 0.007735 0.510042 0.000000
H528  H     H_    0.637416 0.975476 0.433732 0.000000
H529  H     H_    0.629487 0.972820 0.280687 0.000000
H530  H     H_    0.623420 0.005932 0.204756 0.000000
C478  C     C_3   0.706291 0.763627 0.146461 0.000000
N160  N     N_3   0.686950 0.739457 0.138769 0.000000
C479  C     C_3   0.668099 0.741208 0.086619 0.000000
C480  C     C_R   0.645748 0.718286 0.090817 0.000000
N161  N     N_R   0.645440 0.695755 0.089958 0.000000
C481  C     C_R   0.623755 0.681682 0.121944 0.000000
C482  C     C_R   0.620383 0.664422 0.182513 0.000000
C483  C     C_R   0.599327 0.654015 0.226228 0.000000
C484  C     C_R   0.582837 0.663175 0.215616 0.000000
C485  C     C_R   0.589155 0.684480 0.170448 0.000000
C486  C     C_R   0.610415 0.694073 0.127553 0.000000
N162  N     N_R   0.624392 0.717831 0.114265 0.000000
H531  H     H_    0.722780 0.762357 0.168614 0.000000
H532  H     H_    0.709631 0.773290 0.084436 0.000000
H533  H     H_    0.701574 0.773793 0.192627 0.000000
H534  H     H_    0.680429 0.733602 0.198987 0.000000
H535  H     H_    0.664533 0.755807 0.110088 0.000000
H536  H     H_    0.673742 0.745383 0.020745 0.000000
H537  H     H_    0.634873 0.660226 0.197335 0.000000
H538  H     H_    0.596340 0.639636 0.272041 0.000000
H539  H     H_    0.566800 0.655803 0.252350 0.000000
H540  H     H_    0.579074 0.694490 0.179070 0.000000
C487  C     C_3   0.611827 0.656382 0.879704 0.000000
N163  N     N_3   0.631389 0.651898 0.914750 0.000000
C488  C     C_3   0.648453 0.654816 0.850076 0.000000
C489  C     C_R   0.667874 0.679731 0.849472 0.000000
N164  N     N_R   0.676250 0.693059 0.922031 0.000000
C490  C     C_R   0.691165 0.714948 0.889513 0.000000
C491  C     C_R   0.704649 0.735855 0.931468 0.000000
C492  C     C_R   0.722079 0.754844 0.887903 0.000000
C493  C     C_R   0.724797 0.753186 0.802526 0.000000
C494  C     C_R   0.709304 0.733009 0.759255 0.000000
C495  C     C_R   0.693018 0.713975 0.804562 0.000000
N165  N     N_R   0.678469 0.691999 0.775972 0.000000
H541  H     H_    0.598308 0.652337 0.928852 0.000000
H542  H     H_    0.618499 0.675569 0.860834 0.000000
H543  H     H_    0.603107 0.644438 0.825827 0.000000
H544  H     H_    0.623830 0.633766 0.932660 0.000000
H545  H     H_    0.656668 0.642683 0.866197 0.000000
H546  H     H_    0.639635 0.650179 0.787082 0.000000
H547  H     H_    0.703648 0.736676 0.998255 0.000000
H548  H     H_    0.733936 0.770908 0.920952 0.000000
H549  H     H_    0.738669 0.768066 0.769279 0.000000
H550  H     H_    0.710464 0.732005 0.692491 0.000000
C496  C     C_3   0.058588 0.445191 0.112291 0.000000
N166  N     N_3   0.063055 0.470227 0.097983 0.000000
C497  C     C_3   0.045697 0.474172 0.145545 0.000000
C498  C     C_R   0.045361 0.497314 0.118970 0.000000
N167  N     N_R   0.065505 0.519375 0.115937 0.000000
C499  C     C_R   0.057080 0.532417 0.066299 0.000000
C500  C     C_R   0.069709 0.551660 0.014964 0.000000
C501  C     C_R   0.057942 0.562823 0.969062 0.000000
C502  C     C_R   0.033352 0.553266 0.970666 0.000000
C503  C     C_R   0.020638 0.530826 0.007754 0.000000
C504  C     C_R   0.033112 0.520303 0.052212 0.000000
N168  N     N_R   0.024860 0.497696 0.083855 0.000000
H551  H     H_    0.074621 0.443002 0.095487 0.000000
H552  H     H_    0.054672 0.439834 0.179497 0.000000
H553  H     H_    0.043082 0.433321 0.072882 0.000000
H554  H     H_    0.059330 0.472129 0.034270 0.000000
H555  H     H_    0.027889 0.459395 0.132336 0.000000
H556  H     H_    0.049529 0.474252 0.213618 0.000000
H557  H     H_    0.088388 0.557931 0.011383 0.000000
H558  H     H_    0.067929 0.578938 0.931619 0.000000
H559  H     H_    0.024128 0.562265 0.936485 0.000000
H560  H     H_    0.001573 0.521972 0.000332 0.000000
C505  C     C_3   0.016409 0.532586 0.778661 0.000000
N169  N     N_3   0.016945 0.510558 0.812865 0.000000
C506  C     C_3   0.992845 0.494505 0.836163 0.000000
C507  C     C_R   0.990582 0.470067 0.859191 0.000000
N170  N     N_R   0.987719 0.454229 0.796239 0.000000
C508  C     C_R   0.986724 0.434641 0.841634 0.000000
C509  C     C_R   0.980802 0.411460 0.816901 0.000000
C510  C     C_R   0.985745 0.396332 0.872198 0.000000
C511  C     C_R   0.994890 0.403902 0.952254 0.000000
C512  C     C_R   0.995686 0.425029 0.981627 0.000000
C513  C     C_R   0.990479 0.439552 0.925511 0.000000
N171  N     N_R   0.990801 0.460896 0.940958 0.000000
H561  H     H_    0.034727 0.547447 0.776010 0.000000
H562  H     H_    0.008528 0.529592 0.714191 0.000000
H563  H     H_    0.005324 0.537976 0.817941 0.000000
H564  H     H_    0.027036 0.514463 0.868483 0.000000
H565  H     H_    0.987219 0.501784 0.888383 0.000000
H566  H     H_    0.981842 0.493152 0.779105 0.000000
H567  H     H_    0.972924 0.404755 0.756462 0.000000
H568  H     H_    0.982898 0.378693 0.852226 0.000000
H569  H     H_    0.999902 0.392468 0.993511 0.000000
H570  H     H_    0.001016 0.430255 0.045851 0.000000
C514  C     C_3   0.637994 0.714948 0.292037 0.000000
N172  N     N_3   0.626647 0.705399 0.370299 0.000000
C515  C     C_3   0.608070 0.713246 0.375808 0.000000
C516  C     C_R   0.617428 0.740285 0.366014 0.000000
N173  N     N_R   0.620835 0.753942 0.436474 0.000000
C517  C     C_R   0.626872 0.776122 0.404660 0.000000
C518  C     C_R   0.632063 0.796516 0.449428 0.000000
C519  C     C_R   0.635270 0.817308 0.404906 0.000000
C520  C     C_R   0.632065 0.816820 0.318053 0.000000
C521  C     C_R   0.626764 0.795932 0.274745 0.000000
C522  C     C_R   0.625764 0.775818 0.318690 0.000000
N174  N     N_R   0.620272 0.753272 0.289958 0.000000
H571  H     H_    0.645814 0.703509 0.268626 0.000000
H572  H     H_    0.651304 0.733856 0.293257 0.000000
H573  H     H_    0.624234 0.716179 0.254221 0.000000
H574  H     H_    0.618320 0.686618 0.366945 0.000000
H575  H     H_    0.593285 0.703570 0.330290 0.000000
H576  H     H_    0.601006 0.708086 0.440043 0.000000
H577  H     H_    0.633205 0.796322 0.517377 0.000000
H578  H     H_    0.639263 0.833681 0.438075 0.000000
H579  H     H_    0.633414 0.832830 0.283806 0.000000
H580  H     H_    0.623236 0.795761 0.208246 0.000000
C523  C     C_3   0.469426 0.086736 0.372510 0.000000
N175  N     N_3   0.445089 0.067672 0.375446 0.000000
C524  C     C_3   0.428438 0.078049 0.384026 0.000000
C525  C     C_R   0.403577 0.058457 0.388144 0.000000
N176  N     N_R   0.390236 0.046267 0.318112 0.000000
C526  C     C_R   0.369338 0.030774 0.353968 0.000000
C527  C     C_R   0.349452 0.012727 0.317378 0.000000
C528  C     C_R   0.329856 0.999236 0.366198 0.000000
C529  C     C_R   0.331734 0.000860 0.452605 0.000000
C530  C     C_R   0.352886 0.016689 0.489740 0.000000
C531  C     C_R   0.370615 0.032955 0.439340 0.000000
N177  N     N_R   0.392195 0.049937 0.464162 0.000000
H581  H     H_    0.481283 0.079410 0.348159 0.000000
H582  H     H_    0.470315 0.102032 0.331536 0.000000
H583  H     H_    0.476068 0.092998 0.436535 0.000000
H584  H     H_    0.444080 0.057749 0.430882 0.000000
H585  H     H_    0.432475 0.087966 0.443565 0.000000
H586  H     H_    0.429702 0.090541 0.330509 0.000000
H587  H     H_    0.349137 0.008391 0.252500 0.000000
H588  H     H_    0.313487 0.986126 0.337630 0.000000
H589  H     H_    0.317096 0.988838 0.491128 0.000000
H590  H     H_    0.355042 0.015494 0.556337 0.000000
C532  C     C_3   0.072341 0.676672 0.767589 0.000000
N178  N     N_3   0.065460 0.695964 0.745078 0.000000
C533  C     C_3   0.045145 0.687483 0.685488 0.000000
C534  C     C_R   0.041934 0.708168 0.644232 0.000000
N179  N     N_R   0.020057 0.709137 0.648996 0.000000
C535  C     C_R   0.026060 0.731991 0.621710 0.000000
C536  C     C_R   0.013029 0.744965 0.625564 0.000000
C537  C     C_R   0.023028 0.768929 0.600017 0.000000
C538  C     C_R   0.046156 0.779792 0.571928 0.000000
C539  C     C_R   0.059111 0.766598 0.570540 0.000000
C540  C     C_R   0.048816 0.742889 0.594964 0.000000
N180  N     N_R   0.060281 0.729015 0.608291 0.000000
H591  H     H_    0.071977 0.673802 0.836662 0.000000
H592  H     H_    0.060363 0.659484 0.737263 0.000000
H593  H     H_    0.091105 0.682217 0.750350 0.000000
H594  H     H_    0.080011 0.709629 0.715718 0.000000
H595  H     H_    0.046541 0.675673 0.637709 0.000000
H596  H     H_    0.028666 0.676597 0.720175 0.000000
H597  H     H_    0.995495 0.737017 0.647455 0.000000
H598  H     H_    0.012862 0.779242 0.603287 0.000000
H599  H     H_    0.054371 0.798749 0.554304 0.000000
H600  H     H_    0.077462 0.774944 0.557915 0.000000
C541  C     C_3   0.050301 0.683734 0.423734 0.000000
N181  N     N_3   0.058660 0.708431 0.392200 0.000000
C542  C     C_3   0.084564 0.720145 0.390653 0.000000
C543  C     C_R   0.092574 0.746020 0.376270 0.000000
N182  N     N_R   0.095680 0.756930 0.297245 0.000000
C544  C     C_R   0.100801 0.779933 0.316419 0.000000
C545  C     C_R   0.109357 0.800201 0.264513 0.000000
C546  C     C_R   0.112257 0.821898 0.295529 0.000000
C547  C     C_R   0.107303 0.823340 0.378459 0.000000
C548  C     C_R   0.101242 0.803596 0.432471 0.000000
C549  C     C_R   0.099269 0.782030 0.401215 0.000000
N183  N     N_R   0.095649 0.760968 0.442224 0.000000
H601  H     H_    0.034404 0.671864 0.386108 0.000000
H602  H     H_    0.064534 0.677644 0.420676 0.000000
H603  H     H_    0.044473 0.682519 0.489325 0.000000
H604  H     H_    0.053960 0.717446 0.436856 0.000000
H605  H     H_    0.092087 0.717721 0.451322 0.000000
H606  H     H_    0.091443 0.713629 0.340592 0.000000
H607  H     H_    0.115598 0.800089 0.202863 0.000000
H608  H     H_    0.118828 0.837892 0.255208 0.000000
H609  H     H_    0.109585 0.840400 0.402525 0.000000
H610  H     H_    0.099554 0.806461 0.497593 0.000000
C550  C     C_3   0.476312 0.562741 0.307001 0.000000
N184  N     N_3   0.451498 0.558777 0.308987 0.000000
C551  C     C_3   0.436960 0.533916 0.333917 0.000000
C552  C     C_R   0.411192 0.528089 0.327369 0.000000
N185  N     N_R   0.397239 0.524153 0.397470 0.000000
C553  C     C_R   0.374975 0.513366 0.362407 0.000000
C554  C     C_R   0.353525 0.507765 0.398109 0.000000
C555  C     C_R   0.332845 0.493264 0.353956 0.000000
C556  C     C_R   0.334213 0.485107 0.275059 0.000000
C557  C     C_R   0.355853 0.494282 0.234865 0.000000
C558  C     C_R   0.375733 0.509644 0.278907 0.000000
N186  N     N_R   0.398234 0.520570 0.252465 0.000000
H611  H     H_    0.482757 0.560401 0.370901 0.000000
H612  H     H_    0.478127 0.549736 0.265038 0.000000
H613  H     H_    0.487542 0.581365 0.283477 0.000000
H614  H     H_    0.446084 0.560734 0.247528 0.000000
H615  H     H_    0.439994 0.521822 0.291237 0.000000
H616  H     H_    0.441555 0.530650 0.399303 0.000000
H617  H     H_    0.352812 0.513925 0.459733 0.000000
H618  H     H_    0.315646 0.487437 0.382572 0.000000
H619  H     H_    0.318165 0.472348 0.243603 0.000000
H620  H     H_    0.357280 0.488515 0.172892 0.000000
C559  C     C_3   0.391603 0.453542 0.447701 0.000000
N187  N     N_3   0.414138 0.467839 0.490765 0.000000
C560  C     C_3   0.409611 0.479087 0.562078 0.000000
C561  C     C_R   0.431764 0.499930 0.586407 0.000000
N188  N     N_R   0.453033 0.499522 0.614312 0.000000
C562  C     C_R   0.468664 0.522992 0.604832 0.000000
C563  C     C_R   0.492563 0.533928 0.626462 0.000000
C564  C     C_R   0.505781 0.557724 0.600976 0.000000
C565  C     C_R   0.495181 0.569696 0.552332 0.000000
C566  C     C_R   0.470855 0.558637 0.534432 0.000000
C567  C     C_R   0.457682 0.535877 0.567703 0.000000
N189  N     N_R   0.433836 0.522211 0.561762 0.000000
H621  H     H_    0.393846 0.440303 0.409093 0.000000
H622  H     H_    0.377416 0.443877 0.494036 0.000000
H623  H     H_    0.386793 0.465330 0.404521 0.000000
H624  H     H_    0.424056 0.481764 0.448812 0.000000
H625  H     H_    0.397579 0.486825 0.540408 0.000000
H626  H     H_    0.401343 0.466706 0.615303 0.000000
H627  H     H_    0.500931 0.524280 0.661155 0.000000
H628  H     H_    0.524635 0.566827 0.616723 0.000000
H629  H     H_    0.505910 0.587927 0.529606 0.000000
H630  H     H_    0.462513 0.567875 0.496607 0.000000
C568  C     C_3   0.711277 0.944733 0.646369 0.000000
N190  N     N_3   0.721439 0.961239 0.715845 0.000000
C569  C     C_3   0.744517 0.962296 0.742370 0.000000
C570  C     C_R   0.747283 0.961836 0.835895 0.000000
N191  N     N_R   0.745522 0.978615 0.885669 0.000000
C571  C     C_R   0.737204 0.966153 0.958359 0.000000
C572  C     C_R   0.728730 0.972780 0.026418 0.000000
C573  C     C_R   0.717015 0.955353 0.087623 0.000000
C574  C     C_R   0.715433 0.932328 0.082741 0.000000
C575  C     C_R   0.725005 0.926370 0.015322 0.000000
C576  C     C_R   0.735708 0.943730 0.953737 0.000000
N192  N     N_R   0.744153 0.941165 0.879867 0.000000
H631  H     H_    0.706977 0.925980 0.667332 0.000000
H632  H     H_    0.694589 0.945424 0.622992 0.000000
H633  H     H_    0.724078 0.950308 0.594056 0.000000
H634  H     H_    0.709601 0.956694 0.765221 0.000000
H635  H     H_    0.746330 0.946821 0.718283 0.000000
H636  H     H_    0.758071 0.979002 0.716518 0.000000
H637  H     H_    0.728795 0.990100 0.027916 0.000000
H638  H     H_    0.708876 0.959665 0.139385 0.000000
H639  H     H_    0.706144 0.918826 0.130661 0.000000
H640  H     H_    0.722353 0.908110 0.008706 0.000000
C577  C     C_3   0.860700 0.070114 0.785011 0.000000
N193  N     N_3   0.840391 0.055635 0.730633 0.000000
C578  C     C_3   0.818085 0.046386 0.776000 0.000000
C579  C     C_R   0.795738 0.037040 0.721778 0.000000
N194  N     N_R   0.796500 0.037768 0.634837 0.000000
C580  C     C_R   0.773381 0.027810 0.611200 0.000000
C581  C     C_R   0.764132 0.023172 0.530409 0.000000
C582  C     C_R   0.739627 0.011124 0.519697 0.000000
C583  C     C_R   0.725125 0.004230 0.589314 0.000000
C584  C     C_R   0.734861 0.009802 0.670189 0.000000
C585  C     C_R   0.759290 0.021350 0.680364 0.000000
N195  N     N_R   0.772668 0.026258 0.753240 0.000000
H641  H     H_    0.873649 0.085713 0.748739 0.000000
H642  H     H_    0.855376 0.076650 0.840800 0.000000
H643  H     H_    0.870309 0.059267 0.804195 0.000000
H644  H     H_    0.843810 0.041055 0.720089 0.000000
H645  H     H_    0.817832 0.030710 0.809152 0.000000
H646  H     H_    0.817357 0.060618 0.813858 0.000000
H647  H     H_    0.775562 0.028143 0.476831 0.000000
H648  H     H_    0.731755 0.006811 0.457015 0.000000
H649  H     H_    0.705957 0.994520 0.580394 0.000000
H650  H     H_    0.723265 0.003798 0.722755 0.000000
C586  C     C_3   0.660530 0.947133 0.991266 0.000000
N196  N     N_3   0.673741 0.972750 0.971671 0.000000
C587  C     C_3   0.687486 0.976196 0.895909 0.000000
C588  C     C_R   0.699520 0.002328 0.874247 0.000000
N197  N     N_R   0.687249 0.016027 0.875683 0.000000
C589  C     C_R   0.705078 0.038762 0.874239 0.000000
C590  C     C_R   0.704891 0.058949 0.906304 0.000000
C591  C     C_R   0.726386 0.079024 0.916737 0.000000
C592  C     C_R   0.747401 0.079813 0.888401 0.000000
C593  C     C_R   0.747712 0.058852 0.863538 0.000000
C594  C     C_R   0.726378 0.038523 0.861462 0.000000
N198  N     N_R   0.723900 0.015919 0.865564 0.000000
H651  H     H_    0.651448 0.944760 0.052071 0.000000
H652  H     H_    0.646822 0.938315 0.941336 0.000000
H653  H     H_    0.672866 0.938599 0.997143 0.000000
H654  H     H_    0.685762 0.980537 0.021621 0.000000
H655  H     H_    0.700136 0.968556 0.903933 0.000000
H656  H     H_    0.675872 0.966427 0.844085 0.000000
H657  H     H_    0.689678 0.058594 0.935445 0.000000
H658  H     H_    0.726917 0.093743 0.951813 0.000000
H659  H     H_    0.763864 0.096115 0.894590 0.000000
H660  H     H_    0.764389 0.058052 0.853746 0.000000
C595  C     C_3   0.847540 0.027307 0.954676 0.000000
N199  N     N_3   0.831775 0.030728 0.012524 0.000000
C596  C     C_3   0.815207 0.037087 0.964833 0.000000
C597  C     C_R   0.796608 0.037294 0.016587 0.000000
N200  N     N_R   0.800637 0.044040 0.099297 0.000000
C598  C     C_R   0.779052 0.041840 0.120953 0.000000
C599  C     C_R   0.771159 0.042533 0.200067 0.000000
C600  C     C_R   0.750053 0.044194 0.206764 0.000000
C601  C     C_R   0.736208 0.042296 0.135408 0.000000
C602  C     C_R   0.741380 0.034927 0.061043 0.000000
C603  C     C_R   0.763472 0.035236 0.053436 0.000000
N201  N     N_R   0.773603 0.030892 0.985482 0.000000
H661  H     H_    0.857195 0.018063 0.988060 0.000000
H662  H     H_    0.837484 0.016300 0.900741 0.000000
H663  H     H_    0.860822 0.045018 0.931902 0.000000
H664  H     H_    0.842349 0.046307 0.044330 0.000000
H665  H     H_    0.825336 0.055466 0.939236 0.000000
H666  H     H_    0.804657 0.022665 0.922049 0.000000
H667  H     H_    0.780584 0.041202 0.256208 0.000000
H668  H     H_    0.744331 0.046863 0.267381 0.000000
H669  H     H_    0.720548 0.045269 0.139089 0.000000
H670  H     H_    0.728079 0.029561 0.012656 0.000000
C604  C     C_3   0.410477 0.326067 0.213918 0.000000
N202  N     N_3   0.417572 0.338359 0.293608 0.000000
C605  C     C_3   0.397824 0.328295 0.352035 0.000000
C606  C     C_R   0.384576 0.343401 0.353457 0.000000
N203  N     N_R   0.395839 0.368403 0.351163 0.000000
C607  C     C_R   0.377081 0.373751 0.339755 0.000000
C608  C     C_R   0.377773 0.396185 0.329043 0.000000
C609  C     C_R   0.356270 0.397660 0.320638 0.000000
C610  C     C_R   0.334760 0.376915 0.322782 0.000000
C611  C     C_R   0.334455 0.354372 0.332177 0.000000
C612  C     C_R   0.356013 0.353452 0.340448 0.000000
N204  N     N_R   0.359754 0.333683 0.349995 0.000000
H671  H     H_    0.394574 0.327534 0.187478 0.000000
H672  H     H_    0.425223 0.334783 0.168871 0.000000
H673  H     H_    0.406850 0.306916 0.223040 0.000000
H674  H     H_    0.422606 0.356585 0.281094 0.000000
H675  H     H_    0.385394 0.309788 0.333860 0.000000
H676  H     H_    0.405044 0.327301 0.415970 0.000000
H677  H     H_    0.394531 0.412161 0.327499 0.000000
H678  H     H_    0.356172 0.415087 0.312770 0.000000
H679  H     H_    0.318228 0.378546 0.316947 0.000000
H680  H     H_    0.317878 0.338085 0.332902 0.000000
C613  C     C_3   0.245390 0.223077 0.428573 0.000000
N205  N     N_3   0.267072 0.239241 0.472344 0.000000
C614  C     C_3   0.273537 0.263667 0.442444 0.000000
C615  C     C_R   0.290781 0.280777 0.498162 0.000000
N206  N     N_R   0.287060 0.280606 0.582608 0.000000
C616  C     C_R   0.308823 0.296323 0.611087 0.000000
C617  C     C_R   0.317725 0.298752 0.692582 0.000000
C618  C     C_R   0.340984 0.315710 0.707703 0.000000
C619  C     C_R   0.354907 0.329368 0.641577 0.000000
C620  C     C_R   0.346275 0.325117 0.559161 0.000000
C621  C     C_R   0.323566 0.307326 0.545056 0.000000
N207  N     N_R   0.312839 0.297295 0.471227 0.000000
H681  H     H_    0.235895 0.206553 0.467395 0.000000
H682  H     H_    0.233380 0.231463 0.414319 0.000000
H683  H     H_    0.250069 0.218855 0.367671 0.000000
H684  H     H_    0.280377 0.234957 0.451332 0.000000
H685  H     H_    0.283632 0.266683 0.384272 0.000000
H686  H     H_    0.257994 0.267894 0.440734 0.000000
H687  H     H_    0.307325 0.287220 0.743170 0.000000
H688  H     H_    0.348372 0.318299 0.771320 0.000000
H689  H     H_    0.372998 0.342740 0.654243 0.000000
H690  H     H_    0.357514 0.335138 0.508247 0.000000
C622  C     C_3   0.227959 0.248425 0.247413 0.000000
N208  N     N_3   0.250334 0.259802 0.292268 0.000000
C623  C     C_3   0.264405 0.283743 0.259561 0.000000
C624  C     C_R   0.284489 0.284348 0.210303 0.000000
N209  N     N_R   0.308270 0.294623 0.239927 0.000000
C625  C     C_R   0.319944 0.299500 0.166162 0.000000
C626  C     C_R   0.344014 0.312527 0.153697 0.000000
C627  C     C_R   0.352571 0.314139 0.073355 0.000000
C628  C     C_R   0.337124 0.303258 0.006705 0.000000
C629  C     C_R   0.312873 0.291405 0.019169 0.000000
C630  C     C_R   0.304507 0.290424 0.099043 0.000000
N210  N     N_R   0.281615 0.280631 0.123815 0.000000
H691  H     H_    0.217662 0.229879 0.273287 0.000000
H692  H     H_    0.217410 0.258724 0.255097 0.000000
H693  H     H_    0.232337 0.247058 0.181973 0.000000
H694  H     H_    0.259908 0.250502 0.278350 0.000000
H695  H     H_    0.252887 0.288444 0.217837 0.000000
H696  H     H_    0.271404 0.296677 0.311683 0.000000
H697  H     H_    0.356154 0.320963 0.204819 0.000000
H698  H     H_    0.371513 0.323704 0.062284 0.000000
H699  H     H_    0.344044 0.304246 0.944489 0.000000
H700  H     H_    0.301204 0.282844 0.966804 0.000000
C631  C     C_3   0.148886 0.478453 0.562191 0.000000
N211  N     N_3   0.131760 0.486521 0.590985 0.000000
C632  C     C_3   0.141945 0.501252 0.664400 0.000000
C633  C     C_R   0.123857 0.506637 0.705960 0.000000
N212  N     N_R   0.109413 0.516699 0.669561 0.000000
C634  C     C_R   0.096965 0.516565 0.736865 0.000000
C635  C     C_R   0.084977 0.530029 0.746958 0.000000
C636  C     C_R   0.072384 0.526775 0.819010 0.000000
C637  C     C_R   0.070307 0.508476 0.875782 0.000000
C638  C     C_R   0.085727 0.498007 0.870558 0.000000
C639  C     C_R   0.100935 0.504760 0.803483 0.000000
N213  N     N_R   0.120407 0.501449 0.790791 0.000000
H701  H     H_    0.147270 0.462374 0.599918 0.000000
H702  H     H_    0.144995 0.473538 0.494922 0.000000
H703  H     H_    0.167398 0.492834 0.568919 0.000000
H704  H     H_    0.116996 0.471085 0.611574 0.000000
H705  H     H_    0.147578 0.490904 0.710978 0.000000
H706  H     H_    0.157957 0.517881 0.649669 0.000000
H707  H     H_    0.085729 0.542941 0.700566 0.000000
H708  H     H_    0.063992 0.538301 0.829531 0.000000
H709  H     H_    0.059160 0.504648 0.929925 0.000000
H710  H     H_    0.086616 0.486871 0.921761 0.000000
C640  C     C_3   0.160445 0.537260 0.495995 0.000000
N214  N     N_3   0.153481 0.549811 0.556854 0.000000
C641  C     C_3   0.150643 0.568905 0.509865 0.000000
C642  C     C_R   0.139556 0.580891 0.560081 0.000000
N215  N     N_R   0.116231 0.569066 0.586199 0.000000
C643  C     C_R   0.113558 0.586974 0.625189 0.000000
C644  C     C_R   0.093878 0.586267 0.665150 0.000000
C645  C     C_R   0.096429 0.606263 0.708689 0.000000
C646  C     C_R   0.117825 0.627001 0.708431 0.000000
C647  C     C_R   0.136573 0.628457 0.660874 0.000000
C648  C     C_R   0.134364 0.608037 0.622270 0.000000
N216  N     N_R   0.151313 0.605111 0.580408 0.000000
H711  H     H_    0.173679 0.531590 0.524610 0.000000
H712  H     H_    0.144500 0.521683 0.471035 0.000000
H713  H     H_    0.169384 0.549700 0.444331 0.000000
H714  H     H_    0.168261 0.558078 0.596919 0.000000
H715  H     H_    0.168167 0.582636 0.489638 0.000000
H716  H     H_    0.139088 0.561145 0.454530 0.000000
H717  H     H_    0.076671 0.570901 0.664564 0.000000
H718  H     H_    0.081470 0.605803 0.742421 0.000000
H719  H     H_    0.119384 0.642598 0.741815 0.000000
H720  H     H_    0.152366 0.645260 0.654738 0.000000
C649  C     C_3   0.156005 0.576348 0.753685 0.000000
N217  N     N_3   0.173372 0.574119 0.811950 0.000000
C650  C     C_3   0.176397 0.553540 0.786984 0.000000
C651  C     C_R   0.188615 0.546325 0.854410 0.000000
N218  N     N_R   0.210084 0.561700 0.892969 0.000000
C652  C     C_R   0.213411 0.546690 0.949655 0.000000
C653  C     C_R   0.229197 0.553467 0.016489 0.000000
C654  C     C_R   0.228072 0.535990 0.075848 0.000000
C655  C     C_R   0.210774 0.512324 0.067812 0.000000
C656  C     C_R   0.193731 0.506236 0.003079 0.000000
C657  C     C_R   0.195122 0.523826 0.945077 0.000000
N219  N     N_R   0.178300 0.523102 0.887254 0.000000
H721  H     H_    0.151424 0.590711 0.772893 0.000000
H722  H     H_    0.164200 0.581237 0.691961 0.000000
H723  H     H_    0.139374 0.559381 0.750651 0.000000
H724  H     H_    0.166212 0.569712 0.871131 0.000000
H725  H     H_    0.158987 0.538365 0.779890 0.000000
H726  H     H_    0.185816 0.556840 0.727224 0.000000
H727  H     H_    0.240800 0.572293 0.024686 0.000000
H728  H     H_    0.240380 0.540841 0.129434 0.000000
H729  H     H_    0.209991 0.498776 0.114416 0.000000
H730  H     H_    0.179921 0.488201 0.998575 0.000000
C658  C     C_3   0.207867 0.491848 0.767068 0.000000
N220  N     N_3   0.181888 0.480089 0.765939 0.000000
C659  C     C_3   0.174169 0.460767 0.829302 0.000000
C660  C     C_R   0.147667 0.449838 0.837957 0.000000
N221  N     N_R   0.135939 0.462160 0.869199 0.000000
C661  C     C_R   0.113501 0.444471 0.878197 0.000000
C662  C     C_R   0.094667 0.445325 0.916881 0.000000
C663  C     C_R   0.072996 0.424840 0.917695 0.000000
C664  C     C_R   0.070870 0.403565 0.884057 0.000000
C665  C     C_R   0.090691 0.402490 0.852311 0.000000
C666  C     C_R   0.111700 0.423252 0.851059 0.000000
N222  N     N_R   0.132963 0.425544 0.827333 0.000000
H731  H     H_    0.214124 0.505270 0.714209 0.000000
H732  H     H_    0.214749 0.501248 0.827300 0.000000
H733  H     H_    0.214789 0.478290 0.759569 0.000000
H734  H     H_    0.176448 0.471968 0.707572 0.000000
H735  H     H_    0.179484 0.446856 0.811022 0.000000
H736  H     H_    0.183007 0.467711 0.890582 0.000000
H737  H     H_    0.097181 0.460624 0.951911 0.000000
H738  H     H_    0.057709 0.425222 0.946119 0.000000
H739  H     H_    0.053923 0.387632 0.885355 0.000000
H740  H     H_    0.089631 0.386003 0.827785 0.000000
C667  C     C_3   0.174028 0.645112 0.846729 0.000000
N223  N     N_3   0.179704 0.633794 0.777938 0.000000
C668  C     C_3   0.202204 0.633513 0.800326 0.000000
C669  C     C_R   0.209090 0.619779 0.740423 0.000000
N224  N     N_R   0.220447 0.606518 0.771504 0.000000
C670  C     C_R   0.223735 0.596440 0.702802 0.000000
C671  C     C_R   0.233774 0.580565 0.700345 0.000000
C672  C     C_R   0.234430 0.571163 0.623488 0.000000
C673  C     C_R   0.224667 0.577331 0.552088 0.000000
C674  C     C_R   0.214343 0.593045 0.556613 0.000000
C675  C     C_R   0.214480 0.602987 0.633106 0.000000
N225  N     N_R   0.205151 0.618240 0.653690 0.000000
H741  H     H_    0.171783 0.634262 0.905480 0.000000
H742  H     H_    0.188816 0.663271 0.856902 0.000000
H743  H     H_    0.157216 0.646571 0.831547 0.000000
H744  H     H_    0.182900 0.645356 0.726295 0.000000
H745  H     H_    0.216380 0.652119 0.805298 0.000000
H746  H     H_    0.200235 0.624162 0.862135 0.000000
H747  H     H_    0.240509 0.575074 0.756675 0.000000
H748  H     H_    0.242123 0.558595 0.619320 0.000000
H749  H     H_    0.224777 0.569495 0.492395 0.000000
H750  H     H_    0.206278 0.596639 0.500850 0.000000
C676  C     C_3   0.131335 0.314109 0.818023 0.000000
N226  N     N_3   0.131242 0.336773 0.790324 0.000000
C677  C     C_3   0.113023 0.330189 0.725076 0.000000
C678  C     C_R   0.111532 0.350776 0.681053 0.000000
N227  N     N_R   0.116426 0.373342 0.712262 0.000000
C679  C     C_R   0.111523 0.384100 0.643223 0.000000
C680  C     C_R   0.111324 0.406318 0.635713 0.000000
C681  C     C_R   0.108815 0.414912 0.556225 0.000000
C682  C     C_R   0.108392 0.402269 0.485790 0.000000
C683  C     C_R   0.107734 0.379693 0.494964 0.000000
C684  C     C_R   0.106574 0.369827 0.574693 0.000000
N228  N     N_R   0.104789 0.347814 0.597598 0.000000
H751  H     H_    0.145137 0.317312 0.867452 0.000000
H752  H     H_    0.113679 0.301693 0.842479 0.000000
H753  H     H_    0.134915 0.305205 0.764805 0.000000
H754  H     H_    0.147524 0.347535 0.762561 0.000000
H755  H     H_    0.117749 0.321163 0.675993 0.000000
H756  H     H_    0.095307 0.317888 0.749609 0.000000
H757  H     H_    0.113209 0.417214 0.688635 0.000000
H758  H     H_    0.108522 0.432194 0.548721 0.000000
H759  H     H_    0.108514 0.410042 0.423506 0.000000
H760  H     H_    0.109216 0.370778 0.440400 0.000000
C685  C     C_3   0.144617 0.265522 0.314347 0.000000
N229  N     N_3   0.158872 0.291383 0.324078 0.000000
C686  C     C_3   0.184232 0.297716 0.316837 0.000000
C687  C     C_R   0.198124 0.323730 0.326356 0.000000
N230  N     N_R   0.204321 0.338911 0.257152 0.000000
C688  C     C_R   0.212393 0.360899 0.292314 0.000000
C689  C     C_R   0.218790 0.383172 0.253804 0.000000
C690  C     C_R   0.227437 0.403490 0.302405 0.000000
C691  C     C_R   0.226736 0.401154 0.389065 0.000000
C692  C     C_R   0.217177 0.378521 0.427139 0.000000
C693  C     C_R   0.211217 0.358618 0.377932 0.000000
N231  N     N_R   0.202522 0.335138 0.402263 0.000000
H761  H     H_    0.132006 0.262288 0.260015 0.000000
H762  H     H_    0.156283 0.256570 0.304791 0.000000
H763  H     H_    0.133899 0.257525 0.371158 0.000000
H764  H     H_    0.156078 0.295989 0.383762 0.000000
H765  H     H_    0.191068 0.288369 0.361860 0.000000
H766  H     H_    0.187700 0.293718 0.254369 0.000000
H767  H     H_    0.216239 0.385259 0.187656 0.000000
H768  H     H_    0.233255 0.421135 0.272542 0.000000
H769  H     H_    0.232629 0.417047 0.426685 0.000000
H770  H     H_    0.214724 0.377158 0.493766 0.000000
C694  C     C_3   0.282414 0.335814 0.462279 0.000000
N232  N     N_3   0.256945 0.323375 0.477286 0.000000
C695  C     C_3   0.253737 0.315659 0.565309 0.000000
C696  C     C_R   0.230307 0.294939 0.573946 0.000000
N233  N     N_R   0.209486 0.294730 0.539095 0.000000
C697  C     C_R   0.196914 0.271228 0.519770 0.000000
C698  C     C_R   0.174925 0.260088 0.480727 0.000000
C699  C     C_R   0.166046 0.236142 0.459769 0.000000
C700  C     C_R   0.180029 0.224146 0.473530 0.000000
C701  C     C_R   0.202074 0.235684 0.513250 0.000000
C702  C     C_R   0.209390 0.258547 0.541987 0.000000
N234  N     N_R   0.229987 0.272632 0.582705 0.000000
H771  H     H_    0.285640 0.349190 0.410135 0.000000
H772  H     H_    0.292342 0.345209 0.519705 0.000000
H773  H     H_    0.288767 0.322674 0.443443 0.000000
H774  H     H_    0.250024 0.307962 0.440664 0.000000
H775  H     H_    0.266707 0.308540 0.580972 0.000000
H776  H     H_    0.256116 0.330262 0.608088 0.000000
H777  H     H_    0.164955 0.270019 0.465800 0.000000
H778  H     H_    0.148639 0.227070 0.429430 0.000000
H779  H     H_    0.173749 0.205781 0.453255 0.000000
H780  H     H_    0.213058 0.226651 0.521672 0.000000
C703  C     C_3   0.158168 0.381967 0.452349 0.000000
N235  N     N_3   0.147773 0.355800 0.450199 0.000000
C704  C     C_3   0.156734 0.348100 0.525103 0.000000
C705  C     C_R   0.146779 0.321504 0.531224 0.000000
N236  N     N_R   0.122605 0.306951 0.537075 0.000000
C706  C     C_R   0.121900 0.285289 0.557059 0.000000
C707  C     C_R   0.102175 0.263353 0.560929 0.000000
C708  C     C_R   0.105101 0.243586 0.591742 0.000000
C709  C     C_R   0.127490 0.246325 0.619152 0.000000
C710  C     C_R   0.147339 0.268269 0.609006 0.000000
C711  C     C_R   0.144367 0.287200 0.570128 0.000000
N237  N     N_R   0.160922 0.309685 0.547640 0.000000
H781  H     H_    0.149717 0.389002 0.403240 0.000000
H782  H     H_    0.154818 0.387476 0.513807 0.000000
H783  H     H_    0.177651 0.389837 0.442625 0.000000
H784  H     H_    0.154603 0.351166 0.398617 0.000000
H785  H     H_    0.176353 0.355780 0.524162 0.000000
H786  H     H_    0.151334 0.354290 0.581533 0.000000
H787  H     H_    0.084821 0.261670 0.541735 0.000000
H788  H     H_    0.089784 0.226193 0.597408 0.000000
H789  H     H_    0.129576 0.231059 0.646751 0.000000
H790  H     H_    0.164452 0.269673 0.629881 0.000000
C712  C     C_3   0.040979 0.972744 0.393283 0.000000
N238  N     N_3   0.054873 0.959037 0.402862 0.000000
C713  C     C_3   0.079832 0.974070 0.383097 0.000000
C714  C     C_R   0.093128 0.959329 0.388817 0.000000
N239  N     N_R   0.098717 0.950346 0.462821 0.000000
C715  C     C_R   0.110469 0.938376 0.435231 0.000000
C716  C     C_R   0.115232 0.921258 0.477321 0.000000
C717  C     C_R   0.129352 0.912618 0.438700 0.000000
C718  C     C_R   0.138079 0.921275 0.359056 0.000000
C719  C     C_R   0.130473 0.936401 0.314174 0.000000
C720  C     C_R   0.114568 0.942778 0.351704 0.000000
N240  N     N_R   0.101889 0.954218 0.318330 0.000000
H791  H     H_    0.030488 0.970766 0.449379 0.000000
H792  H     H_    0.052527 0.992062 0.378719 0.000000
H793  H     H_    0.026943 0.964228 0.345127 0.000000
H794  H     H_    0.048250 0.946431 0.355420 0.000000
H795  H     H_    0.081379 0.980726 0.317762 0.000000
H796  H     H_    0.088493 0.989704 0.423805 0.000000
H797  H     H_    0.107093 0.913919 0.536743 0.000000
H798  H     H_    0.133878 0.899399 0.471062 0.000000
H799  H     H_    0.149855 0.915200 0.330179 0.000000
H800  H     H_    0.136557 0.942365 0.251138 0.000000
C721  C     C_3   0.055120 0.879591 0.586833 0.000000
N241  N     N_3   0.061353 0.905055 0.594984 0.000000
C722  C     C_3   0.042219 0.907081 0.638602 0.000000
C723  C     C_R   0.041589 0.930792 0.617879 0.000000
N242  N     N_R   0.061438 0.951771 0.594947 0.000000
C724  C     C_R   0.052692 0.968169 0.590489 0.000000
C725  C     C_R   0.064644 0.991986 0.566023 0.000000
C726  C     C_R   0.053531 0.006834 0.570194 0.000000
C727  C     C_R   0.030466 0.997471 0.597827 0.000000
C728  C     C_R   0.018095 0.973158 0.617277 0.000000
C729  C     C_R   0.029076 0.957962 0.610500 0.000000
N243  N     N_R   0.020802 0.933542 0.623846 0.000000
H801  H     H_    0.071677 0.877076 0.586884 0.000000
H802  H     H_    0.043904 0.869049 0.639892 0.000000
H803  H     H_    0.045116 0.872934 0.526780 0.000000
H804  H     H_    0.062365 0.912395 0.534311 0.000000
H805  H     H_    0.024955 0.892127 0.622973 0.000000
H806  H     H_    0.044168 0.904497 0.706879 0.000000
H807  H     H_    0.082220 0.999046 0.541995 0.000000
H808  H     H_    0.062854 0.025705 0.552084 0.000000
H809  H     H_    0.021792 0.009153 0.602937 0.000000
H810  H     H_    0.000598 0.967765 0.639235 0.000000
C730  C     C_3   0.194409 0.984095 0.537281 0.000000
N244  N     N_3   0.183899 0.000948 0.527028 0.000000
C731  C     C_3   0.158673 0.987522 0.543742 0.000000
C732  C     C_R   0.148176 0.003770 0.567088 0.000000
N245  N     N_R   0.124721 0.994882 0.592645 0.000000
C733  C     C_R   0.124014 0.015010 0.619700 0.000000
C734  C     C_R   0.107470 0.017264 0.669228 0.000000
C735  C     C_R   0.108596 0.039935 0.677279 0.000000
C736  C     C_R   0.126418 0.059630 0.637768 0.000000
C737  C     C_R   0.144937 0.057167 0.600611 0.000000
C738  C     C_R   0.144514 0.034781 0.600686 0.000000
N246  N     N_R   0.161431 0.028444 0.575335 0.000000
H811  H     H_    0.198011 0.981780 0.605086 0.000000
H812  H     H_    0.182042 0.966356 0.511452 0.000000
H813  H     H_    0.211386 0.991079 0.502928 0.000000
H814  H     H_    0.185145 0.006293 0.463767 0.000000
H815  H     H_    0.149256 0.977342 0.487345 0.000000
H816  H     H_    0.156654 0.975476 0.598592 0.000000
H817  H     H_    0.093382 0.001994 0.698644 0.000000
H818  H     H_    0.095098 0.042150 0.711883 0.000000
H819  H     H_    0.126826 0.077268 0.641310 0.000000
H820  H     H_    0.159699 0.072808 0.576741 0.000000
C739  C     C_3   0.796239 0.550595 0.589030 0.000000
N247  N     N_3   0.821095 0.558958 0.566470 0.000000
C740  C     C_3   0.832345 0.585046 0.565625 0.000000
C741  C     C_R   0.856773 0.596077 0.528605 0.000000
N248  N     N_R   0.876167 0.592610 0.561636 0.000000
C742  C     C_R   0.889859 0.598363 0.493841 0.000000
C743  C     C_R   0.904186 0.587937 0.476130 0.000000
C744  C     C_R   0.913052 0.590885 0.396484 0.000000
C745  C     C_R   0.907244 0.604150 0.335407 0.000000
C746  C     C_R   0.892254 0.614120 0.354184 0.000000
C747  C     C_R   0.881907 0.608565 0.431207 0.000000
N249  N     N_R   0.860684 0.607396 0.449166 0.000000
H821  H     H_    0.788839 0.531344 0.609486 0.000000
H822  H     H_    0.794803 0.561330 0.641060 0.000000
H823  H     H_    0.785681 0.552241 0.533371 0.000000
H824  H     H_    0.820490 0.554100 0.504029 0.000000
H825  H     H_    0.820968 0.588981 0.520955 0.000000
H826  H     H_    0.832891 0.592110 0.629268 0.000000
H827  H     H_    0.905707 0.575141 0.519847 0.000000
H828  H     H_    0.924965 0.583253 0.383826 0.000000
H829  H     H_    0.915180 0.607910 0.274347 0.000000
H830  H     H_    0.888422 0.625203 0.308082 0.000000
C748  C     C_3   0.845343 0.627702 0.960300 0.000000
N250  N     N_3   0.861376 0.625276 0.025222 0.000000
C749  C     C_3   0.846596 0.610631 0.092972 0.000000
C750  C     C_R   0.860343 0.604358 0.160867 0.000000
N251  N     N_R   0.867659 0.586850 0.140653 0.000000
C751  C     C_R   0.857335 0.569989 0.202441 0.000000
C752  C     C_R   0.853136 0.546198 0.206203 0.000000
C753  C     C_R   0.841405 0.532196 0.274977 0.000000
C754  C     C_R   0.832017 0.541118 0.334565 0.000000
C755  C     C_R   0.834902 0.564494 0.327401 0.000000
C756  C     C_R   0.847586 0.578316 0.260914 0.000000
N252  N     N_R   0.850414 0.600558 0.240659 0.000000
H831  H     H_    0.855823 0.639973 0.908953 0.000000
H832  H     H_    0.833756 0.609909 0.933144 0.000000
H833  H     H_    0.834038 0.635307 0.987381 0.000000
H834  H     H_    0.871350 0.642347 0.049521 0.000000
H835  H     H_    0.836670 0.619498 0.119882 0.000000
H836  H     H_    0.832796 0.593620 0.067284 0.000000
H837  H     H_    0.856332 0.537520 0.154709 0.000000
H838  H     H_    0.838558 0.513768 0.280615 0.000000
H839  H     H_    0.821217 0.529292 0.383484 0.000000
H840  H     H_    0.826146 0.571225 0.369415 0.000000
C757  C     C_3   0.549798 0.829309 0.137466 0.000000
N253  N     N_3   0.533716 0.804760 0.114003 0.000000
C758  C     C_3   0.544926 0.797455 0.050152 0.000000
C759  C     C_R   0.527435 0.777182 0.999572 0.000000
N254  N     N_R   0.511528 0.754543 0.030706 0.000000
C760  C     C_R   0.496802 0.745426 0.962634 0.000000
C761  C     C_R   0.476907 0.723558 0.953113 0.000000
C762  C     C_R   0.462176 0.720191 0.882842 0.000000
C763  C     C_R   0.466528 0.738963 0.826178 0.000000
C764  C     C_R   0.487205 0.759937 0.834814 0.000000
C765  C     C_R   0.503475 0.761601 0.897212 0.000000
N255  N     N_R   0.523999 0.781155 0.915038 0.000000
H841  H     H_    0.543074 0.834056 0.194217 0.000000
H842  H     H_    0.567903 0.830819 0.151933 0.000000
H843  H     H_    0.550623 0.842149 0.085460 0.000000
H844  H     H_    0.518717 0.805436 0.085962 0.000000
H845  H     H_    0.552343 0.812667 0.004382 0.000000
H846  H     H_    0.558743 0.792856 0.079479 0.000000
H847  H     H_    0.472447 0.708732 0.995595 0.000000
H848  H     H_    0.446542 0.703275 0.874524 0.000000
H849  H     H_    0.453565 0.737441 0.776677 0.000000
H850  H     H_    0.488443 0.775869 0.804350 0.000000
C766  C     C_3   0.584993 0.800992 0.536645 0.000000
N256  N     N_3   0.559858 0.793009 0.553369 0.000000
C767  C     C_3   0.554456 0.780839 0.635666 0.000000
C768  C     C_R   0.530117 0.775893 0.657151 0.000000
N257  N     N_R   0.525930 0.792108 0.703620 0.000000
C769  C     C_R   0.505208 0.790322 0.667870 0.000000
C770  C     C_R   0.493416 0.804102 0.682775 0.000000
C771  C     C_R   0.471475 0.797957 0.642424 0.000000
C772  C     C_R   0.461790 0.778403 0.589094 0.000000
C773  C     C_R   0.474076 0.764950 0.574137 0.000000
C774  C     C_R   0.495951 0.771490 0.613539 0.000000
N258  N     N_R   0.511541 0.762018 0.604032 0.000000
H851  H     H_    0.589952 0.813396 0.480798 0.000000
H852  H     H_    0.596341 0.810284 0.591005 0.000000
H853  H     H_    0.588335 0.785335 0.524920 0.000000
H854  H     H_    0.550323 0.780277 0.508027 0.000000
H855  H     H_    0.555706 0.763804 0.634604 0.000000
H856  H     H_    0.566221 0.792535 0.683761 0.000000
H857  H     H_    0.500662 0.818850 0.725970 0.000000
H858  H     H_    0.461647 0.808270 0.653320 0.000000
H859  H     H_    0.444549 0.773728 0.558644 0.000000
H860  H     H_    0.466701 0.749947 0.532600 0.000000
C775  C     C_3   0.338638 0.950215 0.538646 0.000000
N259  N     N_3   0.359338 0.951076 0.586766 0.000000
C776  C     C_3   0.350688 0.937673 0.664680 0.000000
C777  C     C_R   0.367639 0.929534 0.706842 0.000000
N260  N     N_R   0.389641 0.932715 0.675741 0.000000
C778  C     C_R   0.395843 0.919681 0.733699 0.000000
C779  C     C_R   0.417785 0.920038 0.747677 0.000000
C780  C     C_R   0.420187 0.904995 0.810501 0.000000
C781  C     C_R   0.401110 0.890996 0.861141 0.000000
C782  C     C_R   0.380164 0.893514 0.854149 0.000000
C783  C     C_R   0.378454 0.908807 0.792193 0.000000
N261  N     N_R   0.360882 0.915716 0.780866 0.000000
H861  H     H_    0.329946 0.959135 0.574216 0.000000
H862  H     H_    0.344479 0.960002 0.477872 0.000000
H863  H     H_    0.325653 0.931394 0.525313 0.000000
H864  H     H_    0.368362 0.968850 0.605018 0.000000
H865  H     H_    0.347448 0.949259 0.708455 0.000000
H866  H     H_    0.334120 0.921190 0.651616 0.000000
H867  H     H_    0.433064 0.932611 0.714129 0.000000
H868  H     H_    0.437052 0.904178 0.820501 0.000000
H869  H     H_    0.403024 0.878964 0.908783 0.000000
H870  H     H_    0.365554 0.883449 0.895091 0.000000
C784  C     C_3   0.419729 0.960016 0.881949 0.000000
N262  N     N_3   0.404999 0.942746 0.944083 0.000000
C785  C     C_3   0.386258 0.949169 0.967395 0.000000
C786  C     C_R   0.370519 0.929735 0.022985 0.000000
N263  N     N_R   0.351781 0.910002 0.988988 0.000000
C787  C     C_R   0.349299 0.892305 0.045766 0.000000
C788  C     C_R   0.337375 0.867835 0.034526 0.000000
C789  C     C_R   0.338987 0.852532 0.097704 0.000000
C790  C     C_R   0.353372 0.861793 0.168657 0.000000
C791  C     C_R   0.366921 0.886407 0.175557 0.000000
C792  C     C_R   0.364683 0.901434 0.112854 0.000000
N264  N     N_R   0.378737 0.925360 0.100550 0.000000
H871  H     H_    0.436102 0.957586 0.873054 0.000000
H872  H     H_    0.409335 0.957496 0.822749 0.000000
H873  H     H_    0.424591 0.978447 0.901288 0.000000
H874  H     H_    0.415590 0.943454 0.997119 0.000000
H875  H     H_    0.393597 0.966133 0.001757 0.000000
H876  H     H_    0.375916 0.950349 0.910562 0.000000
H877  H     H_    0.327846 0.860486 0.976673 0.000000
H878  H     H_    0.329531 0.833219 0.090562 0.000000
H879  H     H_    0.354932 0.849661 0.216782 0.000000
H880  H     H_    0.379480 0.893361 0.227349 0.000000
C793  C     C_3   0.644059 0.279231 0.294678 0.000000
N265  N     N_3   0.665754 0.288924 0.246064 0.000000
C794  C     C_3   0.681658 0.279113 0.280314 0.000000
C795  C     C_R   0.701592 0.285232 0.222556 0.000000
N266  N     N_R   0.698173 0.286736 0.135909 0.000000
C796  C     C_R   0.719309 0.305279 0.114499 0.000000
C797  C     C_R   0.724547 0.320631 0.044724 0.000000
C798  C     C_R   0.747922 0.337919 0.035386 0.000000
C799  C     C_R   0.765461 0.339458 0.094542 0.000000
C800  C     C_R   0.759264 0.325667 0.168159 0.000000
C801  C     C_R   0.735509 0.310564 0.179837 0.000000
N267  N     N_R   0.724827 0.298958 0.251179 0.000000
H881  H     H_    0.638410 0.293632 0.302966 0.000000
H882  H     H_    0.629528 0.264321 0.260645 0.000000
H883  H     H_    0.647173 0.272534 0.357207 0.000000
H884  H     H_    0.674313 0.307519 0.255222 0.000000
H885  H     H_    0.689230 0.287866 0.340806 0.000000
H886  H     H_    0.672255 0.259539 0.288490 0.000000
H887  H     H_    0.711432 0.318960 0.995974 0.000000
H888  H     H_    0.752734 0.349498 0.979578 0.000000
H889  H     H_    0.783905 0.352038 0.084337 0.000000
H890  H     H_    0.772808 0.326765 0.214178 0.000000
C802  C     C_3   0.658122 0.226689 0.419596 0.000000
N268  N     N_3   0.668752 0.251008 0.449084 0.000000
C803  C     C_3   0.693791 0.257781 0.467668 0.000000
C804  C     C_R   0.703844 0.281536 0.506510 0.000000
N269  N     N_R   0.721200 0.302159 0.469733 0.000000
C805  C     C_R   0.722380 0.319419 0.522104 0.000000
C806  C     C_R   0.737371 0.343694 0.518930 0.000000
C807  C     C_R   0.735209 0.358054 0.579867 0.000000
C808  C     C_R   0.718472 0.348050 0.642732 0.000000
C809  C     C_R   0.703867 0.323477 0.646180 0.000000
C810  C     C_R   0.706352 0.309514 0.585485 0.000000
N270  N     N_R   0.694432 0.285313 0.578495 0.000000
H891  H     H_    0.638716 0.220669 0.410079 0.000000
H892  H     H_    0.666627 0.225713 0.360860 0.000000
H893  H     H_    0.660947 0.215061 0.467796 0.000000
H894  H     H_    0.660371 0.250975 0.504505 0.000000
H895  H     H_    0.695945 0.244802 0.512616 0.000000
H896  H     H_    0.702966 0.258689 0.408541 0.000000
H897  H     H_    0.750584 0.351567 0.471540 0.000000
H898  H     H_    0.746715 0.377241 0.578644 0.000000
H899  H     H_    0.717028 0.359513 0.689871 0.000000
H900  H     H_    0.691178 0.315660 0.695599 0.000000
C811  C     C_3   0.804005 0.978779 0.756075 0.000000
N271  N     N_3   0.798568 0.993548 0.695449 0.000000
C812  C     C_3   0.798345 0.986553 0.609613 0.000000
C813  C     C_R   0.823426 0.998288 0.581906 0.000000
N272  N     N_R   0.837215 0.023203 0.579047 0.000000
C814  C     C_R   0.859395 0.025051 0.593360 0.000000
C815  C     C_R   0.879767 0.045695 0.609906 0.000000
C816  C     C_R   0.900324 0.043453 0.633278 0.000000
C817  C     C_R   0.899906 0.020804 0.642152 0.000000
C818  C     C_R   0.879021 0.000099 0.627184 0.000000
C819  C     C_R   0.858903 0.002601 0.600432 0.000000
N273  N     N_R   0.836286 0.985105 0.588308 0.000000
H901  H     H_    0.820612 0.978267 0.739221 0.000000
H902  H     H_    0.807958 0.987868 0.816774 0.000000
H903  H     H_    0.788537 0.961212 0.763381 0.000000
H904  H     H_    0.814005 0.009023 0.699377 0.000000
H905  H     H_    0.791087 0.966841 0.605878 0.000000
H906  H     H_    0.786763 0.992435 0.570906 0.000000
H907  H     H_    0.879556 0.063049 0.607483 0.000000
H908  H     H_    0.916645 0.059391 0.647121 0.000000
H909  H     H_    0.915903 0.019286 0.663287 0.000000
H910  H     H_    0.878674 0.982735 0.640546 0.000000
C820  C     C_3   0.910383 0.134590 0.432191 0.000000
N274  N     N_3   0.895384 0.133494 0.501924 0.000000
C821  C     C_3   0.881260 0.108234 0.523531 0.000000
C822  C     C_R   0.866079 0.105308 0.597179 0.000000
N275  N     N_R   0.870045 0.122938 0.655423 0.000000
C823  C     C_R   0.849615 0.112948 0.699624 0.000000
C824  C     C_R   0.843876 0.118689 0.776271 0.000000
C825  C     C_R   0.820251 0.109588 0.797622 0.000000
C826  C     C_R   0.802864 0.095133 0.742088 0.000000
C827  C     C_R   0.809352 0.086786 0.672987 0.000000
C828  C     C_R   0.833315 0.093571 0.660260 0.000000
N276  N     N_R   0.843975 0.085845 0.603822 0.000000
H911  H     H_    0.920752 0.153585 0.411584 0.000000
H912  H     H_    0.923006 0.127045 0.452296 0.000000
H913  H     H_    0.899206 0.124219 0.378393 0.000000
H914  H     H_    0.883576 0.140374 0.480253 0.000000
H915  H     H_    0.869203 0.099360 0.469499 0.000000
H916  H     H_    0.893183 0.099502 0.537782 0.000000
H917  H     H_    0.856607 0.128095 0.823112 0.000000
H918  H     H_    0.815434 0.114786 0.855460 0.000000
H919  H     H_    0.784243 0.089813 0.753454 0.000000
H920  H     H_    0.795378 0.075850 0.631056 0.000000
C829  C     C_3   0.893704 0.054438 0.410886 0.000000
N277  N     N_3   0.875119 0.062707 0.409361 0.000000
C830  C     C_3   0.852593 0.043295 0.381407 0.000000
C831  C     C_R   0.834183 0.052445 0.369732 0.000000
N278  N     N_R   0.823426 0.056768 0.437051 0.000000
C832  C     C_R   0.813272 0.070196 0.401422 0.000000
C833  C     C_R   0.798458 0.078111 0.437154 0.000000
C834  C     C_R   0.788105 0.089591 0.385630 0.000000
C835  C     C_R   0.793980 0.094366 0.301361 0.000000
C836  C     C_R   0.809158 0.086421 0.267428 0.000000
C837  C     C_R   0.817675 0.073553 0.317842 0.000000
N279  N     N_R   0.829256 0.061045 0.293605 0.000000
H921  H     H_    0.907766 0.064785 0.458025 0.000000
H922  H     H_    0.886202 0.034916 0.427438 0.000000
H923  H     H_    0.902162 0.057875 0.348739 0.000000
H924  H     H_    0.879828 0.076724 0.364390 0.000000
H925  H     H_    0.855046 0.036293 0.322801 0.000000
H926  H     H_    0.846614 0.028338 0.427693 0.000000
H927  H     H_    0.793206 0.073646 0.500869 0.000000
H928  H     H_    0.774681 0.093955 0.410670 0.000000
H929  H     H_    0.785464 0.102683 0.260114 0.000000
H930  H     H_    0.811637 0.087212 0.201442 0.000000
C838  C     C_3   0.271496 0.221756 0.199746 0.000000
N280  N     N_3   0.289267 0.237290 0.142016 0.000000
C839  C     C_3   0.281665 0.230111 0.056838 0.000000
C840  C     C_R   0.255715 0.216407 0.047544 0.000000
N281  N     N_R   0.240088 0.226693 0.034455 0.000000
C841  C     C_R   0.219423 0.206751 0.012678 0.000000
C842  C     C_R   0.197277 0.204496 0.983056 0.000000
C843  C     C_R   0.179119 0.181883 0.966765 0.000000
C844  C     C_R   0.183073 0.161603 0.974881 0.000000
C845  C     C_R   0.205569 0.163916 0.996776 0.000000
C846  C     C_R   0.223072 0.186430 0.016880 0.000000
N282  N     N_R   0.245867 0.191930 0.038178 0.000000
H931  H     H_    0.278785 0.227699 0.263661 0.000000
H932  H     H_    0.254381 0.223053 0.194192 0.000000
H933  H     H_    0.268721 0.203102 0.190420 0.000000
H934  H     H_    0.302646 0.231668 0.151729 0.000000
H935  H     H_    0.287934 0.245613 0.013036 0.000000
H936  H     H_    0.289592 0.218167 0.040011 0.000000
H937  H     H_    0.192959 0.219347 0.973634 0.000000
H938  H     H_    0.161657 0.180099 0.946586 0.000000
H939  H     H_    0.168678 0.144071 0.961697 0.000000
H940  H     H_    0.209205 0.148377 0.997457 0.000000
C847  C     C_3   0.296731 0.222631 0.862051 0.000000
N283  N     N_3   0.271949 0.213024 0.888462 0.000000
C848  C     C_3   0.255019 0.191485 0.845547 0.000000
C849  C     C_R   0.262296 0.171716 0.849797 0.000000
N284  N     N_R   0.268332 0.163694 0.778858 0.000000
C850  C     C_R   0.279775 0.151141 0.811442 0.000000
C851  C     C_R   0.291408 0.140751 0.768585 0.000000
C852  C     C_R   0.306355 0.133386 0.815044 0.000000
C853  C     C_R   0.307912 0.134855 0.902408 0.000000
C854  C     C_R   0.294074 0.143167 0.944868 0.000000
C855  C     C_R   0.280132 0.151375 0.897448 0.000000
N285  N     N_R   0.267717 0.163002 0.924220 0.000000
H941  H     H_    0.300575 0.209696 0.826935 0.000000
H942  H     H_    0.301425 0.239644 0.825940 0.000000
H943  H     H_    0.308917 0.228198 0.917699 0.000000
H944  H     H_    0.266406 0.226473 0.874600 0.000000
H945  H     H_    0.237004 0.185148 0.870282 0.000000
H946  H     H_    0.253490 0.196359 0.781562 0.000000
H947  H     H_    0.290577 0.140176 0.700581 0.000000
H948  H     H_    0.317601 0.127323 0.782828 0.000000
H949  H     H_    0.319851 0.129211 0.937644 0.000000
H950  H     H_    0.295340 0.144364 0.012510 0.000000
C856  C     C_3   0.254897 0.085881 0.951046 0.000000
N286  N     N_3   0.245522 0.087771 0.031502 0.000000
C857  C     C_3   0.234046 0.103534 0.017267 0.000000
C858  C     C_R   0.228060 0.111401 0.096423 0.000000
N287  N     N_R   0.210709 0.096488 0.152574 0.000000
C859  C     C_R   0.205409 0.112497 0.190861 0.000000
C860  C     C_R   0.186638 0.107375 0.241873 0.000000
C861  C     C_R   0.181745 0.126022 0.265763 0.000000
C862  C     C_R   0.196036 0.149404 0.238922 0.000000
C863  C     C_R   0.215178 0.154232 0.188026 0.000000
C864  C     C_R   0.219302 0.135409 0.163121 0.000000
N288  N     N_R   0.234551 0.135667 0.104485 0.000000
H951  H     H_    0.274443 0.092711 0.956987 0.000000
H952  H     H_    0.247225 0.066897 0.933446 0.000000
H953  H     H_    0.250386 0.095981 0.899833 0.000000
H954  H     H_    0.260148 0.096262 0.072065 0.000000
H955  H     H_    0.246343 0.120205 0.985824 0.000000
H956  H     H_    0.218111 0.095174 0.975356 0.000000
H957  H     H_    0.175048 0.088993 0.256511 0.000000
H958  H     H_    0.166530 0.122468 0.303997 0.000000
H959  H     H_    0.192211 0.163969 0.257840 0.000000
H960  H     H_    0.226259 0.172417 0.168890 0.000000
C865  C     C_3   0.052123 0.227396 0.118670 0.000000
N289  N     N_3   0.052128 0.250543 0.132954 0.000000
C866  C     C_3   0.041296 0.256785 0.059417 0.000000
C867  C     C_R   0.038016 0.278872 0.073421 0.000000
N290  N     N_R   0.016310 0.279295 0.052203 0.000000
C868  C     C_R   0.022384 0.302903 0.054638 0.000000
C869  C     C_R   0.010282 0.314480 0.015635 0.000000
C870  C     C_R   0.019584 0.339259 0.019063 0.000000
C871  C     C_R   0.041347 0.351964 0.058960 0.000000
C872  C     C_R   0.054276 0.339943 0.088988 0.000000
C873  C     C_R   0.044938 0.315454 0.083796 0.000000
N291  N     N_R   0.056503 0.301416 0.094562 0.000000
H961  H     H_    0.062309 0.223304 0.170504 0.000000
H962  H     H_    0.033530 0.212921 0.117602 0.000000
H963  H     H_    0.060676 0.228006 0.058026 0.000000
H964  H     H_    0.069900 0.263398 0.137002 0.000000
H965  H     H_    0.051774 0.259060 0.002516 0.000000
H966  H     H_    0.023789 0.241900 0.045609 0.000000
H967  H     H_    0.994915 0.304550 0.977254 0.000000
H968  H     H_    0.010352 0.348805 0.988598 0.000000
H969  H     H_    0.048964 0.371412 0.061623 0.000000
H970  H     H_    0.071563 0.349775 0.113027 0.000000
C874  C     C_3   0.997827 0.202438 0.922285 0.000000
N292  N     N_3   0.999271 0.226564 0.911629 0.000000
C875  C     C_3   0.980810 0.225482 0.851187 0.000000
C876  C     C_R   0.983310 0.250155 0.829295 0.000000
N293  N     N_R   0.978936 0.263228 0.888542 0.000000
C877  C     C_R   0.972525 0.277850 0.840901 0.000000
C878  C     C_R   0.958117 0.287238 0.866277 0.000000
C879  C     C_R   0.948922 0.298519 0.809361 0.000000
C880  C     C_R   0.951433 0.296503 0.724774 0.000000
C881  C     C_R   0.962972 0.283199 0.699793 0.000000
C882  C     C_R   0.974372 0.275022 0.758213 0.000000
N294  N     N_R   0.981588 0.257824 0.747369 0.000000
H971  H     H_    0.011557 0.202753 0.969377 0.000000
H972  H     H_    0.979892 0.189738 0.944907 0.000000
H973  H     H_    0.001128 0.196162 0.861725 0.000000
H974  H     H_    0.015859 0.237939 0.887013 0.000000
H975  H     H_    0.981118 0.216061 0.794271 0.000000
H976  H     H_    0.963147 0.215029 0.879978 0.000000
H977  H     H_    0.951583 0.282267 0.927776 0.000000
H978  H     H_    0.937184 0.305885 0.829856 0.000000
H979  H     H_    0.941442 0.302229 0.679624 0.000000
H980  H     H_    0.959920 0.276157 0.638825 0.000000
C883  C     C_3   0.905621 0.253986 0.970437 0.000000
N295  N     N_3   0.915183 0.241175 0.027513 0.000000
C884  C     C_3   0.922628 0.226485 0.978541 0.000000
C885  C     C_R   0.933859 0.214562 0.033327 0.000000
N296  N     N_R   0.921549 0.191587 0.067575 0.000000
C886  C     C_R   0.939003 0.188852 0.113000 0.000000
C887  C     C_R   0.936724 0.170427 0.169021 0.000000
C888  C     C_R   0.957197 0.171164 0.208480 0.000000
C889  C     C_R   0.979219 0.190546 0.194215 0.000000
C890  C     C_R   0.980963 0.209652 0.141715 0.000000
C891  C     C_R   0.960615 0.208503 0.101640 0.000000
N297  N     N_R   0.957959 0.225573 0.052298 0.000000
H981  H     H_    0.913842 0.257600 0.908753 0.000000
H982  H     H_    0.886325 0.243076 0.959075 0.000000
H983  H     H_    0.909090 0.271504 0.997448 0.000000
H984  H     H_    0.900862 0.228909 0.062217 0.000000
H985  H     H_    0.906960 0.212291 0.950120 0.000000
H986  H     H_    0.935518 0.237442 0.930654 0.000000
H987  H     H_    0.919525 0.155776 0.182616 0.000000
H988  H     H_    0.955971 0.156773 0.251949 0.000000
H989  H     H_    0.994995 0.191227 0.227249 0.000000
H990  H     H_    0.997567 0.225520 0.137468 0.000000
C892  C     C_3   0.909696 0.827349 0.026211 0.000000
N298  N     N_3   0.904282 0.847227 0.047054 0.000000
C893  C     C_3   0.924265 0.863922 0.096649 0.000000
C894  C     C_R   0.932605 0.889857 0.070148 0.000000
N299  N     N_R   0.917612 0.900750 0.052023 0.000000
C895  C     C_R   0.932818 0.922759 0.024007 0.000000
C896  C     C_R   0.927255 0.941124 0.997398 0.000000
C897  C     C_R   0.945564 0.963463 0.978767 0.000000
C898  C     C_R   0.968919 0.966874 0.986845 0.000000
C899  C     C_R   0.973981 0.947976 0.012474 0.000000
C900  C     C_R   0.955710 0.925578 0.028857 0.000000
N300  N     N_R   0.956595 0.904881 0.057263 0.000000
H991  H     H_    0.894215 0.813300 0.992883 0.000000
H992  H     H_    0.925164 0.833568 0.983986 0.000000
H993  H     H_    0.913532 0.819160 0.084569 0.000000
H994  H     H_    0.889847 0.840030 0.087185 0.000000
H995  H     H_    0.919691 0.860866 0.163635 0.000000
H996  H     H_    0.939036 0.859881 0.085228 0.000000
H997  H     H_    0.909165 0.938736 0.996819 0.000000
H998  H     H_    0.941759 0.978538 0.961446 0.000000
H999  H     H_    0.983343 0.984628 0.976007 0.000000
H1000 H     H_    0.991927 0.951935 0.027041 0.000000
C901  C     C_3   0.909910 0.958899 0.806339 0.000000
N301  N     N_3   0.904505 0.933398 0.807632 0.000000
C902  C     C_3   0.881524 0.919791 0.846795 0.000000
C903  C     C_R   0.876662 0.894329 0.860232 0.000000
N302  N     N_R   0.875294 0.880603 0.792647 0.000000
C904  C     C_R   0.869669 0.858760 0.828665 0.000000
C905  C     C_R   0.869665 0.838806 0.792816 0.000000
C906  C     C_R   0.861946 0.817687 0.840654 0.000000
C907  C     C_R   0.855441 0.817256 0.923449 0.000000
C908  C     C_R   0.858323 0.838294 0.960786 0.000000
C909  C     C_R   0.865814 0.858996 0.912310 0.000000
N303  N     N_R   0.871130 0.881574 0.936466 0.000000
H1001 H     H_    0.928865 0.969847 0.789536 0.000000
H1002 H     H_    0.898242 0.962328 0.758554 0.000000
H1003 H     H_    0.906923 0.964453 0.868660 0.000000
H1004 H     H_    0.917757 0.930696 0.841627 0.000000
H1005 H     H_    0.879931 0.927594 0.906303 0.000000
H1006 H     H_    0.867865 0.919497 0.800611 0.000000
H1007 H     H_    0.874781 0.839163 0.728567 0.000000
H1008 H     H_    0.860803 0.801427 0.813236 0.000000
H1009 H     H_    0.849200 0.800609 0.960221 0.000000
H1010 H     H_    0.854862 0.838270 0.025960 0.000000
C910  C     C_3   0.794172 0.862226 0.089045 0.000000
N304  N     N_3   0.814199 0.881374 0.131937 0.000000
C911  C     C_3   0.828730 0.898474 0.068742 0.000000
C912  C     C_R   0.850435 0.918427 0.106407 0.000000
N305  N     N_R   0.849581 0.936729 0.151847 0.000000
C913  C     C_R   0.872035 0.948315 0.181981 0.000000
C914  C     C_R   0.880181 0.966097 0.240800 0.000000
C915  C     C_R   0.904592 0.978800 0.253313 0.000000
C916  C     C_R   0.919764 0.971161 0.217663 0.000000
C917  C     C_R   0.910832 0.951017 0.168536 0.000000
C918  C     C_R   0.886421 0.939503 0.149280 0.000000
N306  N     N_R   0.873073 0.919567 0.102298 0.000000
H1011 H     H_    0.783102 0.848445 0.136016 0.000000
H1012 H     H_    0.783163 0.869798 0.055117 0.000000
H1013 H     H_    0.800540 0.853686 0.042130 0.000000
H1014 H     H_    0.824758 0.874158 0.162141 0.000000
H1015 H     H_    0.834601 0.888806 0.024402 0.000000
H1016 H     H_    0.817741 0.906426 0.037190 0.000000
H1017 H     H_    0.868073 0.971557 0.270401 0.000000
H1018 H     H_    0.912092 0.994929 0.290101 0.000000
H1019 H     H_    0.938810 0.980705 0.229955 0.000000
H1020 H     H_    0.923712 0.945465 0.148205 0.000000
C919  C     C_3   0.421216 0.882254 0.567531 0.000000
N307  N     N_3   0.433957 0.905632 0.606492 0.000000
C920  C     C_3   0.447391 0.923477 0.542996 0.000000
C921  C     C_R   0.460719 0.948276 0.576881 0.000000
N308  N     N_R   0.448577 0.962231 0.580897 0.000000
C922  C     C_R   0.466336 0.984990 0.573436 0.000000
C923  C     C_R   0.465090 0.006458 0.554060 0.000000
C924  C     C_R   0.485280 0.027724 0.548312 0.000000
C925  C     C_R   0.506835 0.027267 0.547275 0.000000
C926  C     C_R   0.507058 0.005224 0.544159 0.000000
C927  C     C_R   0.487652 0.984587 0.568469 0.000000
N309  N     N_R   0.485468 0.961819 0.572594 0.000000
H1021 H     H_    0.412896 0.868190 0.617328 0.000000
H1022 H     H_    0.406870 0.882474 0.524496 0.000000
H1023 H     H_    0.433644 0.877845 0.531593 0.000000
H1024 H     H_    0.445190 0.904810 0.654973 0.000000
H1025 H     H_    0.459136 0.918234 0.507073 0.000000
H1026 H     H_    0.433684 0.924534 0.500441 0.000000
H1027 H     H_    0.449534 0.008079 0.538009 0.000000
H1028 H     H_    0.483774 0.044071 0.532427 0.000000
H1029 H     H_    0.522583 0.043520 0.532272 0.000000
H1030 H     H_    0.521978 0.004694 0.516942 0.000000
C928  C     C_3   0.572252 0.955838 0.396878 0.000000
N310  N     N_3   0.561605 0.965483 0.456009 0.000000
C929  C     C_3   0.579872 0.988278 0.485912 0.000000
C930  C     C_R   0.569871 0.001034 0.538284 0.000000
N311  N     N_R   0.547840 0.989625 0.575750 0.000000
C931  C     C_R   0.549122 0.006046 0.632229 0.000000
C932  C     C_R   0.532347 0.003858 0.690322 0.000000
C933  C     C_R   0.534419 0.024621 0.727428 0.000000
C934  C     C_R   0.554963 0.045981 0.717417 0.000000
C935  C     C_R   0.573479 0.046587 0.670780 0.000000
C936  C     C_R   0.569532 0.026866 0.623222 0.000000
N312  N     N_R   0.583824 0.024189 0.566457 0.000000
H1031 H     H_    0.590476 0.959269 0.417316 0.000000
H1032 H     H_    0.561274 0.936081 0.392824 0.000000
H1033 H     H_    0.573459 0.964572 0.334374 0.000000
H1034 H     H_    0.555806 0.953109 0.506096 0.000000
H1035 H     H_    0.593337 0.985131 0.524925 0.000000
H1036 H     H_    0.588238 0.999705 0.431184 0.000000
H1037 H     H_    0.516779 0.987075 0.700048 0.000000
H1038 H     H_    0.520169 0.024158 0.765224 0.000000
H1039 H     H_    0.557095 0.061906 0.749957 0.000000
H1040 H     H_    0.590456 0.062062 0.674470 0.000000
C937  C     C_3   0.497673 0.009943 0.356312 0.000000
N313  N     N_3   0.495276 0.985617 0.376176 0.000000
C938  C     C_3   0.517163 0.984115 0.358306 0.000000
C939  C     C_R   0.514284 0.958920 0.363606 0.000000
N314  N     N_R   0.513415 0.946412 0.438050 0.000000
C940  C     C_R   0.509593 0.924529 0.411016 0.000000
C941  C     C_R   0.508083 0.904904 0.458059 0.000000
C942  C     C_R   0.503029 0.883750 0.417061 0.000000
C943  C     C_R   0.500322 0.882848 0.330048 0.000000
C944  C     C_R   0.503362 0.903280 0.283212 0.000000
C945  C     C_R   0.508515 0.924150 0.325292 0.000000
N315  N     N_R   0.513087 0.946238 0.292832 0.000000
H1041 H     H_    0.480503 0.010555 0.366999 0.000000
H1042 H     H_    0.511824 0.023586 0.394045 0.000000
H1043 H     H_    0.503113 0.015882 0.291593 0.000000
H1044 H     H_    0.483186 0.974638 0.332308 0.000000
H1045 H     H_    0.521403 0.989949 0.292579 0.000000
H1046 H     H_    0.531736 0.995023 0.401982 0.000000
H1047 H     H_    0.511484 0.906079 0.524496 0.000000
H1048 H     H_    0.501338 0.867859 0.452822 0.000000
H1049 H     H_    0.496475 0.866268 0.298488 0.000000
H1050 H     H_    0.502252 0.902638 0.215862 0.000000
C946  C     C_3   0.237929 0.712864 0.431519 0.000000
N316  N     N_3   0.218740 0.688371 0.433596 0.000000
C947  C     C_3   0.196215 0.688817 0.454263 0.000000
C948  C     C_R   0.190507 0.684369 0.546288 0.000000
N317  N     N_R   0.196125 0.667440 0.588478 0.000000
C949  C     C_R   0.213877 0.681679 0.641228 0.000000
C950  C     C_R   0.233252 0.677959 0.668380 0.000000
C951  C     C_R   0.252822 0.696823 0.703793 0.000000
C952  C     C_R   0.253617 0.719533 0.706101 0.000000
C953  C     C_R   0.234971 0.723570 0.671765 0.000000
C954  C     C_R   0.214788 0.704196 0.642286 0.000000
N318  N     N_R   0.197628 0.705369 0.590374 0.000000
H1051 H     H_    0.254866 0.712184 0.416537 0.000000
H1052 H     H_    0.234311 0.724147 0.382484 0.000000
H1053 H     H_    0.240256 0.721259 0.493625 0.000000
H1054 H     H_    0.223905 0.678836 0.478445 0.000000
H1055 H     H_    0.199070 0.707270 0.441189 0.000000
H1056 H     H_    0.181711 0.677020 0.412475 0.000000
H1057 H     H_    0.234334 0.661494 0.656787 0.000000
H1058 H     H_    0.268272 0.694225 0.724463 0.000000
H1059 H     H_    0.269669 0.734528 0.728729 0.000000
H1060 H     H_    0.237590 0.741867 0.661074 0.000000
C955  C     C_3   0.189454 0.804693 0.500622 0.000000
N319  N     N_3   0.176691 0.785449 0.561512 0.000000
C956  C     C_3   0.157093 0.766801 0.517007 0.000000
C957  C     C_R   0.144870 0.744965 0.571302 0.000000
N320  N     N_R   0.154614 0.728987 0.586653 0.000000
C958  C     C_R   0.135159 0.708001 0.600898 0.000000
C959  C     C_R   0.133691 0.685152 0.598293 0.000000
C960  C     C_R   0.111296 0.666032 0.586891 0.000000
C961  C     C_R   0.090978 0.669790 0.581914 0.000000
C962  C     C_R   0.092998 0.692901 0.585986 0.000000
C963  C     C_R   0.115037 0.711615 0.596889 0.000000
N321  N     N_R   0.120454 0.734989 0.581398 0.000000
H1061 H     H_    0.202688 0.800727 0.468006 0.000000
H1062 H     H_    0.176859 0.806531 0.453619 0.000000
H1063 H     H_    0.198673 0.822039 0.533274 0.000000
H1064 H     H_    0.169354 0.792130 0.605392 0.000000
H1065 H     H_    0.143617 0.772680 0.494562 0.000000
H1066 H     H_    0.164325 0.762644 0.461180 0.000000
H1067 H     H_    0.149448 0.682285 0.596436 0.000000
H1068 H     H_    0.109614 0.648312 0.574675 0.000000
H1069 H     H_    0.073748 0.654877 0.569114 0.000000
H1070 H     H_    0.078238 0.696833 0.571467 0.000000
C964  C     C_3   0.122607 0.693775 0.387780 0.000000
N322  N     N_3   0.142055 0.717361 0.370326 0.000000
C965  C     C_3   0.164034 0.715806 0.394073 0.000000
C966  C     C_R   0.185637 0.739458 0.390270 0.000000
N323  N     N_R   0.197574 0.750326 0.317714 0.000000
C967  C     C_R   0.218587 0.767390 0.348184 0.000000
C968  C     C_R   0.237420 0.784777 0.305417 0.000000
C969  C     C_R   0.258464 0.797879 0.350279 0.000000
C970  C     C_R   0.260469 0.793035 0.435615 0.000000
C971  C     C_R   0.240832 0.776368 0.478137 0.000000
C972  C     C_R   0.219769 0.765232 0.433524 0.000000
N324  N     N_R   0.198943 0.748492 0.462226 0.000000
H1071 H     H_    0.109106 0.688946 0.336660 0.000000
H1072 H     H_    0.129081 0.679740 0.396019 0.000000
H1073 H     H_    0.113663 0.694616 0.444092 0.000000
H1074 H     H_    0.139655 0.728992 0.410005 0.000000
H1075 H     H_    0.162596 0.708604 0.459300 0.000000
H1076 H     H_    0.166835 0.703412 0.353042 0.000000
H1077 H     H_    0.235895 0.789078 0.240198 0.000000
H1078 H     H_    0.273632 0.811579 0.318140 0.000000
H1079 H     H_    0.277314 0.802579 0.469162 0.000000
H1080 H     H_    0.242101 0.771771 0.543762 0.000000
C973  C     C_3   0.460083 0.614978 0.295282 0.000000
N325  N     N_3   0.448449 0.630873 0.291427 0.000000
C974  C     C_3   0.430731 0.622587 0.356024 0.000000
C975  C     C_R   0.411524 0.630536 0.339336 0.000000
N326  N     N_R   0.401885 0.636540 0.405702 0.000000
C976  C     C_R   0.385905 0.643082 0.367248 0.000000
C977  C     C_R   0.373193 0.653765 0.402365 0.000000
C978  C     C_R   0.356247 0.657124 0.351860 0.000000
C979  C     C_R   0.352427 0.649852 0.268559 0.000000
C980  C     C_R   0.366380 0.640361 0.233384 0.000000
C981  C     C_R   0.384001 0.638354 0.283438 0.000000
N327  N     N_R   0.401038 0.631737 0.261629 0.000000
H1081 H     H_    0.475619 0.621990 0.253253 0.000000
H1082 H     H_    0.466217 0.613539 0.360902 0.000000
H1083 H     H_    0.447347 0.597136 0.273004 0.000000
H1084 H     H_    0.439826 0.628696 0.233403 0.000000
H1085 H     H_    0.422729 0.602732 0.362561 0.000000
H1086 H     H_    0.439896 0.630440 0.416184 0.000000
H1087 H     H_    0.375948 0.658917 0.467688 0.000000
H1088 H     H_    0.345582 0.665010 0.377865 0.000000
H1089 H     H_    0.338787 0.652114 0.230315 0.000000
H1090 H     H_    0.363743 0.635286 0.168199 0.000000
C982  C     C_3   0.338985 0.554867 0.462496 0.000000
N328  N     N_3   0.359990 0.562970 0.519297 0.000000
C983  C     C_3   0.381465 0.571641 0.469429 0.000000
C984  C     C_R   0.403422 0.580600 0.524004 0.000000
N329  N     N_R   0.416699 0.604637 0.542204 0.000000
C985  C     C_R   0.436406 0.604763 0.580109 0.000000
C986  C     C_R   0.458228 0.623985 0.592740 0.000000
C987  C     C_R   0.475560 0.619911 0.637510 0.000000
C988  C     C_R   0.470425 0.597185 0.670803 0.000000
C989  C     C_R   0.449384 0.577740 0.647620 0.000000
C990  C     C_R   0.433907 0.581944 0.592673 0.000000
N330  N     N_R   0.414139 0.566132 0.551176 0.000000
H1091 H     H_    0.323029 0.553203 0.495206 0.000000
H1092 H     H_    0.341918 0.567800 0.409139 0.000000
H1093 H     H_    0.334395 0.536826 0.438879 0.000000
H1094 H     H_    0.358950 0.548011 0.554999 0.000000
H1095 H     H_    0.381421 0.556711 0.433870 0.000000
H1096 H     H_    0.382285 0.586305 0.425575 0.000000
H1097 H     H_    0.462421 0.641398 0.564475 0.000000
H1098 H     H_    0.493034 0.634480 0.647142 0.000000
H1099 H     H_    0.483596 0.594347 0.709917 0.000000
H1100 H     H_    0.446093 0.560014 0.670949 0.000000
C991  C     C_3   0.432248 0.721101 0.403225 0.000000
N331  N     N_3   0.451555 0.714184 0.394301 0.000000
C992  C     C_3   0.443517 0.689320 0.424545 0.000000
C993  C     C_R   0.453856 0.686896 0.509019 0.000000
N332  N     N_R   0.474873 0.704138 0.546579 0.000000
C994  C     C_R   0.472182 0.696520 0.626988 0.000000
C995  C     C_R   0.487206 0.707977 0.693386 0.000000
C996  C     C_R   0.484829 0.695170 0.767608 0.000000
C997  C     C_R   0.468572 0.671228 0.771673 0.000000
C998  C     C_R   0.452610 0.660617 0.705341 0.000000
C999  C     C_R   0.453338 0.674327 0.635203 0.000000
N333  N     N_R   0.440551 0.667418 0.561748 0.000000
H1101 H     H_    0.438666 0.740407 0.384616 0.000000
H1102 H     H_    0.416813 0.710224 0.361533 0.000000
H1103 H     H_    0.426666 0.718661 0.469880 0.000000
H1104 H     H_    0.465706 0.725556 0.431722 0.000000
H1105 H     H_    0.424047 0.681534 0.432422 0.000000
H1106 H     H_    0.446944 0.678452 0.377943 0.000000
H1107 H     H_    0.501994 0.725422 0.686860 0.000000
H1108 H     H_    0.497013 0.703250 0.819901 0.000000
H1109 H     H_    0.468714 0.660940 0.827470 0.000000
H1110 H     H_    0.441148 0.641747 0.706271 0.000000
C1000 C     C_3   0.502418 0.647858 0.023121 0.000000
N334  N     N_3   0.491152 0.664040 0.029394 0.000000
C1001 C     C_3   0.481233 0.660814 0.112499 0.000000
C1002 C     C_R   0.467942 0.675610 0.124328 0.000000
N335  N     N_R   0.479135 0.700468 0.134452 0.000000
C1003 C     C_R   0.460692 0.704938 0.153910 0.000000
C1004 C     C_R   0.460702 0.727080 0.154761 0.000000
C1005 C     C_R   0.439740 0.728495 0.170612 0.000000
C1006 C     C_R   0.418841 0.707554 0.180254 0.000000
C1007 C     C_R   0.419000 0.685422 0.172181 0.000000
C1008 C     C_R   0.440192 0.684513 0.158834 0.000000
N336  N     N_R   0.443435 0.665281 0.137047 0.000000
H1111 H     H_    0.506004 0.646447 0.956129 0.000000
H1112 H     H_    0.519584 0.655122 0.059601 0.000000
H1113 H     H_    0.490839 0.629602 0.048642 0.000000
H1114 H     H_    0.478370 0.661149 0.981764 0.000000
H1115 H     H_    0.469138 0.641664 0.125181 0.000000
H1116 H     H_    0.496489 0.666468 0.156402 0.000000
H1117 H     H_    0.476201 0.742691 0.135992 0.000000
H1118 H     H_    0.439400 0.745856 0.170873 0.000000
H1119 H     H_    0.402115 0.708542 0.187665 0.000000
H1120 H     H_    0.402652 0.669791 0.163891 0.000000
C1009 C     C_3   0.566868 0.792734 0.287349 0.000000
N337  N     N_3   0.554810 0.769553 0.246266 0.000000
C1010 C     C_3   0.572983 0.763182 0.218357 0.000000
C1011 C     C_R   0.563696 0.741369 0.166288 0.000000
N338  N     N_R   0.540970 0.730588 0.130933 0.000000
C1012 C     C_R   0.543789 0.718366 0.067514 0.000000
C1013 C     C_R   0.528722 0.709200 0.999597 0.000000
C1014 C     C_R   0.535498 0.698211 0.938478 0.000000
C1015 C     C_R   0.557059 0.696884 0.946714 0.000000
C1016 C     C_R   0.572941 0.708455 0.010928 0.000000
C1017 C     C_R   0.566159 0.719843 0.069409 0.000000
N339  N     N_R   0.579511 0.734441 0.131209 0.000000
H1121 H     H_    0.553744 0.799545 0.302042 0.000000
H1122 H     H_    0.575772 0.790708 0.346673 0.000000
H1123 H     H_    0.580360 0.806237 0.245550 0.000000
H1124 H     H_    0.545991 0.772082 0.192970 0.000000
H1125 H     H_    0.585259 0.777846 0.177713 0.000000
H1126 H     H_    0.582171 0.760147 0.273887 0.000000
H1127 H     H_    0.511877 0.710010 0.994650 0.000000
H1128 H     H_    0.523632 0.689894 0.885687 0.000000
H1129 H     H_    0.562094 0.687587 0.901478 0.000000
H1130 H     H_    0.590437 0.709332 0.010963 0.000000
C1018 C     C_3   0.506672 0.672810 0.310239 0.000000
N340  N     N_3   0.512608 0.697670 0.285395 0.000000
C1019 C     C_3   0.498655 0.705406 0.336205 0.000000
C1020 C     C_R   0.507255 0.731893 0.330792 0.000000
N341  N     N_R   0.509487 0.744809 0.401846 0.000000
C1021 C     C_R   0.508885 0.765142 0.369960 0.000000
C1022 C     C_R   0.510778 0.785041 0.411811 0.000000
C1023 C     C_R   0.506512 0.802458 0.367315 0.000000
C1024 C     C_R   0.500211 0.799614 0.282587 0.000000
C1025 C     C_R   0.499977 0.780330 0.240414 0.000000
C1026 C     C_R   0.505758 0.763943 0.284551 0.000000
N342  N     N_R   0.506749 0.743947 0.256661 0.000000
H1131 H     H_    0.518694 0.666717 0.279421 0.000000
H1132 H     H_    0.507067 0.669790 0.379070 0.000000
H1133 H     H_    0.488243 0.661984 0.290258 0.000000
H1134 H     H_    0.530471 0.708501 0.297659 0.000000
H1135 H     H_    0.480129 0.696937 0.311556 0.000000
H1136 H     H_    0.499274 0.700082 0.403298 0.000000
H1137 H     H_    0.516521 0.788035 0.476112 0.000000
H1138 H     H_    0.507708 0.818151 0.399133 0.000000
H1139 H     H_    0.495970 0.812824 0.248742 0.000000
H1140 H     H_    0.494581 0.778265 0.175242 0.000000
C1027 C     C_3   0.425689 0.910862 0.334198 0.000000
N343  N     N_3   0.445253 0.933989 0.356815 0.000000
C1028 C     C_3   0.438516 0.953980 0.362974 0.000000
C1029 C     C_R   0.412727 0.945705 0.373829 0.000000
N344  N     N_R   0.397673 0.938718 0.304549 0.000000
C1030 C     C_R   0.376137 0.926451 0.341126 0.000000
C1031 C     C_R   0.353957 0.914616 0.303525 0.000000
C1032 C     C_R   0.334786 0.900801 0.353860 0.000000
C1033 C     C_R   0.337988 0.899204 0.440386 0.000000
C1034 C     C_R   0.360067 0.912712 0.478047 0.000000
C1035 C     C_R   0.378578 0.927042 0.427237 0.000000
N345  N     N_R   0.401374 0.940931 0.450981 0.000000
H1141 H     H_    0.433083 0.897624 0.327921 0.000000
H1142 H     H_    0.412019 0.903600 0.383552 0.000000
H1143 H     H_    0.417770 0.912403 0.272503 0.000000
H1144 H     H_    0.457845 0.938170 0.310154 0.000000
H1145 H     H_    0.448457 0.965582 0.415712 0.000000
H1146 H     H_    0.443122 0.964928 0.304258 0.000000
H1147 H     H_    0.351097 0.916396 0.237184 0.000000
H1148 H     H_    0.317222 0.890973 0.325354 0.000000
H1149 H     H_    0.323043 0.887736 0.478750 0.000000
H1150 H     H_    0.362770 0.911058 0.544816 0.000000
C1036 C     C_3   0.339027 0.956850 0.266628 0.000000
N346  N     N_3   0.358458 0.967516 0.207686 0.000000
C1037 C     C_3   0.380108 0.982566 0.254534 0.000000
C1038 C     C_R   0.399805 0.994886 0.195951 0.000000
N347  N     N_R   0.407641 0.018656 0.168048 0.000000
C1039 C     C_R   0.423105 0.020188 0.108441 0.000000
C1040 C     C_R   0.434739 0.038881 0.052950 0.000000
C1041 C     C_R   0.450576 0.037214 0.998644 0.000000
C1042 C     C_R   0.452509 0.015908 0.994414 0.000000
C1043 C     C_R   0.439089 0.996431 0.046150 0.000000
C1044 C     C_R   0.425214 0.999302 0.104543 0.000000
N348  N     N_R   0.410857 0.982703 0.159573 0.000000
H1151 H     H_    0.328353 0.937529 0.253726 0.000000
H1152 H     H_    0.345960 0.958894 0.332465 0.000000
H1153 H     H_    0.326956 0.965458 0.257505 0.000000
H1154 H     H_    0.354485 0.978764 0.165838 0.000000
H1155 H     H_    0.377984 0.996173 0.290053 0.000000
H1156 H     H_    0.384860 0.971389 0.299174 0.000000
H1157 H     H_    0.431618 0.054533 0.050822 0.000000
H1158 H     H_    0.461078 0.052461 0.958476 0.000000
H1159 H     H_    0.464790 0.014522 0.951372 0.000000
H1160 H     H_    0.440223 0.979679 0.042068 0.000000
C1045 C     C_3   0.502831 0.025396 0.111334 0.000000
N349  N     N_3   0.483433 0.001829 0.094054 0.000000
C1046 C     C_3   0.477400 0.987164 0.170657 0.000000
C1047 C     C_R   0.465662 0.961214 0.151879 0.000000
N350  N     N_R   0.479751 0.949444 0.139946 0.000000
C1048 C     C_R   0.463238 0.927019 0.122133 0.000000
C1049 C     C_R   0.467014 0.907264 0.105598 0.000000
C1050 C     C_R   0.447596 0.885827 0.086304 0.000000
C1051 C     C_R   0.424944 0.884685 0.081562 0.000000
C1052 C     C_R   0.421559 0.904706 0.099009 0.000000
C1053 C     C_R   0.440718 0.925474 0.123473 0.000000
N351  N     N_R   0.440945 0.946470 0.147408 0.000000
H1161 H     H_    0.506018 0.037253 0.054303 0.000000
H1162 H     H_    0.497823 0.033400 0.163651 0.000000
H1163 H     H_    0.519430 0.023913 0.129294 0.000000
H1164 H     H_    0.487988 0.993301 0.047800 0.000000
H1165 H     H_    0.494340 0.989601 0.200662 0.000000
H1166 H     H_    0.466276 0.992368 0.210301 0.000000
H1167 H     H_    0.484545 0.908286 0.104383 0.000000
H1168 H     H_    0.450205 0.870182 0.071849 0.000000
H1169 H     H_    0.409880 0.868195 0.062563 0.000000
H1170 H     H_    0.404647 0.904295 0.087551 0.000000
C1054 C     C_3   0.618448 0.202624 0.836336 0.000000
N352  N     N_3   0.642220 0.219105 0.866632 0.000000
C1055 C     C_3   0.644375 0.243198 0.851816 0.000000
C1056 C     C_R   0.669308 0.261266 0.852629 0.000000
N353  N     N_R   0.683133 0.269541 0.924405 0.000000
C1057 C     C_R   0.705368 0.281604 0.892214 0.000000
C1058 C     C_R   0.727086 0.287493 0.932822 0.000000
C1059 C     C_R   0.747772 0.298067 0.887106 0.000000
C1060 C     C_R   0.746465 0.299652 0.800202 0.000000
C1061 C     C_R   0.724480 0.289977 0.758878 0.000000
C1062 C     C_R   0.704158 0.281753 0.806090 0.000000
N354  N     N_R   0.681330 0.269355 0.779190 0.000000
H1171 H     H_    0.609990 0.188353 0.884291 0.000000
H1172 H     H_    0.606741 0.211808 0.825738 0.000000
H1173 H     H_    0.619811 0.194628 0.776701 0.000000
H1174 H     H_    0.654175 0.217220 0.826741 0.000000
H1175 H     H_    0.637509 0.243810 0.787597 0.000000
H1176 H     H_    0.635613 0.248057 0.901041 0.000000
H1177 H     H_    0.728248 0.282820 0.997988 0.000000
H1178 H     H_    0.764968 0.303512 0.918821 0.000000
H1179 H     H_    0.762675 0.306738 0.764629 0.000000
H1180 H     H_    0.723806 0.287828 0.692059 0.000000
C1063 C     C_3   0.729992 0.215202 0.725454 0.000000
N355  N     N_3   0.704098 0.205178 0.724305 0.000000
C1064 C     C_3   0.697566 0.223759 0.692073 0.000000
C1065 C     C_R   0.672169 0.212607 0.662868 0.000000
N356  N     N_R   0.659957 0.188568 0.641067 0.000000
C1066 C     C_R   0.639607 0.188046 0.606099 0.000000
C1067 C     C_R   0.623259 0.170640 0.556589 0.000000
C1068 C     C_R   0.604011 0.173527 0.521917 0.000000
C1069 C     C_R   0.602210 0.194676 0.533396 0.000000
C1070 C     C_R   0.620100 0.213222 0.576625 0.000000
C1071 C     C_R   0.638987 0.209718 0.611494 0.000000
N357  N     N_R   0.659737 0.226172 0.644949 0.000000
H1181 H     H_    0.735853 0.213199 0.662844 0.000000
H1182 H     H_    0.738032 0.234516 0.741739 0.000000
H1183 H     H_    0.736114 0.205310 0.772383 0.000000
H1184 H     H_    0.698514 0.201608 0.786362 0.000000
H1185 H     H_    0.700001 0.236554 0.742295 0.000000
H1186 H     H_    0.709082 0.233675 0.638736 0.000000
H1187 H     H_    0.626725 0.156124 0.537847 0.000000
H1188 H     H_    0.591000 0.159747 0.482392 0.000000
H1189 H     H_    0.587532 0.197244 0.504180 0.000000
H1190 H     H_    0.619262 0.229997 0.577366 0.000000
C1072 C     C_3   0.648525 0.308584 0.851750 0.000000
N358  N     N_3   0.644598 0.297257 0.770506 0.000000
C1073 C     C_3   0.621338 0.276378 0.770050 0.000000
C1074 C     C_R   0.616510 0.263005 0.690269 0.000000
N359  N     N_R   0.597767 0.264202 0.644323 0.000000
C1075 C     C_R   0.609304 0.277318 0.576133 0.000000
C1076 C     C_R   0.605735 0.296039 0.539101 0.000000
C1077 C     C_R   0.622738 0.312258 0.486320 0.000000
C1078 C     C_R   0.642979 0.309636 0.469594 0.000000
C1079 C     C_R   0.647573 0.292402 0.513330 0.000000
C1080 C     C_R   0.631399 0.277827 0.571596 0.000000
N360  N     N_R   0.636271 0.267610 0.641865 0.000000
H1191 H     H_    0.651114 0.296641 0.900490 0.000000
H1192 H     H_    0.633072 0.311907 0.867351 0.000000
H1193 H     H_    0.664854 0.326016 0.849662 0.000000
H1194 H     H_    0.657868 0.291738 0.764969 0.000000
H1195 H     H_    0.617439 0.265239 0.828189 0.000000
H1196 H     H_    0.608848 0.284042 0.765393 0.000000
H1197 H     H_    0.592029 0.300484 0.558709 0.000000
H1198 H     H_    0.620626 0.327647 0.460813 0.000000
H1199 H     H_    0.656154 0.322333 0.427559 0.000000
H1200 H     H_    0.664138 0.291938 0.504144 0.000000
C1081 C     C_3   0.619051 0.495728 0.873543 0.000000
N361  N     N_3   0.608997 0.513032 0.875254 0.000000
C1082 C     C_3   0.584227 0.503218 0.843606 0.000000
C1083 C     C_R   0.571834 0.477102 0.852347 0.000000
N362  N     N_R   0.564091 0.464739 0.926899 0.000000
C1084 C     C_R   0.553439 0.441521 0.902244 0.000000
C1085 C     C_R   0.539486 0.421151 0.948670 0.000000
C1086 C     C_R   0.530173 0.398911 0.911696 0.000000
C1087 C     C_R   0.531866 0.397581 0.825974 0.000000
C1088 C     C_R   0.542407 0.418543 0.777971 0.000000
C1089 C     C_R   0.554897 0.440400 0.817380 0.000000
N363  N     N_R   0.565772 0.463064 0.783108 0.000000
H1201 H     H_    0.638788 0.505674 0.880033 0.000000
H1202 H     H_    0.612803 0.482753 0.927684 0.000000
H1203 H     H_    0.614881 0.486240 0.813156 0.000000
H1204 H     H_    0.619216 0.527640 0.835960 0.000000
H1205 H     H_    0.573700 0.510917 0.874026 0.000000
H1206 H     H_    0.583741 0.507237 0.776689 0.000000
H1207 H     H_    0.535325 0.422167 0.012427 0.000000
H1208 H     H_    0.519936 0.382740 0.948527 0.000000
H1209 H     H_    0.522547 0.380414 0.795537 0.000000
H1210 H     H_    0.538583 0.417417 0.711645 0.000000
C1090 C     C_3   0.571884 0.563447 0.619331 0.000000
N364  N     N_3   0.581865 0.546777 0.602361 0.000000
C1091 C     C_3   0.599130 0.548568 0.668493 0.000000
C1092 C     C_R   0.612694 0.534656 0.648803 0.000000
N365  N     N_R   0.602698 0.509357 0.647691 0.000000
C1093 C     C_R   0.622662 0.506020 0.644879 0.000000
C1094 C     C_R   0.624263 0.484691 0.650521 0.000000
C1095 C     C_R   0.646484 0.484776 0.653801 0.000000
C1096 C     C_R   0.666871 0.506419 0.649514 0.000000
C1097 C     C_R   0.664903 0.527856 0.642953 0.000000
C1098 C     C_R   0.642727 0.527252 0.642435 0.000000
N366  N     N_R   0.637592 0.546164 0.645070 0.000000
H1211 H     H_    0.559363 0.562891 0.567040 0.000000
H1212 H     H_    0.562077 0.558116 0.679235 0.000000
H1213 H     H_    0.586224 0.582137 0.623645 0.000000
H1214 H     H_    0.590634 0.551914 0.545261 0.000000
H1215 H     H_    0.612173 0.567560 0.674017 0.000000
H1216 H     H_    0.589824 0.542237 0.728483 0.000000
H1217 H     H_    0.608514 0.468452 0.651541 0.000000
H1218 H     H_    0.647911 0.467931 0.658017 0.000000
H1219 H     H_    0.684278 0.506539 0.649490 0.000000
H1220 H     H_    0.680232 0.544493 0.633243 0.000000
C1099 C     C_3   0.491173 0.422158 0.794957 0.000000
N367  N     N_3   0.513156 0.442364 0.768871 0.000000
C1100 C     C_3   0.511686 0.465024 0.766972 0.000000
C1101 C     C_R   0.516655 0.476005 0.680798 0.000000
N368  N     N_R   0.538442 0.483083 0.641799 0.000000
C1102 C     C_R   0.535646 0.494813 0.572416 0.000000
C1103 C     C_R   0.552042 0.506342 0.511380 0.000000
C1104 C     C_R   0.546527 0.519844 0.450390 0.000000
C1105 C     C_R   0.524152 0.519590 0.447292 0.000000
C1106 C     C_R   0.507082 0.505919 0.504982 0.000000
C1107 C     C_R   0.513573 0.494485 0.569284 0.000000
N369  N     N_R   0.500408 0.481891 0.635476 0.000000
H1221 H     H_    0.494895 0.407267 0.820131 0.000000
H1222 H     H_    0.482996 0.427300 0.845424 0.000000
H1223 H     H_    0.479007 0.414907 0.740488 0.000000
H1224 H     H_    0.516541 0.439566 0.708083 0.000000
H1225 H     H_    0.494012 0.462367 0.784696 0.000000
H1226 H     H_    0.525105 0.477406 0.812032 0.000000
H1227 H     H_    0.569578 0.506863 0.515555 0.000000
H1228 H     H_    0.559773 0.530879 0.405503 0.000000
H1229 H     H_    0.520012 0.530222 0.399817 0.000000
H1230 H     H_    0.489604 0.505282 0.501700 0.000000
C1108 C     C_3   0.184201 0.554151 0.288935 0.000000
N370  N     N_3   0.160498 0.551862 0.263179 0.000000
C1109 C     C_3   0.160583 0.575185 0.268425 0.000000
C1110 C     C_R   0.147342 0.581416 0.197439 0.000000
N371  N     N_R   0.158074 0.603800 0.158256 0.000000
C1111 C     C_R   0.140536 0.604711 0.109297 0.000000
C1112 C     C_R   0.142014 0.623511 0.056580 0.000000
C1113 C     C_R   0.120866 0.624381 0.032248 0.000000
C1114 C     C_R   0.099615 0.608148 0.068005 0.000000
C1115 C     C_R   0.098924 0.589336 0.120355 0.000000
C1116 C     C_R   0.119336 0.586060 0.130207 0.000000
N372  N     N_R   0.123004 0.569206 0.177971 0.000000
H1231 H     H_    0.182809 0.536120 0.308098 0.000000
H1232 H     H_    0.196919 0.561507 0.237442 0.000000
H1233 H     H_    0.192019 0.566636 0.341899 0.000000
H1234 H     H_    0.149257 0.541916 0.311462 0.000000
H1235 H     H_    0.152968 0.575537 0.328745 0.000000
H1236 H     H_    0.179135 0.589141 0.269143 0.000000
H1237 H     H_    0.159080 0.637918 0.039556 0.000000
H1238 H     H_    0.121111 0.638884 0.991545 0.000000
H1239 H     H_    0.083484 0.610318 0.055446 0.000000
H1240 H     H_    0.082432 0.577279 0.149333 0.000000
C1117 C     C_3   0.177543 0.551248 0.074800 0.000000
N373  N     N_3   0.192185 0.573858 0.032876 0.000000
C1118 C     C_3   0.205710 0.591033 0.095375 0.000000
C1119 C     C_R   0.214877 0.614688 0.053951 0.000000
N374  N     N_R   0.228131 0.619958 0.981566 0.000000
C1120 C     C_R   0.235583 0.643980 0.974277 0.000000
C1121 C     C_R   0.252467 0.659971 0.921416 0.000000
C1122 C     C_R   0.255860 0.683679 0.919245 0.000000
C1123 C     C_R   0.241184 0.690287 0.964738 0.000000
C1124 C     C_R   0.224889 0.673935 0.019924 0.000000
C1125 C     C_R   0.224332 0.651596 0.030244 0.000000
N375  N     N_R   0.211413 0.633588 0.084737 0.000000
H1241 H     H_    0.168409 0.537975 0.026486 0.000000
H1242 H     H_    0.188641 0.544828 0.114245 0.000000
H1243 H     H_    0.164024 0.553191 0.111634 0.000000
H1244 H     H_    0.181270 0.580658 0.002952 0.000000
H1245 H     H_    0.194244 0.590768 0.146181 0.000000
H1246 H     H_    0.220744 0.587497 0.120403 0.000000
H1247 H     H_    0.263625 0.654590 0.886506 0.000000
H1248 H     H_    0.269393 0.696911 0.879738 0.000000
H1249 H     H_    0.242804 0.708429 0.958105 0.000000
H1250 H     H_    0.212426 0.678317 0.050827 0.000000
C1126 C     C_3   0.124603 0.624307 0.409757 0.000000
N376  N     N_3   0.150553 0.636426 0.404831 0.000000
C1127 C     C_3   0.158695 0.619151 0.377704 0.000000
C1128 C     C_R   0.185187 0.628892 0.376036 0.000000
N377  N     N_R   0.198061 0.631624 0.304009 0.000000
C1129 C     C_R   0.219982 0.636172 0.335073 0.000000
C1130 C     C_R   0.239944 0.639969 0.291105 0.000000
C1131 C     C_R   0.261048 0.645579 0.336706 0.000000
C1132 C     C_R   0.261831 0.647633 0.423864 0.000000
C1133 C     C_R   0.241399 0.643509 0.466912 0.000000
C1134 C     C_R   0.220445 0.637113 0.420799 0.000000
N378  N     N_R   0.198418 0.631839 0.448922 0.000000
H1251 H     H_    0.117689 0.637823 0.417731 0.000000
H1252 H     H_    0.116555 0.614104 0.352114 0.000000
H1253 H     H_    0.119137 0.611505 0.463952 0.000000
H1254 H     H_    0.156883 0.640762 0.466606 0.000000
H1255 H     H_    0.151696 0.603773 0.420176 0.000000
H1256 H     H_    0.151241 0.611783 0.317285 0.000000
H1257 H     H_    0.239369 0.638818 0.223334 0.000000
H1258 H     H_    0.277143 0.648780 0.304115 0.000000
H1259 H     H_    0.278539 0.652442 0.458386 0.000000
H1260 H     H_    0.242060 0.645244 0.534392 0.000000
C1135 C     C_3   0.259824 0.698663 0.199954 0.000000
N379  N     N_3   0.233983 0.685454 0.206993 0.000000
C1136 C     C_3   0.224111 0.702550 0.191008 0.000000
C1137 C     C_R   0.197601 0.690457 0.184771 0.000000
N380  N     N_R   0.183710 0.665538 0.183864 0.000000
C1138 C     C_R   0.161727 0.663920 0.196374 0.000000
C1139 C     C_R   0.140952 0.644063 0.215613 0.000000
C1140 C     C_R   0.119777 0.645608 0.218155 0.000000
C1141 C     C_R   0.120209 0.667719 0.213927 0.000000
C1142 C     C_R   0.141772 0.687670 0.216145 0.000000
C1143 C     C_R   0.162260 0.685872 0.199593 0.000000
N381  N     N_R   0.184634 0.703637 0.191552 0.000000
H1261 H     H_    0.268212 0.686423 0.215193 0.000000
H1262 H     H_    0.264550 0.705914 0.134790 0.000000
H1263 H     H_    0.266913 0.713742 0.244725 0.000000
H1264 H     H_    0.230777 0.680266 0.270199 0.000000
H1265 H     H_    0.228833 0.714422 0.245399 0.000000
H1266 H     H_    0.231218 0.713113 0.132193 0.000000
H1267 H     H_    0.140123 0.627113 0.226113 0.000000
H1268 H     H_    0.103086 0.629702 0.227034 0.000000
H1269 H     H_    0.103899 0.669321 0.216505 0.000000
H1270 H     H_    0.142029 0.704108 0.232070 0.000000
C1144 C     C_3   0.885942 0.634040 0.777658 0.000000
N382  N     N_3   0.898892 0.627646 0.716620 0.000000
C1145 C     C_3   0.923458 0.645783 0.717628 0.000000
C1146 C     C_R   0.939522 0.636215 0.684588 0.000000
N383  N     N_R   0.931396 0.612988 0.653469 0.000000
C1147 C     C_R   0.951442 0.615133 0.613962 0.000000
C1148 C     C_R   0.954452 0.599456 0.560978 0.000000
C1149 C     C_R   0.976316 0.606299 0.523971 0.000000
C1150 C     C_R   0.994863 0.628891 0.536918 0.000000
C1151 C     C_R   0.991622 0.644910 0.586993 0.000000
C1152 C     C_R   0.970104 0.637627 0.625325 0.000000
N384  N     N_R   0.963474 0.651485 0.670509 0.000000
H1271 H     H_    0.888865 0.627935 0.841361 0.000000
H1272 H     H_    0.892121 0.653796 0.777439 0.000000
H1273 H     H_    0.866533 0.624946 0.762034 0.000000
H1274 H     H_    0.891795 0.628917 0.657276 0.000000
H1275 H     H_    0.924491 0.660487 0.674446 0.000000
H1276 H     H_    0.929371 0.652597 0.782112 0.000000
H1277 H     H_    0.940675 0.582093 0.546354 0.000000
H1278 H     H_    0.978777 0.593990 0.483075 0.000000
H1279 H     H_    0.011678 0.634183 0.506125 0.000000
H1280 H     H_    0.005430 0.662902 0.593564 0.000000
C1153 C     C_3   0.962682 0.562414 0.748441 0.000000
N385  N     N_3   0.941206 0.563095 0.711052 0.000000
C1154 C     C_3   0.920511 0.541866 0.738772 0.000000
C1155 C     C_R   0.900874 0.532734 0.674482 0.000000
N386  N     N_R   0.890382 0.547045 0.641954 0.000000
C1156 C     C_R   0.870369 0.530252 0.604413 0.000000
C1157 C     C_R   0.852303 0.533362 0.563193 0.000000
C1158 C     C_R   0.831207 0.513306 0.543866 0.000000
C1159 C     C_R   0.828768 0.490462 0.563410 0.000000
C1160 C     C_R   0.847699 0.487564 0.599748 0.000000
C1161 C     C_R   0.868623 0.507636 0.616695 0.000000
N387  N     N_R   0.888051 0.508090 0.657247 0.000000
H1281 H     H_    0.977518 0.580909 0.748194 0.000000
H1282 H     H_    0.959569 0.555047 0.814088 0.000000
H1283 H     H_    0.968472 0.551414 0.710539 0.000000
H1284 H     H_    0.941979 0.560500 0.648202 0.000000
H1285 H     H_    0.926199 0.528224 0.748900 0.000000
H1286 H     H_    0.913636 0.545156 0.796979 0.000000
H1287 H     H_    0.854724 0.550811 0.544382 0.000000
H1288 H     H_    0.816146 0.515158 0.515233 0.000000
H1289 H     H_    0.812098 0.474890 0.549838 0.000000
H1290 H     H_    0.845492 0.469881 0.615781 0.000000
C1162 C     C_3   0.959755 0.606610 0.850530 0.000000
N388  N     N_3   0.939159 0.608947 0.880403 0.000000
C1163 C     C_3   0.919365 0.586673 0.855863 0.000000
C1164 C     C_R   0.896068 0.587035 0.855757 0.000000
N389  N     N_R   0.882775 0.583072 0.927433 0.000000
C1165 C     C_R   0.860414 0.575194 0.895417 0.000000
C1166 C     C_R   0.839590 0.565802 0.939274 0.000000
C1167 C     C_R   0.818239 0.555708 0.893665 0.000000
C1168 C     C_R   0.818265 0.553583 0.806851 0.000000
C1169 C     C_R   0.839626 0.562400 0.764526 0.000000
C1170 C     C_R   0.860397 0.574163 0.809576 0.000000
N390  N     N_R   0.882831 0.582114 0.781708 0.000000
H1291 H     H_    0.975911 0.617419 0.886439 0.000000
H1292 H     H_    0.957031 0.587942 0.861952 0.000000
H1293 H     H_    0.962576 0.611772 0.783155 0.000000
H1294 H     H_    0.937836 0.623130 0.847233 0.000000
H1295 H     H_    0.921852 0.583760 0.789885 0.000000
H1296 H     H_    0.918557 0.571571 0.897145 0.000000
H1297 H     H_    0.839798 0.565030 0.007157 0.000000
H1298 H     H_    0.801494 0.547965 0.926340 0.000000
H1299 H     H_    0.801505 0.543950 0.773112 0.000000
H1300 H     H_    0.840358 0.558796 0.699704 0.000000
C1171 C     C_3   0.353972 0.554030 0.259990 0.000000
N391  N     N_3   0.372131 0.554028 0.206068 0.000000
C1172 C     C_3   0.394822 0.573106 0.230907 0.000000
C1173 C     C_R   0.410091 0.580576 0.156511 0.000000
N392  N     N_R   0.416249 0.565143 0.114350 0.000000
C1174 C     C_R   0.428224 0.578827 0.048637 0.000000
C1175 C     C_R   0.438349 0.572535 0.984857 0.000000
C1176 C     C_R   0.452225 0.590320 0.928822 0.000000
C1177 C     C_R   0.453063 0.612996 0.931472 0.000000
C1178 C     C_R   0.441055 0.618425 0.992951 0.000000
C1179 C     C_R   0.429408 0.601174 0.052049 0.000000
N393  N     N_R   0.417837 0.603055 0.118920 0.000000
H1301 H     H_    0.353253 0.571667 0.256575 0.000000
H1302 H     H_    0.336338 0.539580 0.241948 0.000000
H1303 H     H_    0.358219 0.550017 0.323861 0.000000
H1304 H     H_    0.368629 0.558601 0.145395 0.000000
H1305 H     H_    0.392241 0.588533 0.251397 0.000000
H1306 H     H_    0.403185 0.566825 0.282702 0.000000
H1307 H     H_    0.436420 0.554627 0.980086 0.000000
H1308 H     H_    0.461565 0.586250 0.880391 0.000000
H1309 H     H_    0.463442 0.626369 0.885422 0.000000
H1310 H     H_    0.441401 0.635901 0.997433 0.000000
C1180 C     C_3   0.135400 0.988837 0.814865 0.000000
N394  N     N_3   0.145982 0.972054 0.825142 0.000000
C1181 C     C_3   0.159515 0.974725 0.904506 0.000000
C1182 C     C_R   0.174028 0.961981 0.898674 0.000000
N395  N     N_R   0.163632 0.937604 0.891884 0.000000
C1183 C     C_R   0.182509 0.932974 0.882547 0.000000
C1184 C     C_R   0.182907 0.912604 0.852546 0.000000
C1185 C     C_R   0.204978 0.912849 0.843864 0.000000
C1186 C     C_R   0.225199 0.931264 0.878831 0.000000
C1187 C     C_R   0.224049 0.951569 0.907533 0.000000
C1188 C     C_R   0.203131 0.953398 0.893377 0.000000
N396  N     N_R   0.198640 0.972888 0.896787 0.000000
H1311 H     H_    0.145107 0.003336 0.768877 0.000000
H1312 H     H_    0.117491 0.979991 0.787336 0.000000
H1313 H     H_    0.134533 0.996034 0.876275 0.000000
H1314 H     H_    0.157341 0.974952 0.775451 0.000000
H1315 H     H_    0.172485 0.992493 0.918789 0.000000
H1316 H     H_    0.147960 0.967712 0.958544 0.000000
H1317 H     H_    0.167069 0.897910 0.828468 0.000000
H1318 H     H_    0.206209 0.897773 0.815683 0.000000
H1319 H     H_    0.241993 0.930031 0.881629 0.000000
H1320 H     H_    0.239158 0.965393 0.938722 0.000000
C1189 C     C_3   0.094263 0.989375 0.950380 0.000000
N397  N     N_3   0.107182 0.979782 0.007045 0.000000
C1190 C     C_3   0.101613 0.955839 0.980059 0.000000
C1191 C     C_R   0.111058 0.942332 0.038111 0.000000
N398  N     N_R   0.115085 0.923358 0.009480 0.000000
C1192 C     C_R   0.108483 0.907878 0.076137 0.000000
C1193 C     C_R   0.102401 0.883765 0.076094 0.000000
C1194 C     C_R   0.094931 0.870432 0.150329 0.000000
C1195 C     C_R   0.089867 0.880337 0.218646 0.000000
C1196 C     C_R   0.092324 0.903582 0.212537 0.000000
C1197 C     C_R   0.102874 0.917593 0.142325 0.000000
N399  N     N_R   0.105144 0.939905 0.121515 0.000000
H1321 H     H_    0.103302 0.009372 0.950405 0.000000
H1322 H     H_    0.093426 0.983477 0.885287 0.000000
H1323 H     H_    0.075598 0.982751 0.971197 0.000000
H1324 H     H_    0.097868 0.976370 0.062282 0.000000
H1325 H     H_    0.082096 0.946094 0.982235 0.000000
H1326 H     H_    0.108080 0.956465 0.917115 0.000000
H1327 H     H_    0.101857 0.875058 0.018565 0.000000
H1328 H     H_    0.091729 0.851849 0.154341 0.000000
H1329 H     H_    0.082287 0.869312 0.274274 0.000000
H1330 H     H_    0.084857 0.909823 0.260660 0.000000
C1198 C     C_3   0.162118 0.891639 0.134721 0.000000
N400  N     N_3   0.156401 0.892315 0.045216 0.000000
C1199 C     C_3   0.141866 0.867701 0.018408 0.000000
C1200 C     C_R   0.134897 0.866914 0.925754 0.000000
N401  N     N_R   0.124378 0.880804 0.889899 0.000000
C1201 C     C_R   0.110469 0.866792 0.827139 0.000000
C1202 C     C_R   0.090587 0.867569 0.788778 0.000000
C1203 C     C_R   0.074548 0.848144 0.744232 0.000000
C1204 C     C_R   0.077040 0.827217 0.744994 0.000000
C1205 C     C_R   0.095926 0.826145 0.789099 0.000000
C1206 C     C_R   0.113714 0.846618 0.822410 0.000000
N402  N     N_R   0.130109 0.846691 0.879979 0.000000
H1331 H     H_    0.172660 0.910348 0.156543 0.000000
H1332 H     H_    0.145538 0.882997 0.171379 0.000000
H1333 H     H_    0.172943 0.881500 0.145611 0.000000
H1334 H     H_    0.172603 0.898731 0.014622 0.000000
H1335 H     H_    0.150807 0.856107 0.034974 0.000000
H1336 H     H_    0.125729 0.859050 0.056194 0.000000
H1337 H     H_    0.085053 0.880874 0.801234 0.000000
H1338 H     H_    0.058201 0.847977 0.719214 0.000000
H1339 H     H_    0.062627 0.811102 0.720490 0.000000
H1340 H     H_    0.094089 0.809022 0.811885 0.000000
C1207 C     C_3   0.172255 0.923685 0.660689 0.000000
N403  N     N_3   0.159342 0.933444 0.709612 0.000000
C1208 C     C_3   0.136469 0.926991 0.666961 0.000000
C1209 C     C_R   0.119218 0.931756 0.717399 0.000000
N404  N     N_R   0.113028 0.922392 0.797640 0.000000
C1210 C     C_R   0.092562 0.923740 0.808655 0.000000
C1211 C     C_R   0.075828 0.912520 0.869672 0.000000
C1212 C     C_R   0.056957 0.918513 0.871386 0.000000
C1213 C     C_R   0.058173 0.938139 0.823159 0.000000
C1214 C     C_R   0.074852 0.948057 0.762105 0.000000
C1215 C     C_R   0.089053 0.937128 0.746650 0.000000
N405  N     N_R   0.104581 0.941657 0.683857 0.000000
H1341 H     H_    0.191427 0.932233 0.680072 0.000000
H1342 H     H_    0.164816 0.903879 0.671516 0.000000
H1343 H     H_    0.170807 0.927558 0.592511 0.000000
H1344 H     H_    0.168978 0.952127 0.704713 0.000000
H1345 H     H_    0.139770 0.937525 0.608090 0.000000
H1346 H     H_    0.128311 0.907460 0.653364 0.000000
H1347 H     H_    0.077225 0.899548 0.914304 0.000000
H1348 H     H_    0.043417 0.910450 0.918206 0.000000
H1349 H     H_    0.046367 0.946085 0.831145 0.000000
H1350 H     H_    0.076850 0.964331 0.730556 0.000000
C1216 C     C_3   0.865468 0.781244 0.144654 0.000000
N406  N     N_3   0.866859 0.787336 0.232820 0.000000
C1217 C     C_3   0.890209 0.806989 0.251965 0.000000
C1218 C     C_R   0.892743 0.809700 0.345071 0.000000
N407  N     N_R   0.873296 0.804280 0.393896 0.000000
C1219 C     C_R   0.879391 0.796568 0.467136 0.000000
C1220 C     C_R   0.865492 0.786122 0.535596 0.000000
C1221 C     C_R   0.874588 0.776491 0.599467 0.000000
C1222 C     C_R   0.897100 0.777347 0.593020 0.000000
C1223 C     C_R   0.911147 0.788724 0.524501 0.000000
C1224 C     C_R   0.901974 0.798920 0.463676 0.000000
N408  N     N_R   0.911806 0.809565 0.390197 0.000000
H1351 H     H_    0.866025 0.796477 0.104492 0.000000
H1352 H     H_    0.880329 0.776843 0.129688 0.000000
H1353 H     H_    0.848281 0.765235 0.132064 0.000000
H1354 H     H_    0.865588 0.772247 0.267913 0.000000
H1355 H     H_    0.904456 0.802617 0.230366 0.000000
H1356 H     H_    0.891850 0.823643 0.219657 0.000000
H1357 H     H_    0.847572 0.783987 0.537393 0.000000
H1358 H     H_    0.863855 0.767660 0.653575 0.000000
H1359 H     H_    0.903947 0.769675 0.643167 0.000000
H1360 H     H_    0.928624 0.789374 0.519022 0.000000
C1225 C     C_3   0.903165 0.860750 0.534753 0.000000
N409  N     N_3   0.898088 0.881198 0.511499 0.000000
C1226 C     C_3   0.874681 0.874338 0.472678 0.000000
C1227 C     C_R   0.858742 0.853758 0.518724 0.000000
N410  N     N_R   0.845386 0.831131 0.486973 0.000000
C1228 C     C_R   0.831865 0.819741 0.554170 0.000000
C1229 C     C_R   0.814262 0.796409 0.560673 0.000000
C1230 C     C_R   0.802981 0.788378 0.636675 0.000000
C1231 C     C_R   0.808010 0.804028 0.702582 0.000000
C1232 C     C_R   0.825393 0.827512 0.694873 0.000000
C1233 C     C_R   0.838130 0.834742 0.621721 0.000000
N411  N     N_R   0.856756 0.856201 0.602441 0.000000
H1361 H     H_    0.899858 0.856150 0.602015 0.000000
H1362 H     H_    0.891894 0.843807 0.503389 0.000000
H1363 H     H_    0.922031 0.865948 0.520513 0.000000
H1364 H     H_    0.911664 0.894334 0.477197 0.000000
H1365 H     H_    0.868595 0.888274 0.481354 0.000000
H1366 H     H_    0.873035 0.871471 0.405858 0.000000
H1367 H     H_    0.809649 0.784087 0.510096 0.000000
H1368 H     H_    0.789783 0.769868 0.644209 0.000000
H1369 H     H_    0.798413 0.797788 0.760710 0.000000
H1370 H     H_    0.828755 0.839316 0.746480 0.000000
C1234 C     C_3   0.829155 0.721946 0.477292 0.000000
N412  N     N_3   0.813918 0.734092 0.462124 0.000000
C1235 C     C_3   0.820778 0.747895 0.383622 0.000000
C1236 C     C_R   0.805240 0.760240 0.363403 0.000000
N413  N     N_R   0.780398 0.748653 0.353896 0.000000
C1237 C     C_R   0.775256 0.767653 0.340773 0.000000
C1238 C     C_R   0.753322 0.767314 0.324659 0.000000
C1239 C     C_R   0.752041 0.789183 0.319052 0.000000
C1240 C     C_R   0.772451 0.810753 0.329647 0.000000
C1241 C     C_R   0.794480 0.810684 0.343151 0.000000
C1242 C     C_R   0.795357 0.788919 0.344682 0.000000
N414  N     N_R   0.814857 0.785179 0.356742 0.000000
H1371 H     H_    0.825732 0.713140 0.540736 0.000000
H1372 H     H_    0.825119 0.707951 0.429407 0.000000
H1373 H     H_    0.848240 0.735134 0.474620 0.000000
H1374 H     H_    0.816993 0.746013 0.510961 0.000000
H1375 H     H_    0.839337 0.761744 0.389744 0.000000
H1376 H     H_    0.820302 0.736188 0.332512 0.000000
H1377 H     H_    0.737432 0.750648 0.317399 0.000000
H1378 H     H_    0.734942 0.789464 0.308083 0.000000
H1379 H     H_    0.771105 0.827641 0.327011 0.000000
H1380 H     H_    0.810549 0.827145 0.352403 0.000000
C1243 C     C_3   0.796122 0.796381 0.113704 0.000000
N415  N     N_3   0.819556 0.806533 0.155410 0.000000
C1244 C     C_3   0.826883 0.832173 0.162014 0.000000
C1245 C     C_R   0.851819 0.844947 0.194960 0.000000
N416  N     N_R   0.859746 0.839374 0.272093 0.000000
C1246 C     C_R   0.882264 0.857367 0.276246 0.000000
C1247 C     C_R   0.900640 0.861673 0.333335 0.000000
C1248 C     C_R   0.919430 0.884331 0.336632 0.000000
C1249 C     C_R   0.920118 0.902235 0.282146 0.000000
C1250 C     C_R   0.903463 0.896112 0.218557 0.000000
C1251 C     C_R   0.885974 0.873349 0.213281 0.000000
N417  N     N_R   0.868498 0.865713 0.155322 0.000000
H1381 H     H_    0.797224 0.788838 0.052624 0.000000
H1382 H     H_    0.783197 0.782247 0.154995 0.000000
H1383 H     H_    0.789529 0.810226 0.101611 0.000000
H1384 H     H_    0.831312 0.804329 0.115438 0.000000
H1385 H     H_    0.826097 0.840002 0.098959 0.000000
H1386 H     H_    0.814845 0.835158 0.204368 0.000000
H1387 H     H_    0.899938 0.849208 0.380247 0.000000
H1388 H     H_    0.932809 0.888577 0.385866 0.000000
H1389 H     H_    0.933891 0.920528 0.287229 0.000000
H1390 H     H_    0.903487 0.908906 0.174741 0.000000
C1252 C     C_3   0.026971 0.656003 0.900376 0.000000
N418  N     N_3   0.018938 0.674378 0.914542 0.000000
C1253 C     C_3   0.995059 0.666707 0.877889 0.000000
C1254 C     C_R   0.987620 0.686131 0.882701 0.000000
N419  N     N_R   0.982790 0.693189 0.958165 0.000000
C1255 C     C_R   0.975717 0.709968 0.932798 0.000000
C1256 C     C_R   0.964541 0.719538 0.979972 0.000000
C1257 C     C_R   0.959236 0.737436 0.944591 0.000000
C1258 C     C_R   0.965780 0.745406 0.862846 0.000000
C1259 C     C_R   0.975010 0.733659 0.813603 0.000000
C1260 C     C_R   0.977988 0.714267 0.848376 0.000000
N420  N     N_R   0.983622 0.697828 0.812615 0.000000
H1391 H     H_    0.043878 0.660342 0.936515 0.000000
H1392 H     H_    0.013834 0.638140 0.920899 0.000000
H1393 H     H_    0.029089 0.654577 0.832696 0.000000
H1394 H     H_    0.030306 0.689842 0.881523 0.000000
H1395 H     H_    0.994441 0.661450 0.811587 0.000000
H1396 H     H_    0.982168 0.652078 0.916365 0.000000
H1397 H     H_    0.958079 0.710986 0.039233 0.000000
H1398 H     H_    0.949955 0.745188 0.979995 0.000000
H1399 H     H_    0.962255 0.759872 0.835577 0.000000
H1400 H     H_    0.978294 0.739431 0.749595 0.000000
C1261 C     C_3   0.058798 0.545012 0.312186 0.000000
N421  N     N_3   0.083490 0.561850 0.297684 0.000000
C1262 C     C_3   0.099344 0.560066 0.364432 0.000000
C1263 C     C_R   0.097931 0.535325 0.372838 0.000000
N422  N     N_R   0.095782 0.521310 0.304272 0.000000
C1264 C     C_R   0.090826 0.499599 0.341980 0.000000
C1265 C     C_R   0.085561 0.477879 0.306009 0.000000
C1266 C     C_R   0.081312 0.457980 0.358025 0.000000
C1267 C     C_R   0.082682 0.460096 0.444866 0.000000
C1268 C     C_R   0.088271 0.482145 0.479865 0.000000
C1269 C     C_R   0.091791 0.501288 0.427325 0.000000
N423  N     N_R   0.096380 0.523587 0.450112 0.000000
H1401 H     H_    0.052946 0.530529 0.265546 0.000000
H1402 H     H_    0.056755 0.537090 0.376221 0.000000
H1403 H     H_    0.047423 0.554639 0.303893 0.000000
H1404 H     H_    0.084401 0.579098 0.300414 0.000000
H1405 H     H_    0.117606 0.572907 0.348608 0.000000
H1406 H     H_    0.095509 0.565685 0.424660 0.000000
H1407 H     H_    0.085549 0.476400 0.239101 0.000000
H1408 H     H_    0.077295 0.440781 0.330783 0.000000
H1409 H     H_    0.079539 0.444538 0.485104 0.000000
H1410 H     H_    0.090466 0.484697 0.546423 0.000000
C1270 C     C_3   0.132502 0.577637 0.931911 0.000000
N424  N     N_3   0.138216 0.561090 0.985512 0.000000
C1271 C     C_3   0.121550 0.537089 0.964491 0.000000
C1272 C     C_R   0.122244 0.518187 0.024255 0.000000
N425  N     N_R   0.117812 0.516945 0.109328 0.000000
C1273 C     C_R   0.125895 0.501000 0.138346 0.000000
C1274 C     C_R   0.131668 0.497230 0.219890 0.000000
C1275 C     C_R   0.141435 0.481408 0.236142 0.000000
C1276 C     C_R   0.145431 0.469687 0.170816 0.000000
C1277 C     C_R   0.140464 0.474237 0.087941 0.000000
C1278 C     C_R   0.131930 0.491127 0.073375 0.000000
N426  N     N_R   0.129934 0.501636 0.999439 0.000000
H1411 H     H_    0.149152 0.593910 0.918081 0.000000
H1412 H     H_    0.123239 0.568832 0.873042 0.000000
H1413 H     H_    0.120615 0.583493 0.962385 0.000000
H1414 H     H_    0.135653 0.563142 0.047130 0.000000
H1415 H     H_    0.103718 0.536164 0.964901 0.000000
H1416 H     H_    0.127237 0.534294 0.903159 0.000000
H1417 H     H_    0.129364 0.506620 0.270735 0.000000
H1418 H     H_    0.146107 0.478245 0.300201 0.000000
H1419 H     H_    0.153386 0.457776 0.186383 0.000000
H1420 H     H_    0.143560 0.465057 0.036871 0.000000
C1279 C     C_3   0.025445 0.757306 0.990955 0.000000
N427  N     N_3   0.025226 0.741820 0.062819 0.000000
C1280 C     C_3   0.038352 0.728535 0.040918 0.000000
C1281 C     C_R   0.038397 0.712044 0.111305 0.000000
N428  N     N_R   0.059237 0.714654 0.153314 0.000000
C1282 C     C_R   0.052827 0.692580 0.188217 0.000000
C1283 C     C_R   0.067884 0.684015 0.225029 0.000000
C1284 C     C_R   0.058524 0.660505 0.255398 0.000000
C1285 C     C_R   0.034407 0.645979 0.247520 0.000000
C1286 C     C_R   0.019546 0.654457 0.207232 0.000000
C1287 C     C_R   0.029094 0.677984 0.174112 0.000000
N429  N     N_R   0.019034 0.689886 0.124500 0.000000
H1421 H     H_    0.014214 0.766535 0.002956 0.000000
H1422 H     H_    0.043834 0.770963 0.978692 0.000000
H1423 H     H_    0.018427 0.746614 0.933918 0.000000
H1424 H     H_    0.007660 0.729028 0.071293 0.000000
H1425 H     H_    0.029907 0.717642 0.984955 0.000000
H1426 H     H_    0.056847 0.740884 0.025144 0.000000
H1427 H     H_    0.086790 0.695193 0.226844 0.000000
H1428 H     H_    0.069784 0.653374 0.286941 0.000000
H1429 H     H_    0.027076 0.627616 0.271992 0.000000
H1430 H     H_    0.001376 0.641458 0.201959 0.000000
C1288 C     C_3   0.374971 0.445440 0.112964 0.000000
N430  N     N_3   0.398567 0.460129 0.079412 0.000000
C1289 C     C_3   0.411399 0.478644 0.139980 0.000000
C1290 C     C_R   0.433339 0.499378 0.105763 0.000000
N431  N     N_R   0.453283 0.498618 0.072830 0.000000
C1291 C     C_R   0.468568 0.522353 0.064014 0.000000
C1292 C     C_R   0.491032 0.532688 0.030730 0.000000
C1293 C     C_R   0.503985 0.557520 0.031662 0.000000
C1294 C     C_R   0.494451 0.571602 0.065831 0.000000
C1295 C     C_R   0.471569 0.561028 0.096650 0.000000
C1296 C     C_R   0.458706 0.536339 0.092612 0.000000
N432  N     N_R   0.435935 0.522381 0.114475 0.000000
H1431 H     H_    0.367025 0.427672 0.082708 0.000000
H1432 H     H_    0.376274 0.442450 0.181914 0.000000
H1433 H     H_    0.363270 0.454540 0.099828 0.000000
H1434 H     H_    0.396114 0.467823 0.023037 0.000000
H1435 H     H_    0.399288 0.486055 0.160807 0.000000
H1436 H     H_    0.415792 0.470133 0.195638 0.000000
H1437 H     H_    0.498629 0.521844 0.005233 0.000000
H1438 H     H_    0.521792 0.565997 0.006744 0.000000
H1439 H     H_    0.504888 0.590959 0.067847 0.000000
H1440 H     H_    0.464467 0.572134 0.123870 0.000000
C1297 C     C_3   0.383459 0.101846 0.795228 0.000000
N433  N     N_3   0.407697 0.113231 0.763959 0.000000
C1298 C     C_3   0.407098 0.106186 0.677386 0.000000
C1299 C     C_R   0.429545 0.105079 0.658413 0.000000
N434  N     N_R   0.451717 0.123887 0.675073 0.000000
C1300 C     C_R   0.466450 0.114235 0.656024 0.000000
C1301 C     C_R   0.490789 0.125095 0.660472 0.000000
C1302 C     C_R   0.502793 0.112209 0.636673 0.000000
C1303 C     C_R   0.490290 0.089171 0.606324 0.000000
C1304 C     C_R   0.465539 0.078572 0.599438 0.000000
C1305 C     C_R   0.453872 0.091372 0.626386 0.000000
N435  N     N_R   0.430080 0.084674 0.626815 0.000000
H1441 H     H_    0.382984 0.110094 0.855618 0.000000
H1442 H     H_    0.371053 0.104609 0.748869 0.000000
H1443 H     H_    0.377755 0.082296 0.806656 0.000000
H1444 H     H_    0.417894 0.106721 0.800148 0.000000
H1445 H     H_    0.393130 0.088191 0.670328 0.000000
H1446 H     H_    0.403709 0.118557 0.632768 0.000000
H1447 H     H_    0.500036 0.142894 0.683741 0.000000
H1448 H     H_    0.522030 0.120011 0.641029 0.000000
H1449 H     H_    0.500308 0.079827 0.587187 0.000000
H1450 H     H_    0.455925 0.060915 0.573429 0.000000
C1306 C     C_3   0.709278 0.119638 0.104709 0.000000
N436  N     N_3   0.688513 0.124546 0.106671 0.000000
C1307 C     C_3   0.668564 0.102551 0.134022 0.000000
C1308 C     C_R   0.645941 0.105415 0.134321 0.000000
N437  N     N_R   0.643947 0.126774 0.119265 0.000000
C1309 C     C_R   0.619620 0.118913 0.124999 0.000000
C1310 C     C_R   0.605458 0.131117 0.118527 0.000000
C1311 C     C_R   0.580889 0.118612 0.123313 0.000000
C1312 C     C_R   0.570069 0.093940 0.134498 0.000000
C1313 C     C_R   0.583966 0.081790 0.142732 0.000000
C1314 C     C_R   0.608434 0.094611 0.139687 0.000000
N438  N     N_R   0.624398 0.085542 0.146824 0.000000
H1451 H     H_    0.725395 0.136666 0.091232 0.000000
H1452 H     H_    0.711980 0.111985 0.166217 0.000000
H1453 H     H_    0.706617 0.106511 0.054979 0.000000
H1454 H     H_    0.684557 0.127901 0.044645 0.000000
H1455 H     H_    0.666471 0.088091 0.091329 0.000000
H1456 H     H_    0.672198 0.097027 0.198071 0.000000
H1457 H     H_    0.612276 0.150051 0.110774 0.000000
H1458 H     H_    0.570042 0.128301 0.118165 0.000000
H1459 H     H_    0.550835 0.084249 0.138150 0.000000
H1460 H     H_    0.575585 0.062754 0.154251 0.000000
C1315 C     C_3   0.596787 0.655803 0.614116 0.000000
N439  N     N_3   0.597801 0.674786 0.667607 0.000000
C1316 C     C_3   0.622413 0.690748 0.691955 0.000000
C1317 C     C_R   0.636632 0.703587 0.618284 0.000000
N440  N     N_R   0.634174 0.721695 0.570187 0.000000
C1318 C     C_R   0.651515 0.726768 0.512719 0.000000
C1319 C     C_R   0.663056 0.746901 0.460700 0.000000
C1320 C     C_R   0.680201 0.747025 0.407894 0.000000
C1321 C     C_R   0.682040 0.725766 0.396409 0.000000
C1322 C     C_R   0.672389 0.707187 0.455331 0.000000
C1323 C     C_R   0.660831 0.710823 0.520258 0.000000
N441  N     N_R   0.654240 0.697929 0.591565 0.000000
H1461 H     H_    0.578083 0.641581 0.610523 0.000000
H1462 H     H_    0.602135 0.663066 0.549370 0.000000
H1463 H     H_    0.608111 0.647557 0.641793 0.000000
H1464 H     H_    0.589203 0.666221 0.722850 0.000000
H1465 H     H_    0.622836 0.704055 0.736777 0.000000
H1466 H     H_    0.630934 0.680030 0.722042 0.000000
H1467 H     H_    0.661280 0.763322 0.466315 0.000000
H1468 H     H_    0.689853 0.762654 0.367809 0.000000
H1469 H     H_    0.693064 0.724919 0.347117 0.000000
H1470 H     H_    0.674853 0.690982 0.453860 0.000000
C1324 C     C_3   0.064756 0.451039 0.686658 0.000000
N442  N     N_3   0.056140 0.465165 0.632088 0.000000
C1325 C     C_3   0.045164 0.476331 0.683054 0.000000
C1326 C     C_R   0.040610 0.494657 0.634026 0.000000
N443  N     N_R   0.057862 0.515786 0.597197 0.000000
C1327 C     C_R   0.044278 0.526107 0.565097 0.000000
C1328 C     C_R   0.051729 0.548326 0.526112 0.000000
C1329 C     C_R   0.034543 0.554991 0.493827 0.000000
C1330 C     C_R   0.010547 0.539066 0.499144 0.000000
C1331 C     C_R   0.003687 0.517068 0.541481 0.000000
C1332 C     C_R   0.020679 0.511561 0.577556 0.000000
N444  N     N_R   0.017357 0.491600 0.623643 0.000000
H1471 H     H_    0.066505 0.437144 0.649067 0.000000
H1472 H     H_    0.082589 0.462762 0.713168 0.000000
H1473 H     H_    0.052417 0.442393 0.739289 0.000000
H1474 H     H_    0.043414 0.453837 0.589392 0.000000
H1475 H     H_    0.027614 0.463592 0.704137 0.000000
H1476 H     H_    0.055344 0.482923 0.740833 0.000000
H1477 H     H_    0.070341 0.560342 0.520991 0.000000
H1478 H     H_    0.039843 0.572322 0.462041 0.000000
H1479 H     H_    0.997322 0.544056 0.470404 0.000000
H1480 H     H_    0.985773 0.503870 0.546164 0.000000
C1333 C     C_3   0.981869 0.913031 0.357581 0.000000
N445  N     N_3   0.974873 0.887928 0.339590 0.000000
C1334 C     C_3   0.967705 0.884402 0.252522 0.000000
C1335 C     C_R   0.968275 0.862739 0.218698 0.000000
N446  N     N_R   0.957627 0.839165 0.252266 0.000000
C1336 C     C_R   0.958392 0.826508 0.185818 0.000000
C1337 C     C_R   0.947358 0.801952 0.176725 0.000000
C1338 C     C_R   0.948881 0.792770 0.100226 0.000000
C1339 C     C_R   0.961944 0.808096 0.035559 0.000000
C1340 C     C_R   0.972345 0.832787 0.045563 0.000000
C1341 C     C_R   0.969648 0.841496 0.119660 0.000000
N447  N     N_R   0.975693 0.864627 0.137190 0.000000
H1481 H     H_    0.000599 0.923930 0.339015 0.000000
H1482 H     H_    0.970249 0.919763 0.322741 0.000000
H1483 H     H_    0.980350 0.914542 0.425870 0.000000
H1484 H     H_    0.960031 0.877156 0.374813 0.000000
H1485 H     H_    0.949934 0.883322 0.242937 0.000000
H1486 H     H_    0.980123 0.899882 0.215370 0.000000
H1487 H     H_    0.936227 0.790155 0.224486 0.000000
H1488 H     H_    0.939952 0.773510 0.091029 0.000000
H1489 H     H_    0.963631 0.800698 0.976897 0.000000
H1490 H     H_    0.982966 0.845196 0.998745 0.000000
C1342 C     C_3   0.931403 0.818282 0.721553 0.000000
N448  N     N_3   0.950324 0.827464 0.659998 0.000000
C1343 C     C_3   0.945126 0.842635 0.598198 0.000000
C1344 C     C_R   0.965024 0.854227 0.539718 0.000000
N449  N     N_R   0.983833 0.876402 0.556936 0.000000
C1345 C     C_R   0.998443 0.878973 0.491272 0.000000
C1346 C     C_R   0.017779 0.899112 0.461477 0.000000
C1347 C     C_R   0.030660 0.896763 0.395890 0.000000
C1348 C     C_R   0.022321 0.875695 0.352154 0.000000
C1349 C     C_R   0.000529 0.857302 0.371564 0.000000
C1350 C     C_R   0.989168 0.859192 0.441964 0.000000
N450  N     N_R   0.967013 0.844102 0.465346 0.000000
H1491 H     H_    0.935742 0.831051 0.773494 0.000000
H1492 H     H_    0.914191 0.816143 0.692374 0.000000
H1493 H     H_    0.929667 0.800725 0.748118 0.000000
H1494 H     H_    0.950573 0.812918 0.629547 0.000000
H1495 H     H_    0.928340 0.832653 0.563536 0.000000
H1496 H     H_    0.943774 0.857125 0.630475 0.000000
H1497 H     H_    0.022067 0.916701 0.482861 0.000000
H1498 H     H_    0.047222 0.911455 0.377042 0.000000
H1499 H     H_    0.032173 0.874181 0.299910 0.000000
H1500 H     H_    0.993219 0.841530 0.333361 0.000000
C1351 C     C_3   0.871434 0.724371 0.313287 0.000000
N451  N     N_3   0.896760 0.737311 0.295382 0.000000
C1352 C     C_3   0.907473 0.756583 0.354707 0.000000
C1353 C     C_R   0.933957 0.765306 0.360961 0.000000
N452  N     N_R   0.944768 0.750104 0.360341 0.000000
C1354 C     C_R   0.967821 0.765258 0.374900 0.000000
C1355 C     C_R   0.986771 0.759941 0.374831 0.000000
C1356 C     C_R   0.009203 0.777782 0.395410 0.000000
C1357 C     C_R   0.011479 0.799544 0.424504 0.000000
C1358 C     C_R   0.991788 0.804276 0.424186 0.000000
C1359 C     C_R   0.970684 0.787746 0.389342 0.000000
N453  N     N_R   0.949836 0.789074 0.376358 0.000000
H1501 H     H_    0.861686 0.713566 0.258058 0.000000
H1502 H     H_    0.868840 0.712159 0.368956 0.000000
H1503 H     H_    0.864083 0.737240 0.326141 0.000000
H1504 H     H_    0.898115 0.745465 0.235673 0.000000
H1505 H     H_    0.903541 0.771290 0.330597 0.000000
H1506 H     H_    0.899580 0.750202 0.417450 0.000000
H1507 H     H_    0.984009 0.742499 0.355924 0.000000
H1508 H     H_    0.024701 0.774242 0.393962 0.000000
H1509 H     H_    0.028536 0.812660 0.448774 0.000000
H1510 H     H_    0.992820 0.819479 0.456846 0.000000
C1360 C     C_3   0.726404 0.885831 0.534112 0.000000
N454  N     N_3   0.750590 0.897332 0.569378 0.000000
C1361 C     C_3   0.751393 0.914341 0.631685 0.000000
C1362 C     C_R   0.772424 0.919952 0.689875 0.000000
N455  N     N_R   0.770451 0.913097 0.774277 0.000000
C1363 C     C_R   0.793021 0.917261 0.795238 0.000000
C1364 C     C_R   0.801888 0.909273 0.863546 0.000000
C1365 C     C_R   0.826635 0.919433 0.872613 0.000000
C1366 C     C_R   0.840793 0.939248 0.824378 0.000000
C1367 C     C_R   0.831693 0.943740 0.750471 0.000000
C1368 C     C_R   0.807874 0.930154 0.733903 0.000000
N456  N     N_R   0.795816 0.931135 0.663839 0.000000
H1511 H     H_    0.726232 0.875779 0.477399 0.000000
H1512 H     H_    0.714228 0.872966 0.581143 0.000000
H1513 H     H_    0.720210 0.899708 0.515766 0.000000
H1514 H     H_    0.761684 0.907400 0.520610 0.000000
H1515 H     H_    0.752850 0.931055 0.598711 0.000000
H1516 H     H_    0.734911 0.906212 0.669121 0.000000
H1517 H     H_    0.790380 0.895286 0.906163 0.000000
H1518 H     H_    0.835534 0.913454 0.919403 0.000000
H1519 H     H_    0.859411 0.949899 0.840555 0.000000
H1520 H     H_    0.842991 0.958104 0.709330 0.000000
C1369 C     C_3   0.743762 0.834005 0.919753 0.000000
N457  N     N_3   0.719444 0.831004 0.904744 0.000000
C1370 C     C_3   0.719270 0.847336 0.836343 0.000000
C1371 C     C_R   0.703666 0.859173 0.854390 0.000000
N458  N     N_R   0.678673 0.848254 0.859950 0.000000
C1372 C     C_R   0.674456 0.867534 0.869705 0.000000
C1373 C     C_R   0.653955 0.868024 0.895754 0.000000
C1374 C     C_R   0.652107 0.889421 0.888841 0.000000
C1375 C     C_R   0.670938 0.909508 0.856324 0.000000
C1376 C     C_R   0.692504 0.908966 0.845026 0.000000
C1377 C     C_R   0.694503 0.888149 0.861479 0.000000
N459  N     N_R   0.713937 0.883920 0.858786 0.000000
H1521 H     H_    0.743764 0.820864 0.969385 0.000000
H1522 H     H_    0.750778 0.830620 0.860963 0.000000
H1523 H     H_    0.755433 0.852479 0.941059 0.000000
H1524 H     H_    0.712971 0.834538 0.959476 0.000000
H1525 H     H_    0.737621 0.861849 0.828021 0.000000
H1526 H     H_    0.713658 0.837928 0.775777 0.000000
H1527 H     H_    0.640326 0.852684 0.925589 0.000000
H1528 H     H_    0.635788 0.890193 0.905423 0.000000
H1529 H     H_    0.669095 0.925788 0.842090 0.000000
H1530 H     H_    0.706433 0.923512 0.815438 0.000000
C1378 C     C_3   0.790269 0.978593 0.988862 0.000000
N460  N     N_3   0.811876 0.975704 0.984963 0.000000
C1379 C     C_3   0.806361 0.951772 0.960291 0.000000
C1380 C     C_R   0.789514 0.932667 0.017621 0.000000
N461  N     N_R   0.794504 0.930115 0.102534 0.000000
C1381 C     C_R   0.775447 0.909345 0.123676 0.000000
C1382 C     C_R   0.770513 0.897444 0.200282 0.000000
C1383 C     C_R   0.752540 0.874174 0.203879 0.000000
C1384 C     C_R   0.739073 0.863923 0.132158 0.000000
C1385 C     C_R   0.741631 0.877698 0.059211 0.000000
C1386 C     C_R   0.760432 0.900057 0.055716 0.000000
N462  N     N_R   0.768086 0.914665 0.987427 0.000000
H1531 H     H_    0.775981 0.963335 0.020208 0.000000
H1532 H     H_    0.793258 0.993749 0.028237 0.000000
H1533 H     H_    0.785403 0.982242 0.925114 0.000000
H1534 H     H_    0.819307 0.977081 0.043601 0.000000
H1535 H     H_    0.798237 0.949565 0.896955 0.000000
H1536 H     H_    0.823452 0.950503 0.962633 0.000000
H1537 H     H_    0.779950 0.905728 0.256147 0.000000
H1538 H     H_    0.749251 0.863806 0.262423 0.000000
H1539 H     H_    0.726442 0.845158 0.133690 0.000000
H1540 H     H_    0.730350 0.870766 0.004738 0.000000
C1387 C     C_3   0.173631 0.758973 0.891106 0.000000
N463  N     N_3   0.176057 0.769442 0.806984 0.000000
C1388 C     C_3   0.169373 0.789054 0.804396 0.000000
C1389 C     C_R   0.181690 0.807566 0.869704 0.000000
N464  N     N_R   0.206329 0.817930 0.884401 0.000000
C1390 C     C_R   0.210272 0.839227 0.916531 0.000000
C1391 C     C_R   0.231610 0.859210 0.923870 0.000000
C1392 C     C_R   0.232332 0.879377 0.960774 0.000000
C1393 C     C_R   0.211242 0.880056 0.979288 0.000000
C1394 C     C_R   0.189988 0.861940 0.950827 0.000000
C1395 C     C_R   0.189530 0.840902 0.926065 0.000000
N465  N     N_R   0.170686 0.821205 0.897366 0.000000
H1541 H     H_    0.162048 0.763474 0.928758 0.000000
H1542 H     H_    0.166603 0.739176 0.887166 0.000000
H1543 H     H_    0.191138 0.766328 0.922478 0.000000
H1544 H     H_    0.163823 0.756176 0.767844 0.000000
H1545 H     H_    0.173991 0.798390 0.742558 0.000000
H1546 H     H_    0.149983 0.781327 0.809410 0.000000
H1547 H     H_    0.246810 0.859977 0.893981 0.000000
H1548 H     H_    0.249052 0.895289 0.969025 0.000000
H1549 H     H_    0.211627 0.896227 0.004539 0.000000
H1550 H     H_    0.175021 0.865324 0.939409 0.000000
C1396 C     C_3   0.113924 0.730393 0.891553 0.000000
N466  N     N_3   0.104187 0.742907 0.942107 0.000000
C1397 C     C_3   0.123489 0.763899 0.979437 0.000000
C1398 C     C_R   0.113197 0.777522 0.020846 0.000000
N467  N     N_R   0.112720 0.797012 0.979939 0.000000
C1399 C     C_R   0.095366 0.799835 0.021053 0.000000
C1400 C     C_R   0.085656 0.815860 0.006261 0.000000
C1401 C     C_R   0.068237 0.815099 0.059567 0.000000
C1402 C     C_R   0.061130 0.799025 0.127749 0.000000
C1403 C     C_R   0.069581 0.781898 0.138286 0.000000
C1404 C     C_R   0.086734 0.782953 0.084344 0.000000
N468  N     N_R   0.098100 0.768905 0.087444 0.000000
H1551 H     H_    0.121667 0.740869 0.833261 0.000000
H1552 H     H_    0.128120 0.728019 0.926917 0.000000
H1553 H     H_    0.099589 0.712580 0.875365 0.000000
H1554 H     H_    0.093200 0.731585 0.988562 0.000000
H1555 H     H_    0.135192 0.759715 0.023079 0.000000
H1556 H     H_    0.134038 0.775938 0.928948 0.000000
H1557 H     H_    0.090783 0.828791 0.955909 0.000000
H1558 H     H_    0.060593 0.827702 0.049309 0.000000
H1559 H     H_    0.048832 0.799695 0.172424 0.000000
H1560 H     H_    0.063370 0.768544 0.188902 0.000000
C1405 C     C_3   0.049941 0.743983 0.815703 0.000000
N469  N     N_3   0.066828 0.759951 0.755221 0.000000
C1406 C     C_3   0.090160 0.762085 0.780956 0.000000
C1407 C     C_R   0.109297 0.781027 0.731770 0.000000
N470  N     N_R   0.112621 0.780172 0.646894 0.000000
C1408 C     C_R   0.130801 0.802458 0.631476 0.000000
C1409 C     C_R   0.142224 0.812958 0.557706 0.000000
C1410 C     C_R   0.160063 0.836449 0.558635 0.000000
C1411 C     C_R   0.167096 0.848988 0.633029 0.000000
C1412 C     C_R   0.156175 0.838112 0.707245 0.000000
C1413 C     C_R   0.138058 0.815057 0.703911 0.000000
N471  N     N_R   0.125396 0.801812 0.768886 0.000000
H1561 H     H_    0.031928 0.742583 0.799759 0.000000
H1562 H     H_    0.049561 0.725970 0.814337 0.000000
H1563 H     H_    0.055481 0.751281 0.879337 0.000000
H1564 H     H_    0.066619 0.776588 0.758742 0.000000
H1565 H     H_    0.093545 0.767975 0.846533 0.000000
H1566 H     H_    0.090635 0.744754 0.773069 0.000000
H1567 H     H_    0.138072 0.803641 0.499796 0.000000
H1568 H     H_    0.168919 0.844945 0.500809 0.000000
H1569 H     H_    0.181268 0.867191 0.633057 0.000000
H1570 H     H_    0.161676 0.847652 0.765691 0.000000
C1414 C     C_3   0.307250 0.498692 0.106344 0.000000
N472  N     N_3   0.324336 0.493113 0.062917 0.000000
C1415 C     C_3   0.345793 0.515413 0.047336 0.000000
C1416 C     C_R   0.362519 0.510456 0.996948 0.000000
N473  N     N_R   0.385196 0.513728 0.023591 0.000000
C1417 C     C_R   0.391884 0.505063 0.956179 0.000000
C1418 C     C_R   0.413825 0.507112 0.932822 0.000000
C1419 C     C_R   0.414980 0.495050 0.862699 0.000000
C1420 C     C_R   0.394742 0.480979 0.816494 0.000000
C1421 C     C_R   0.373651 0.481626 0.833617 0.000000
C1422 C     C_R   0.373602 0.495527 0.899287 0.000000
N474  N     N_R   0.355862 0.500746 0.918541 0.000000
H1571 H     H_    0.290227 0.482226 0.113840 0.000000
H1572 H     H_    0.314358 0.505870 0.169118 0.000000
H1573 H     H_    0.303568 0.512330 0.070541 0.000000
H1574 H     H_    0.316689 0.485655 0.005218 0.000000
H1575 H     H_    0.341314 0.528846 0.012946 0.000000
H1576 H     H_    0.354601 0.522146 0.107467 0.000000
H1577 H     H_    0.430221 0.518386 0.962675 0.000000
H1578 H     H_    0.431870 0.496685 0.843363 0.000000
H1579 H     H_    0.395790 0.470859 0.764071 0.000000
H1580 H     H_    0.357745 0.471436 0.796448 0.000000
C1423 C     C_3   0.404171 0.567577 0.820427 0.000000
N475  N     N_3   0.388301 0.555763 0.750590 0.000000
C1424 C     C_3   0.392561 0.535323 0.731773 0.000000
C1425 C     C_R   0.372440 0.517083 0.683002 0.000000
N476  N     N_R   0.349833 0.502800 0.713899 0.000000
C1426 C     C_R   0.340091 0.486793 0.652114 0.000000
C1427 C     C_R   0.316741 0.470741 0.642239 0.000000
C1428 C     C_R   0.309960 0.455885 0.573774 0.000000
C1429 C     C_R   0.327019 0.456411 0.519474 0.000000
C1430 C     C_R   0.350398 0.473654 0.528187 0.000000
C1431 C     C_R   0.356129 0.490073 0.591586 0.000000
N477  N     N_R   0.376466 0.510428 0.605442 0.000000
H1581 H     H_    0.396954 0.557174 0.879629 0.000000
H1582 H     H_    0.421956 0.568699 0.807790 0.000000
H1583 H     H_    0.405789 0.585981 0.826313 0.000000
H1584 H     H_    0.393545 0.567686 0.698883 0.000000
H1585 H     H_    0.408301 0.541100 0.692920 0.000000
H1586 H     H_    0.396484 0.527689 0.790118 0.000000
H1587 H     H_    0.303907 0.471668 0.681702 0.000000
H1588 H     H_    0.291340 0.443837 0.562485 0.000000
H1589 H     H_    0.321773 0.444343 0.466919 0.000000
H1590 H     H_    0.362842 0.475189 0.481100 0.000000
C1432 C     C_3   0.304032 0.532566 0.660446 0.000000
N478  N     N_3   0.322809 0.556414 0.678933 0.000000
C1433 C     C_3   0.341604 0.554929 0.731639 0.000000
C1434 C     C_R   0.333234 0.549739 0.818175 0.000000
N479  N     N_R   0.323172 0.526037 0.846459 0.000000
C1435 C     C_R   0.304443 0.524524 0.889661 0.000000
C1436 C     C_R   0.285874 0.503818 0.918875 0.000000
C1437 C     C_R   0.265180 0.504943 0.940223 0.000000
C1438 C     C_R   0.263216 0.526266 0.927526 0.000000
C1439 C     C_R   0.282505 0.547116 0.901362 0.000000
C1440 C     C_R   0.303682 0.546314 0.888164 0.000000
N480  N     N_R   0.322961 0.563415 0.849436 0.000000
H1591 H     H_    0.311656 0.520411 0.640813 0.000000
H1592 H     H_    0.292556 0.524940 0.715667 0.000000
H1593 H     H_    0.292582 0.534237 0.607829 0.000000
H1594 H     H_    0.330760 0.563996 0.622555 0.000000
H1595 H     H_    0.345418 0.540485 0.709431 0.000000
H1596 H     H_    0.357634 0.572308 0.728321 0.000000
H1597 H     H_    0.286848 0.486891 0.922722 0.000000
H1598 H     H_    0.249922 0.488772 0.960647 0.000000
H1599 H     H_    0.246130 0.526247 0.934036 0.000000
H1600 H     H_    0.279919 0.562505 0.882226 0.000000
C1441 C     C_3   0.370699 0.156552 0.181560 0.000000
N481  N     N_3   0.391945 0.157495 0.225998 0.000000
C1442 C     C_3   0.412430 0.171415 0.174966 0.000000
C1443 C     C_R   0.435078 0.175226 0.221960 0.000000
N482  N     N_R   0.441354 0.186783 0.297794 0.000000
C1444 C     C_R   0.463370 0.189028 0.312862 0.000000
C1445 C     C_R   0.478359 0.199716 0.380160 0.000000
C1446 C     C_R   0.499223 0.197324 0.387671 0.000000
C1447 C     C_R   0.503152 0.182171 0.335045 0.000000
C1448 C     C_R   0.487045 0.171344 0.269833 0.000000
C1449 C     C_R   0.469285 0.177871 0.253973 0.000000
N483  N     N_R   0.452832 0.170035 0.191380 0.000000
H1601 H     H_    0.369458 0.173646 0.190335 0.000000
H1602 H     H_    0.371446 0.153992 0.113177 0.000000
H1603 H     H_    0.354602 0.141390 0.207721 0.000000
H1604 H     H_    0.390459 0.140075 0.232824 0.000000
H1605 H     H_    0.410579 0.161542 0.116674 0.000000
H1606 H     H_    0.412770 0.189225 0.159348 0.000000
H1607 H     H_    0.473864 0.208655 0.428518 0.000000
H1608 H     H_    0.510358 0.204229 0.442598 0.000000
H1609 H     H_    0.517549 0.177316 0.349823 0.000000
H1610 H     H_    0.486173 0.156190 0.237252 0.000000
C1450 C     C_3   0.461088 0.255195 0.140943 0.000000
N484  N     N_3   0.458655 0.236592 0.203834 0.000000
C1451 C     C_3   0.480495 0.244905 0.255057 0.000000
C1452 C     C_R   0.476305 0.251284 0.340327 0.000000
N485  N     N_R   0.490552 0.273564 0.374127 0.000000
C1453 C     C_R   0.477939 0.273307 0.442072 0.000000
C1454 C     C_R   0.481235 0.291929 0.493400 0.000000
C1455 C     C_R   0.466532 0.287444 0.561438 0.000000
C1456 C     C_R   0.448235 0.264698 0.575359 0.000000
C1457 C     C_R   0.443984 0.246702 0.519068 0.000000
C1458 C     C_R   0.458580 0.251641 0.451664 0.000000
N486  N     N_R   0.456538 0.237043 0.388113 0.000000
H1611 H     H_    0.465872 0.272614 0.171542 0.000000
H1612 H     H_    0.474943 0.257134 0.095890 0.000000
H1613 H     H_    0.443871 0.249850 0.105735 0.000000
H1614 H     H_    0.457387 0.221900 0.170443 0.000000
H1615 H     H_    0.487854 0.231670 0.257033 0.000000
H1616 H     H_    0.493989 0.260925 0.225497 0.000000
H1617 H     H_    0.493055 0.310008 0.476516 0.000000
H1618 H     H_    0.468966 0.301794 0.603122 0.000000
H1619 H     H_    0.436717 0.261276 0.628469 0.000000
H1620 H     H_    0.429469 0.229492 0.527446 0.000000
C1459 C     C_3   0.476059 0.139020 0.467447 0.000000
N487  N     N_3   0.469805 0.153928 0.520493 0.000000
C1460 C     C_3   0.447680 0.153963 0.488618 0.000000
C1461 C     C_R   0.442661 0.171383 0.536261 0.000000
N488  N     N_R   0.437062 0.164697 0.618014 0.000000
C1462 C     C_R   0.417420 0.167992 0.627692 0.000000
C1463 C     C_R   0.401261 0.159317 0.691431 0.000000
C1464 C     C_R   0.382819 0.165814 0.690881 0.000000
C1465 C     C_R   0.381184 0.180878 0.627299 0.000000
C1466 C     C_R   0.396560 0.188055 0.561132 0.000000
C1467 C     C_R   0.414274 0.180482 0.560420 0.000000
N489  N     N_R   0.430429 0.183579 0.500459 0.000000
H1621 H     H_    0.495496 0.144260 0.473881 0.000000
H1622 H     H_    0.465971 0.120151 0.487719 0.000000
H1623 H     H_    0.470985 0.140271 0.400819 0.000000
H1624 H     H_    0.483369 0.171422 0.521190 0.000000
H1625 H     H_    0.447069 0.156621 0.420503 0.000000
H1626 H     H_    0.432975 0.135803 0.501202 0.000000
H1627 H     H_    0.403885 0.149704 0.744936 0.000000
H1628 H     H_    0.370556 0.160234 0.742492 0.000000
H1629 H     H_    0.368027 0.187462 0.629043 0.000000
H1630 H     H_    0.394576 0.200066 0.514791 0.000000
C1468 C     C_3   0.589223 0.978453 0.093971 0.000000
N490  N     N_3   0.600876 0.969805 0.035790 0.000000
C1469 C     C_3   0.594058 0.974261 0.951578 0.000000
C1470 C     C_R   0.602577 0.962554 0.891638 0.000000
N491  N     N_R   0.625072 0.974226 0.857567 0.000000
C1471 C     C_R   0.625425 0.956834 0.809831 0.000000
C1472 C     C_R   0.641849 0.958937 0.751096 0.000000
C1473 C     C_R   0.640294 0.937860 0.717822 0.000000
C1474 C     C_R   0.622388 0.915643 0.743232 0.000000
C1475 C     C_R   0.604364 0.914483 0.794355 0.000000
C1476 C     C_R   0.605346 0.935654 0.821097 0.000000
N492  N     N_R   0.589274 0.938869 0.867086 0.000000
H1631 H     H_    0.590491 0.971585 0.158479 0.000000
H1632 H     H_    0.598154 0.998305 0.092179 0.000000
H1633 H     H_    0.570427 0.972887 0.075005 0.000000
H1634 H     H_    0.595849 0.951577 0.045689 0.000000
H1635 H     H_    0.574428 0.966970 0.943936 0.000000
H1636 H     H_    0.603223 0.993867 0.939287 0.000000
H1637 H     H_    0.656235 0.976249 0.734587 0.000000
H1638 H     H_    0.653638 0.938612 0.674724 0.000000
H1639 H     H_    0.622215 0.899227 0.721276 0.000000
H1640 H     H_    0.591003 0.897615 0.817869 0.000000
C1477 C     C_3   0.678003 0.011588 0.180135 0.000000
N493  N     N_3   0.667659 0.026855 0.142424 0.000000
C1478 C     C_3   0.651073 0.013044 0.076463 0.000000
C1479 C     C_R   0.641966 0.028114 0.024842 0.000000
N494  N     N_R   0.633526 0.044094 0.052582 0.000000
C1480 C     C_R   0.636415 0.058505 0.982051 0.000000
C1481 C     C_R   0.629920 0.076937 0.964318 0.000000
C1482 C     C_R   0.635632 0.089345 0.888204 0.000000
C1483 C     C_R   0.648839 0.084408 0.831234 0.000000
C1484 C     C_R   0.654737 0.065680 0.847611 0.000000
C1485 C     C_R   0.646450 0.051918 0.920192 0.000000
N495  N     N_R   0.647253 0.031097 0.941295 0.000000
H1641 H     H_    0.689022 0.008361 0.133709 0.000000
H1642 H     H_    0.689044 0.020367 0.236559 0.000000
H1643 H     H_    0.663899 0.993728 0.198816 0.000000
H1644 H     H_    0.681329 0.041793 0.113753 0.000000
H1645 H     H_    0.660818 0.007191 0.032685 0.000000
H1646 H     H_    0.637174 0.996454 0.102644 0.000000
H1647 H     H_    0.619527 0.081656 0.003464 0.000000
H1648 H     H_    0.629932 0.103254 0.873844 0.000000
H1649 H     H_    0.654099 0.094942 0.773738 0.000000
H1650 H     H_    0.665570 0.062161 0.804144 0.000000
C1486 C     C_3   0.573106 0.999417 0.802667 0.000000
N496  N     N_3   0.592579 0.999822 0.753448 0.000000
C1487 C     C_3   0.611918 0.023645 0.757829 0.000000
C1488 C     C_R   0.632409 0.026138 0.706601 0.000000
N497  N     N_R   0.650664 0.021912 0.740781 0.000000
C1489 C     C_R   0.667376 0.030498 0.680403 0.000000
C1490 C     C_R   0.689478 0.030695 0.678478 0.000000
C1491 C     C_R   0.704478 0.043286 0.613450 0.000000
C1492 C     C_R   0.696577 0.053366 0.547602 0.000000
C1493 C     C_R   0.673821 0.051764 0.547810 0.000000
C1494 C     C_R   0.659751 0.040397 0.615450 0.000000
N498  N     N_R   0.637560 0.037638 0.629021 0.000000
H1651 H     H_    0.556443 0.983143 0.788183 0.000000
H1652 H     H_    0.576910 0.999965 0.870420 0.000000
H1653 H     H_    0.570958 0.015899 0.791542 0.000000
H1654 H     H_    0.587265 0.997338 0.690790 0.000000
H1655 H     H_    0.606618 0.037764 0.737416 0.000000
H1656 H     H_    0.616771 0.025759 0.823910 0.000000
H1657 H     H_    0.695052 0.020879 0.723464 0.000000
H1658 H     H_    0.722583 0.045405 0.613414 0.000000
H1659 H     H_    0.708371 0.062696 0.496434 0.000000
H1660 H     H_    0.667922 0.060350 0.498153 0.000000
C1495 C     C_3   0.659708 0.640292 0.303403 0.000000
N499  N     N_3   0.682067 0.656626 0.264769 0.000000
C1496 C     C_3   0.686329 0.681320 0.278388 0.000000
C1497 C     C_R   0.704819 0.697928 0.220250 0.000000
N500  N     N_R   0.728431 0.711332 0.246602 0.000000
C1498 C     C_R   0.739112 0.720535 0.172484 0.000000
C1499 C     C_R   0.763116 0.733477 0.158354 0.000000
C1500 C     C_R   0.771099 0.737246 0.076766 0.000000
C1501 C     C_R   0.755124 0.727607 0.010580 0.000000
C1502 C     C_R   0.731120 0.714477 0.026176 0.000000
C1503 C     C_R   0.723151 0.712673 0.106577 0.000000
N501  N     N_R   0.700793 0.698906 0.133601 0.000000
H1661 H     H_    0.656854 0.648363 0.360394 0.000000
H1662 H     H_    0.644590 0.636169 0.259823 0.000000
H1663 H     H_    0.659738 0.622663 0.317537 0.000000
H1664 H     H_    0.680404 0.653764 0.200480 0.000000
H1665 H     H_    0.669714 0.683393 0.268154 0.000000
H1666 H     H_    0.693219 0.686068 0.343396 0.000000
H1667 H     H_    0.775853 0.740752 0.208222 0.000000
H1668 H     H_    0.790015 0.746818 0.065043 0.000000
H1669 H     H_    0.761552 0.729149 0.947250 0.000000
H1670 H     H_    0.719379 0.703861 0.977210 0.000000
C1504 C     C_3   0.686566 0.628126 0.459277 0.000000
N502  N     N_3   0.705793 0.632207 0.403057 0.000000
C1505 C     C_3   0.723581 0.656290 0.419631 0.000000
C1506 C     C_R   0.744620 0.662476 0.368153 0.000000
N503  N     N_R   0.751523 0.645820 0.339087 0.000000
C1507 C     C_R   0.770007 0.659728 0.290102 0.000000
C1508 C     C_R   0.782003 0.652127 0.237646 0.000000
C1509 C     C_R   0.799211 0.668970 0.186534 0.000000
C1510 C     C_R   0.803557 0.692981 0.187449 0.000000
C1511 C     C_R   0.790424 0.700155 0.238287 0.000000
C1512 C     C_R   0.773864 0.683225 0.290070 0.000000
N504  N     N_R   0.758062 0.685726 0.339745 0.000000
H1671 H     H_    0.670759 0.611446 0.442133 0.000000
H1672 H     H_    0.692412 0.626500 0.524391 0.000000
H1673 H     H_    0.682129 0.643602 0.456871 0.000000
H1674 H     H_    0.699849 0.631429 0.340634 0.000000
H1675 H     H_    0.716241 0.669186 0.402631 0.000000
H1676 H     H_    0.728787 0.657418 0.487037 0.000000
H1677 H     H_    0.776508 0.633317 0.231364 0.000000
H1678 H     H_    0.808611 0.663261 0.143313 0.000000
H1679 H     H_    0.816727 0.706026 0.146232 0.000000
H1680 H     H_    0.793364 0.718529 0.236465 0.000000
C1513 C     C_3   0.750329 0.779555 0.552009 0.000000
N505  N     N_3   0.746235 0.754418 0.554565 0.000000
C1514 C     C_3   0.723306 0.740235 0.513000 0.000000
C1515 C     C_R   0.718145 0.714080 0.512394 0.000000
N506  N     N_R   0.735190 0.709452 0.474483 0.000000
C1516 C     C_R   0.743595 0.701026 0.540933 0.000000
C1517 C     C_R   0.765084 0.699994 0.546932 0.000000
C1518 C     C_R   0.774212 0.698598 0.626604 0.000000
C1519 C     C_R   0.761671 0.698158 0.697470 0.000000
C1520 C     C_R   0.739185 0.697486 0.689429 0.000000
C1521 C     C_R   0.729742 0.697330 0.609569 0.000000
N507  N     N_R   0.710971 0.701922 0.588944 0.000000
H1681 H     H_    0.755045 0.786911 0.616332 0.000000
H1682 H     H_    0.765276 0.790144 0.509597 0.000000
H1683 H     H_    0.734173 0.781369 0.528783 0.000000
H1684 H     H_    0.745163 0.748964 0.617836 0.000000
H1685 H     H_    0.709128 0.742152 0.547429 0.000000
H1686 H     H_    0.724423 0.747346 0.448388 0.000000
H1687 H     H_    0.774957 0.701350 0.491515 0.000000
H1688 H     H_    0.791670 0.698966 0.634031 0.000000
H1689 H     H_    0.769579 0.698459 0.759513 0.000000
H1690 H     H_    0.730172 0.698686 0.744564 0.000000
C1522 C     C_3   0.859379 0.346270 0.186288 0.000000
N508  N     N_3   0.882745 0.358314 0.227844 0.000000
C1523 C     C_3   0.887232 0.382885 0.244644 0.000000
C1524 C     C_R   0.892906 0.388441 0.335327 0.000000
N509  N     N_R   0.876221 0.390257 0.386589 0.000000
C1525 C     C_R   0.882915 0.384773 0.462918 0.000000
C1526 C     C_R   0.869667 0.378289 0.534451 0.000000
C1527 C     C_R   0.877613 0.368936 0.602521 0.000000
C1528 C     C_R   0.898669 0.366551 0.598437 0.000000
C1529 C     C_R   0.912055 0.373549 0.526378 0.000000
C1530 C     C_R   0.903577 0.382307 0.458598 0.000000
N510  N     N_R   0.911594 0.386072 0.378951 0.000000
H1691 H     H_    0.856356 0.327892 0.168867 0.000000
H1692 H     H_    0.845129 0.344603 0.229647 0.000000
H1693 H     H_    0.858678 0.356367 0.127682 0.000000
H1694 H     H_    0.895218 0.359423 0.183768 0.000000
H1695 H     H_    0.902424 0.395077 0.207298 0.000000
H1696 H     H_    0.870747 0.384906 0.228732 0.000000
H1697 H     H_    0.852401 0.378045 0.534956 0.000000
H1698 H     H_    0.866849 0.362548 0.658086 0.000000
H1699 H     H_    0.904210 0.358332 0.650830 0.000000
H1700 H     H_    0.927190 0.369637 0.521375 0.000000
C1531 C     C_3   0.963297 0.377285 0.120009 0.000000
N511  N     N_3   0.943705 0.381670 0.147874 0.000000
C1532 C     C_3   0.949104 0.406693 0.128711 0.000000
C1533 C     C_R   0.966249 0.423428 0.191043 0.000000
N512  N     N_R   0.967235 0.417290 0.275369 0.000000
C1534 C     C_R   0.986555 0.436603 0.303418 0.000000
C1535 C     C_R   0.001165 0.437720 0.371472 0.000000
C1536 C     C_R   0.019156 0.459595 0.393693 0.000000
C1537 C     C_R   0.022427 0.479717 0.345728 0.000000
C1538 C     C_R   0.010318 0.477273 0.269330 0.000000
C1539 C     C_R   0.994020 0.454624 0.245063 0.000000
N513  N     N_R   0.982652 0.446775 0.169807 0.000000
H1701 H     H_    0.962963 0.361044 0.152611 0.000000
H1702 H     H_    0.960922 0.374103 0.051614 0.000000
H1703 H     H_    0.980754 0.392731 0.133666 0.000000
H1704 H     H_    0.941511 0.378146 0.212271 0.000000
H1705 H     H_    0.956587 0.411543 0.065388 0.000000
H1706 H     H_    0.932497 0.408544 0.128528 0.000000
H1707 H     H_    0.000752 0.421793 0.400374 0.000000
H1708 H     H_    0.030626 0.460982 0.447978 0.000000
H1709 H     H_    0.035952 0.496967 0.364835 0.000000
H1710 H     H_    0.014556 0.492913 0.231385 0.000000
C1540 C     C_3   0.955459 0.475289 0.429723 0.000000
N514  N     N_3   0.967159 0.459765 0.438398 0.000000
C1541 C     C_3   0.950354 0.437852 0.479490 0.000000
C1542 C     C_R   0.963413 0.425238 0.519060 0.000000
N515  N     N_R   0.964031 0.405962 0.480983 0.000000
C1543 C     C_R   0.980003 0.401788 0.530644 0.000000
C1544 C     C_R   0.991171 0.387725 0.513824 0.000000
C1545 C     C_R   0.010315 0.389206 0.564129 0.000000
C1546 C     C_R   0.016166 0.402429 0.635817 0.000000
C1547 C     C_R   0.005571 0.417261 0.650142 0.000000
C1548 C     C_R   0.988327 0.417744 0.594430 0.000000
N516  N     N_R   0.978249 0.433221 0.589396 0.000000
H1711 H     H_    0.951509 0.478246 0.492869 0.000000
H1712 H     H_    0.966924 0.492238 0.395395 0.000000
H1713 H     H_    0.937851 0.466189 0.399295 0.000000
H1714 H     H_    0.981840 0.468021 0.479227 0.000000
H1715 H     H_    0.939600 0.441067 0.526397 0.000000
H1716 H     H_    0.938025 0.426402 0.431291 0.000000
H1717 H     H_    0.985978 0.376458 0.461291 0.000000
H1718 H     H_    0.020373 0.379420 0.549521 0.000000
H1719 H     H_    0.029713 0.401811 0.679007 0.000000
H1720 H     H_    0.010963 0.427628 0.705159 0.000000
C1549 C     C_3   0.703776 0.133797 0.320210 0.000000
N517  N     N_3   0.682647 0.135784 0.287610 0.000000
C1550 C     C_3   0.687074 0.160841 0.285493 0.000000
C1551 C     C_R   0.706365 0.175481 0.229262 0.000000
N518  N     N_R   0.728765 0.191500 0.258503 0.000000
C1552 C     C_R   0.740919 0.198264 0.185894 0.000000
C1553 C     C_R   0.764396 0.214398 0.175123 0.000000
C1554 C     C_R   0.773504 0.219753 0.095280 0.000000
C1555 C     C_R   0.758698 0.209811 0.026574 0.000000
C1556 C     C_R   0.734843 0.194605 0.037906 0.000000
C1557 C     C_R   0.726273 0.188008 0.117969 0.000000
N519  N     N_R   0.703694 0.173664 0.142746 0.000000
H1721 H     H_    0.699176 0.114485 0.332905 0.000000
H1722 H     H_    0.717999 0.140936 0.273063 0.000000
H1723 H     H_    0.710136 0.143651 0.379789 0.000000
H1724 H     H_    0.669717 0.127601 0.333031 0.000000
H1725 H     H_    0.670955 0.162026 0.260735 0.000000
H1726 H     H_    0.692501 0.167858 0.348558 0.000000
H1727 H     H_    0.775379 0.223889 0.226033 0.000000
H1728 H     H_    0.791950 0.232531 0.086353 0.000000
H1729 H     H_    0.765501 0.214882 0.963569 0.000000
H1730 H     H_    0.723505 0.189488 0.984031 0.000000
C1558 C     C_3   0.653650 0.173581 0.394380 0.000000
N520  N     N_3   0.666394 0.171602 0.470073 0.000000
C1559 C     C_3   0.690067 0.191694 0.476181 0.000000
C1560 C     C_R   0.705756 0.182165 0.515564 0.000000
N521  N     N_R   0.700349 0.169336 0.591137 0.000000
C1561 C     C_R   0.720368 0.166338 0.606489 0.000000
C1562 C     C_R   0.725325 0.154554 0.672818 0.000000
C1563 C     C_R   0.747267 0.153820 0.676796 0.000000
C1564 C     C_R   0.764487 0.166632 0.618701 0.000000
C1565 C     C_R   0.759237 0.178566 0.552235 0.000000
C1566 C     C_R   0.736485 0.176779 0.544011 0.000000
N522  N     N_R   0.727446 0.186295 0.482764 0.000000
H1731 H     H_    0.645268 0.155852 0.365008 0.000000
H1732 H     H_    0.639162 0.178149 0.409563 0.000000
H1733 H     H_    0.665427 0.187439 0.349731 0.000000
H1734 H     H_    0.668332 0.155715 0.466159 0.000000
H1735 H     H_    0.697683 0.200524 0.415310 0.000000
H1736 H     H_    0.689867 0.205453 0.517504 0.000000
H1737 H     H_    0.711871 0.145372 0.717194 0.000000
H1738 H     H_    0.751521 0.143671 0.725592 0.000000
H1739 H     H_    0.782086 0.167276 0.625339 0.000000
H1740 H     H_    0.773195 0.189678 0.511478 0.000000
C1567 C     C_3   0.723539 0.247009 0.132056 0.000000
N523  N     N_3   0.721176 0.247425 0.222049 0.000000
C1568 C     C_3   0.745201 0.257884 0.256994 0.000000
C1569 C     C_R   0.744525 0.256568 0.349234 0.000000
N524  N     N_R   0.748751 0.276468 0.394634 0.000000
C1570 C     C_R   0.754147 0.270733 0.472200 0.000000
C1571 C     C_R   0.761088 0.284992 0.541735 0.000000
C1572 C     C_R   0.769883 0.276974 0.611176 0.000000
C1573 C     C_R   0.772116 0.255618 0.608248 0.000000
C1574 C     C_R   0.763723 0.241020 0.538780 0.000000
C1575 C     C_R   0.753644 0.248539 0.472761 0.000000
N525  N     N_R   0.746849 0.238582 0.396105 0.000000
H1741 H     H_    0.718926 0.228382 0.114130 0.000000
H1742 H     H_    0.711392 0.253367 0.099751 0.000000
H1743 H     H_    0.742026 0.259090 0.112867 0.000000
H1744 H     H_    0.712604 0.229569 0.244100 0.000000
H1745 H     H_    0.755069 0.248100 0.236217 0.000000
H1746 H     H_    0.754804 0.277119 0.237153 0.000000
H1747 H     H_    0.761125 0.302503 0.540943 0.000000
H1748 H     H_    0.776505 0.288102 0.665915 0.000000
H1749 H     H_    0.780434 0.250301 0.660836 0.000000
H1750 H     H_    0.766425 0.225088 0.535211 0.000000
C1576 C     C_3   0.463966 0.489121 0.358697 0.000000
N526  N     N_3   0.449699 0.474823 0.289322 0.000000
C1577 C     C_3   0.459600 0.458342 0.271023 0.000000
C1578 C     C_R   0.444214 0.439480 0.213199 0.000000
N527  N     N_R   0.441025 0.443876 0.129320 0.000000
C1579 C     C_R   0.421395 0.423807 0.108435 0.000000
C1580 C     C_R   0.407123 0.420045 0.036925 0.000000
C1581 C     C_R   0.388270 0.397631 0.026274 0.000000
C1582 C     C_R   0.384510 0.379443 0.085577 0.000000
C1583 C     C_R   0.398773 0.383690 0.157856 0.000000
C1584 C     C_R   0.416115 0.406790 0.171421 0.000000
N528  N     N_R   0.430365 0.416197 0.240434 0.000000
H1751 H     H_    0.459573 0.504242 0.369025 0.000000
H1752 H     H_    0.460306 0.477777 0.416787 0.000000
H1753 H     H_    0.483087 0.496675 0.343334 0.000000
H1754 H     H_    0.453607 0.486857 0.238332 0.000000
H1755 H     H_    0.476567 0.468447 0.239420 0.000000
H1756 H     H_    0.460808 0.449038 0.330213 0.000000
H1757 H     H_    0.410446 0.434115 0.989706 0.000000
H1758 H     H_    0.376805 0.394104 0.970566 0.000000
H1759 H     H_    0.370056 0.361894 0.075401 0.000000
H1760 H     H_    0.396247 0.368849 0.199553 0.000000
C1585 C     C_3   0.499614 0.421922 0.563267 0.000000
N529  N     N_3   0.476544 0.422223 0.567194 0.000000
C1586 C     C_3   0.473602 0.436463 0.496957 0.000000
C1587 C     C_R   0.449691 0.435247 0.501434 0.000000
N530  N     N_R   0.430594 0.416695 0.463197 0.000000
C1588 C     C_R   0.412736 0.412669 0.517141 0.000000
C1589 C     C_R   0.391217 0.392565 0.526341 0.000000
C1590 C     C_R   0.376068 0.392015 0.588813 0.000000
C1591 C     C_R   0.383309 0.410329 0.646229 0.000000
C1592 C     C_R   0.406093 0.428866 0.643046 0.000000
C1593 C     C_R   0.420398 0.429651 0.577887 0.000000
N531  N     N_R   0.443799 0.444439 0.569729 0.000000
H1761 H     H_    0.501481 0.410386 0.615426 0.000000
H1762 H     H_    0.501053 0.414017 0.505294 0.000000
H1763 H     H_    0.514092 0.440483 0.565261 0.000000
H1764 H     H_    0.477064 0.431615 0.620780 0.000000
H1765 H     H_    0.487187 0.455127 0.500137 0.000000
H1766 H     H_    0.474478 0.428789 0.437551 0.000000
H1767 H     H_    0.386823 0.376502 0.492817 0.000000
H1768 H     H_    0.358840 0.376673 0.595286 0.000000
H1769 H     H_    0.371647 0.409377 0.696450 0.000000
H1770 H     H_    0.412493 0.442174 0.691544 0.000000
C1594 C     C_3   0.512134 0.466160 0.329825 0.000000
N532  N     N_3   0.512096 0.442622 0.334143 0.000000
C1595 C     C_3   0.493096 0.424843 0.282930 0.000000
C1596 C     C_R   0.482732 0.401963 0.331190 0.000000
N533  N     N_R   0.497767 0.393108 0.366586 0.000000
C1597 C     C_R   0.483474 0.376277 0.422089 0.000000
C1598 C     C_R   0.490311 0.364448 0.484488 0.000000
C1599 C     C_R   0.473958 0.351711 0.545841 0.000000
C1600 C     C_R   0.451450 0.351265 0.544616 0.000000
C1601 C     C_R   0.445001 0.363632 0.481979 0.000000
C1602 C     C_R   0.461162 0.375518 0.420258 0.000000
N534  N     N_R   0.459626 0.391123 0.361650 0.000000
H1771 H     H_    0.528804 0.479456 0.359322 0.000000
H1772 H     H_    0.511498 0.471720 0.263494 0.000000
H1773 H     H_    0.497854 0.466386 0.366997 0.000000
H1774 H     H_    0.511138 0.437204 0.396804 0.000000
H1775 H     H_    0.479443 0.430512 0.263790 0.000000
H1776 H     H_    0.501034 0.421609 0.227092 0.000000
H1777 H     H_    0.508141 0.365857 0.488068 0.000000
H1778 H     H_    0.479129 0.342917 0.597249 0.000000
H1779 H     H_    0.439190 0.341861 0.594540 0.000000
H1780 H     H_    0.428183 0.364709 0.483751 0.000000
C1603 C     C_3   0.796355 0.097032 0.033219 0.000000
N535  N     N_3   0.817428 0.092726 0.044008 0.000000
C1604 C     C_3   0.836397 0.114294 0.078258 0.000000
C1605 C     C_R   0.858122 0.111063 0.098086 0.000000
N536  N     N_R   0.858669 0.088746 0.110809 0.000000
C1606 C     C_R   0.881307 0.094549 0.085445 0.000000
C1607 C     C_R   0.890777 0.079638 0.059283 0.000000
C1608 C     C_R   0.914416 0.089286 0.036608 0.000000
C1609 C     C_R   0.927959 0.113914 0.032914 0.000000
C1610 C     C_R   0.917147 0.128807 0.043798 0.000000
C1611 C     C_R   0.893768 0.118811 0.069010 0.000000
N537  N     N_R   0.879532 0.129884 0.074760 0.000000
H1781 H     H_    0.782027 0.081409 0.002506 0.000000
H1782 H     H_    0.790157 0.099516 0.095078 0.000000
H1783 H     H_    0.800270 0.113095 0.992185 0.000000
H1784 H     H_    0.822555 0.090852 0.983912 0.000000
H1785 H     H_    0.841966 0.128141 0.027688 0.000000
H1786 H     H_    0.830666 0.120951 0.132566 0.000000
H1787 H     H_    0.880314 0.060825 0.052488 0.000000
H1788 H     H_    0.922132 0.077512 0.019114 0.000000
H1789 H     H_    0.946367 0.121429 0.013891 0.000000
H1790 H     H_    0.927146 0.147717 0.031538 0.000000
C1612 C     C_3   0.272275 0.115665 0.449946 0.000000
N538  N     N_3   0.252903 0.120036 0.479915 0.000000
C1613 C     C_3   0.245564 0.105729 0.556151 0.000000
C1614 C     C_R   0.226700 0.108535 0.597860 0.000000
N539  N     N_R   0.230785 0.128699 0.642885 0.000000
C1615 C     C_R   0.212228 0.120543 0.694169 0.000000
C1616 C     C_R   0.208845 0.133326 0.756979 0.000000
C1617 C     C_R   0.188626 0.122516 0.803809 0.000000
C1618 C     C_R   0.173235 0.098686 0.791592 0.000000
C1619 C     C_R   0.177985 0.085529 0.732873 0.000000
C1620 C     C_R   0.197290 0.096935 0.679758 0.000000
N540  N     N_R   0.206206 0.088262 0.617853 0.000000
H1791 H     H_    0.280993 0.128719 0.400140 0.000000
H1792 H     H_    0.285881 0.118287 0.500571 0.000000
H1793 H     H_    0.265266 0.097246 0.424884 0.000000
H1794 H     H_    0.238765 0.112976 0.435963 0.000000
H1795 H     H_    0.237388 0.086745 0.538913 0.000000
H1796 H     H_    0.260758 0.110721 0.601735 0.000000
H1797 H     H_    0.220887 0.151895 0.766178 0.000000
H1798 H     H_    0.184960 0.132536 0.850464 0.000000
H1799 H     H_    0.157623 0.090028 0.830006 0.000000
H1800 H     H_    0.166622 0.066646 0.734307 0.000000
C1621 C     C_3   0.278213 0.346242 0.207484 0.000000
N541  N     N_3   0.254030 0.327394 0.195891 0.000000
C1622 C     C_3   0.250921 0.320094 0.108779 0.000000
C1623 C     C_R   0.227415 0.298607 0.097443 0.000000
N542  N     N_R   0.225362 0.275825 0.080969 0.000000
C1624 C     C_R   0.201810 0.261748 0.094450 0.000000
C1625 C     C_R   0.190299 0.237158 0.107936 0.000000
C1626 C     C_R   0.166313 0.226191 0.125964 0.000000
C1627 C     C_R   0.154405 0.240057 0.137158 0.000000
C1628 C     C_R   0.166881 0.264856 0.134409 0.000000
C1629 C     C_R   0.190476 0.275435 0.112180 0.000000
N543  N     N_R   0.206010 0.299087 0.113756 0.000000
H1801 H     H_    0.290830 0.338028 0.214295 0.000000
H1802 H     H_    0.283400 0.359023 0.152690 0.000000
H1803 H     H_    0.279056 0.356197 0.265020 0.000000
H1804 H     H_    0.241756 0.333971 0.208130 0.000000
H1805 H     H_    0.252372 0.335417 0.067642 0.000000
H1806 H     H_    0.265063 0.314836 0.094756 0.000000
H1807 H     H_    0.199889 0.226485 0.111981 0.000000
H1808 H     H_    0.157169 0.206835 0.135529 0.000000
H1809 H     H_    0.135823 0.231553 0.154384 0.000000
H1810 H     H_    0.158386 0.275574 0.153029 0.000000
C1630 C     C_3   0.035368 0.868875 0.053286 0.000000
N544  N     N_3   0.026614 0.884923 0.087765 0.000000
C1631 C     C_3   0.047292 0.906443 0.113805 0.000000
C1632 C     C_R   0.040924 0.926132 0.132940 0.000000
N545  N     N_R   0.057339 0.948177 0.166230 0.000000
C1633 C     C_R   0.042688 0.958825 0.179083 0.000000
C1634 C     C_R   0.048268 0.981879 0.204556 0.000000
C1635 C     C_R   0.030285 0.989219 0.208350 0.000000
C1636 C     C_R   0.006633 0.972677 0.198589 0.000000
C1637 C     C_R   0.001034 0.949265 0.177802 0.000000
C1638 C     C_R   0.019318 0.943507 0.159811 0.000000
N546  N     N_R   0.017499 0.923014 0.125908 0.000000
H1811 H     H_    0.021414 0.850009 0.057299 0.000000
H1812 H     H_    0.040137 0.873820 0.986568 0.000000
H1813 H     H_    0.051150 0.869901 0.090302 0.000000
H1814 H     H_    0.018736 0.876598 0.144207 0.000000
H1815 H     H_    0.053389 0.901809 0.174054 0.000000
H1816 H     H_    0.060791 0.912287 0.064445 0.000000
H1817 H     H_    0.065835 0.994269 0.224184 0.000000
H1818 H     H_    0.034601 0.007375 0.226961 0.000000
H1819 H     H_    0.992545 0.977984 0.208410 0.000000
H1820 H     H_    0.982609 0.936319 0.172463 0.000000
C1639 C     C_3   0.170980 0.385556 0.245351 0.000000
N547  N     N_3   0.164346 0.368527 0.177427 0.000000
C1640 C     C_3   0.152154 0.344502 0.213905 0.000000
C1641 C     C_R   0.145154 0.326281 0.147385 0.000000
N548  N     N_R   0.160848 0.318935 0.111043 0.000000
C1642 C     C_R   0.145855 0.302102 0.056934 0.000000
C1643 C     C_R   0.151105 0.288931 0.999965 0.000000
C1644 C     C_R   0.132302 0.271075 0.956764 0.000000
C1645 C     C_R   0.109136 0.268320 0.964879 0.000000
C1646 C     C_R   0.104795 0.284011 0.013294 0.000000
C1647 C     C_R   0.123010 0.299670 0.061923 0.000000
N549  N     N_R   0.121716 0.314852 0.117529 0.000000
H1821 H     H_    0.183430 0.403841 0.222206 0.000000
H1822 H     H_    0.154905 0.385785 0.270051 0.000000
H1823 H     H_    0.178889 0.379688 0.299032 0.000000
H1824 H     H_    0.179484 0.369870 0.147847 0.000000
H1825 H     H_    0.163372 0.340819 0.262208 0.000000
H1826 H     H_    0.135897 0.343194 0.243309 0.000000
H1827 H     H_    0.169032 0.291225 0.992127 0.000000
H1828 H     H_    0.135731 0.259444 0.915565 0.000000
H1829 H     H_    0.094519 0.254403 0.931405 0.000000
H1830 H     H_    0.087759 0.284162 0.014042 0.000000
C1648 C     C_3   0.053802 0.328114 0.843380 0.000000
N550  N     N_3   0.065792 0.324680 0.919598 0.000000
C1649 C     C_3   0.091311 0.334963 0.906326 0.000000
C1650 C     C_R   0.105171 0.354964 0.963737 0.000000
N551  N     N_R   0.104933 0.353149 0.050761 0.000000
C1651 C     C_R   0.118409 0.376164 0.072801 0.000000
C1652 C     C_R   0.124064 0.385214 0.152065 0.000000
C1653 C     C_R   0.140080 0.409238 0.159947 0.000000
C1654 C     C_R   0.151663 0.422787 0.089855 0.000000
C1655 C     C_R   0.145055 0.413618 0.010587 0.000000
C1656 C     C_R   0.127787 0.390393 0.003400 0.000000
N552  N     N_R   0.120481 0.377454 0.932813 0.000000
H1831 H     H_    0.034211 0.319051 0.852275 0.000000
H1832 H     H_    0.059207 0.347539 0.830705 0.000000
H1833 H     H_    0.057788 0.319808 0.788987 0.000000
H1834 H     H_    0.060080 0.306084 0.925896 0.000000
H1835 H     H_    0.097325 0.320710 0.915683 0.000000
H1836 H     H_    0.094778 0.343280 0.843165 0.000000
H1837 H     H_    0.117392 0.373803 0.207001 0.000000
H1838 H     H_    0.145202 0.416821 0.221944 0.000000
H1839 H     H_    0.166491 0.440404 0.096611 0.000000
H1840 H     H_    0.155168 0.423754 0.957783 0.000000
C1657 C     C_3   0.081072 0.259465 0.312476 0.000000
N553  N     N_3   0.095061 0.278355 0.370836 0.000000
C1658 C     C_3   0.107134 0.300961 0.324069 0.000000
C1659 C     C_R   0.094531 0.316366 0.331867 0.000000
N554  N     N_R   0.087011 0.320139 0.408304 0.000000
C1660 C     C_R   0.075233 0.333196 0.385973 0.000000
C1661 C     C_R   0.063367 0.341124 0.439252 0.000000
C1662 C     C_R   0.056158 0.358101 0.408854 0.000000
C1663 C     C_R   0.062581 0.367910 0.328896 0.000000
C1664 C     C_R   0.073382 0.358807 0.274985 0.000000
C1665 C     C_R   0.078163 0.339743 0.302432 0.000000
N555  N     N_R   0.089580 0.328383 0.263826 0.000000
H1841 H     H_    0.073253 0.241887 0.347183 0.000000
H1842 H     H_    0.066573 0.263272 0.284256 0.000000
H1843 H     H_    0.092474 0.258067 0.263103 0.000000
H1844 H     H_    0.108429 0.273960 0.394730 0.000000
H1845 H     H_    0.125501 0.310626 0.350434 0.000000
H1846 H     H_    0.107840 0.297376 0.257302 0.000000
H1847 H     H_    0.061082 0.335454 0.504894 0.000000
H1848 H     H_    0.047639 0.365380 0.450043 0.000000
H1849 H     H_    0.059578 0.383271 0.308643 0.000000
H1850 H     H_    0.079999 0.369084 0.218392 0.000000
C1666 C     C_3   0.999217 0.832494 0.824309 0.000000
N556  N     N_3   0.002848 0.854876 0.862902 0.000000
C1667 C     C_3   0.982119 0.859221 0.842097 0.000000
C1668 C     C_R   0.988252 0.885014 0.852516 0.000000
N557  N     N_R   0.993798 0.897556 0.928907 0.000000
C1669 C     C_R   0.001456 0.920350 0.898427 0.000000
C1670 C     C_R   0.015522 0.941789 0.936518 0.000000
C1671 C     C_R   0.018691 0.963135 0.895308 0.000000
C1672 C     C_R   0.007279 0.962310 0.818511 0.000000
C1673 C     C_R   0.996594 0.940675 0.777320 0.000000
C1674 C     C_R   0.996823 0.920771 0.815237 0.000000
N558  N     N_R   0.989953 0.899238 0.780860 0.000000
H1851 H     H_    0.012272 0.826373 0.852171 0.000000
H1852 H     H_    0.980831 0.818402 0.835843 0.000000
H1853 H     H_    0.002045 0.835498 0.755414 0.000000
H1854 H     H_    0.017589 0.868698 0.834338 0.000000
H1855 H     H_    0.977693 0.855616 0.774534 0.000000
H1856 H     H_    0.966347 0.847514 0.879255 0.000000
H1857 H     H_    0.024836 0.942751 0.994484 0.000000
H1858 H     H_    0.028938 0.980226 0.925310 0.000000
H1859 H     H_    0.007693 0.978628 0.789686 0.000000
H1860 H     H_    0.987019 0.938584 0.719222 0.000000
C1675 C     C_3   0.926090 0.872498 0.882699 0.000000
N559  N     N_3   0.927804 0.888648 0.813148 0.000000
C1676 C     C_3   0.931045 0.877665 0.739623 0.000000
C1677 C     C_R   0.934268 0.894604 0.668983 0.000000
N560  N     N_R   0.918011 0.903946 0.652968 0.000000
C1678 C     C_R   0.932227 0.925225 0.614828 0.000000
C1679 C     C_R   0.930801 0.946780 0.616704 0.000000
C1680 C     C_R   0.947255 0.966219 0.571280 0.000000
C1681 C     C_R   0.964970 0.963829 0.527826 0.000000
C1682 C     C_R   0.968589 0.943378 0.540819 0.000000
C1683 C     C_R   0.953253 0.925553 0.592775 0.000000
N561  N     N_R   0.956088 0.907204 0.631148 0.000000
H1861 H     H_    0.913109 0.873436 0.924813 0.000000
H1862 H     H_    0.919430 0.853711 0.861563 0.000000
H1863 H     H_    0.943792 0.878185 0.914197 0.000000
H1864 H     H_    0.943252 0.904651 0.822898 0.000000
H1865 H     H_    0.947004 0.874533 0.749517 0.000000
H1866 H     H_    0.915348 0.860421 0.727871 0.000000
H1867 H     H_    0.916709 0.948388 0.648700 0.000000
H1868 H     H_    0.945758 0.983030 0.567205 0.000000
H1869 H     H_    0.977286 0.978790 0.490130 0.000000
H1870 H     H_    0.983991 0.942447 0.516012 0.000000
C1684 C     C_3   0.912302 0.232424 0.770087 0.000000
N562  N     N_3   0.929956 0.223323 0.758556 0.000000
C1685 C     C_3   0.927394 0.215561 0.672353 0.000000
C1686 C     C_R   0.938740 0.200224 0.658764 0.000000
N563  N     N_R   0.962801 0.208962 0.644916 0.000000
C1687 C     C_R   0.964612 0.188409 0.630642 0.000000
C1688 C     C_R   0.984837 0.185957 0.612856 0.000000
C1689 C     C_R   0.982402 0.162930 0.599712 0.000000
C1690 C     C_R   0.960126 0.143114 0.604153 0.000000
C1691 C     C_R   0.939815 0.146024 0.619691 0.000000
C1692 C     C_R   0.942363 0.168951 0.631186 0.000000
N564  N     N_R   0.925179 0.176139 0.645260 0.000000
H1871 H     H_    0.920907 0.252120 0.772120 0.000000
H1872 H     H_    0.898519 0.227210 0.720158 0.000000
H1873 H     H_    0.902608 0.224962 0.827756 0.000000
H1874 H     H_    0.925701 0.208238 0.798057 0.000000
H1875 H     H_    0.908522 0.203741 0.658327 0.000000
H1876 H     H_    0.936673 0.230908 0.629623 0.000000
H1877 H     H_    0.002063 0.201402 0.608651 0.000000
H1878 H     H_    0.997977 0.160316 0.586268 0.000000
H1879 H     H_    0.958610 0.125228 0.594818 0.000000
H1880 H     H_    0.922683 0.130606 0.624187 0.000000
C1693 C     C_3   0.918871 0.123512 0.833472 0.000000
N565  N     N_3   0.899614 0.130660 0.837780 0.000000
C1694 C     C_3   0.909848 0.156366 0.853503 0.000000
C1695 C     C_R   0.890980 0.164903 0.847037 0.000000
N566  N     N_R   0.882071 0.169009 0.770597 0.000000
C1696 C     C_R   0.867874 0.179062 0.792691 0.000000
C1697 C     C_R   0.856269 0.189107 0.740850 0.000000
C1698 C     C_R   0.845643 0.201842 0.777133 0.000000
C1699 C     C_R   0.848167 0.205667 0.863054 0.000000
C1700 C     C_R   0.860336 0.195802 0.913590 0.000000
C1701 C     C_R   0.868267 0.180732 0.878135 0.000000
N567  N     N_R   0.881429 0.170305 0.915596 0.000000
H1881 H     H_    0.912898 0.105035 0.860681 0.000000
H1882 H     H_    0.923234 0.123118 0.767144 0.000000
H1883 H     H_    0.935062 0.136280 0.867910 0.000000
H1884 H     H_    0.889258 0.121546 0.889314 0.000000
H1885 H     H_    0.917968 0.160377 0.916904 0.000000
H1886 H     H_    0.923888 0.166437 0.807470 0.000000
H1887 H     H_    0.856438 0.188542 0.673629 0.000000
H1888 H     H_    0.836688 0.210164 0.737669 0.000000
H1889 H     H_    0.841303 0.217093 0.890288 0.000000
H1890 H     H_    0.864267 0.200711 0.978573 0.000000
C1702 C     C_3   0.186271 0.240699 0.817530 0.000000
N568  N     N_3   0.210511 0.251513 0.786208 0.000000
C1703 C     C_3   0.225770 0.245156 0.843264 0.000000
C1704 C     C_R   0.250136 0.264498 0.842858 0.000000
N569  N     N_R   0.260179 0.276925 0.769656 0.000000
C1705 C     C_R   0.274572 0.299225 0.799061 0.000000
C1706 C     C_R   0.287808 0.320317 0.754699 0.000000
C1707 C     C_R   0.302332 0.340698 0.798779 0.000000
C1708 C     C_R   0.302998 0.340099 0.885936 0.000000
C1709 C     C_R   0.288286 0.319484 0.929872 0.000000
C1710 C     C_R   0.274369 0.299168 0.885192 0.000000
N570  N     N_R   0.259433 0.277156 0.915662 0.000000
H1891 H     H_    0.174305 0.243938 0.770528 0.000000
H1892 H     H_    0.179909 0.220957 0.826524 0.000000
H1893 H     H_    0.185616 0.248920 0.877738 0.000000
H1894 H     H_    0.216525 0.270090 0.783542 0.000000
H1895 H     H_    0.220529 0.245669 0.907684 0.000000
H1896 H     H_    0.225193 0.227561 0.827603 0.000000
H1897 H     H_    0.288404 0.321258 0.687679 0.000000
H1898 H     H_    0.313678 0.357062 0.764877 0.000000
H1899 H     H_    0.315279 0.355745 0.919782 0.000000
H1900 H     H_    0.289049 0.319296 0.997335 0.000000
C1711 C     C_3   0.323315 0.248042 0.630414 0.000000
N571  N     N_3   0.299162 0.236170 0.595298 0.000000
C1712 C     C_3   0.283262 0.227098 0.665520 0.000000
C1713 C     C_R   0.257790 0.215033 0.639611 0.000000
N572  N     N_R   0.243757 0.226821 0.648030 0.000000
C1714 C     C_R   0.221530 0.208232 0.653446 0.000000
C1715 C     C_R   0.200104 0.208755 0.667865 0.000000
C1716 C     C_R   0.179174 0.187687 0.662767 0.000000
C1717 C     C_R   0.179752 0.166530 0.640748 0.000000
C1718 C     C_R   0.201363 0.166092 0.628578 0.000000
C1719 C     C_R   0.222186 0.186841 0.641444 0.000000
N573  N     N_R   0.245053 0.190127 0.638548 0.000000
H1901 H     H_    0.331711 0.267067 0.609077 0.000000
H1902 H     H_    0.323445 0.247357 0.700192 0.000000
H1903 H     H_    0.333691 0.238811 0.609108 0.000000
H1904 H     H_    0.297963 0.221342 0.562661 0.000000
H1905 H     H_    0.287089 0.213530 0.700423 0.000000
H1906 H     H_    0.285378 0.242407 0.704612 0.000000
H1907 H     H_    0.198975 0.225301 0.674281 0.000000
H1908 H     H_    0.162191 0.188069 0.670900 0.000000
H1909 H     H_    0.163241 0.150383 0.631807 0.000000
H1910 H     H_    0.201255 0.149904 0.606158 0.000000
C1720 C     C_3   0.794732 0.997397 0.404997 0.000000
N574  N     N_3   0.796518 0.974905 0.419352 0.000000
C1721 C     C_3   0.819067 0.976673 0.389049 0.000000
C1722 C     C_R   0.816316 0.951864 0.383847 0.000000
N575  N     N_R   0.810875 0.937655 0.455449 0.000000
C1723 C     C_R   0.809516 0.916824 0.428499 0.000000
C1724 C     C_R   0.802055 0.895293 0.471926 0.000000
C1725 C     C_R   0.804579 0.876675 0.434934 0.000000
C1726 C     C_R   0.814801 0.880378 0.356501 0.000000
C1727 C     C_R   0.820274 0.901707 0.311890 0.000000
C1728 C     C_R   0.816015 0.919176 0.347180 0.000000
N576  N     N_R   0.818665 0.940585 0.313035 0.000000
H1911 H     H_    0.775803 0.993935 0.409179 0.000000
H1912 H     H_    0.805003 0.010453 0.452967 0.000000
H1913 H     H_    0.802113 0.005658 0.344371 0.000000
H1914 H     H_    0.782479 0.961440 0.386276 0.000000
H1915 H     H_    0.824650 0.986590 0.329967 0.000000
H1916 H     H_    0.833682 0.986655 0.433488 0.000000
H1917 H     H_    0.792819 0.892475 0.529793 0.000000
H1918 H     H_    0.798999 0.859442 0.467672 0.000000
H1919 H     H_    0.818084 0.866465 0.328900 0.000000
H1920 H     H_    0.828827 0.905000 0.253603 0.000000
C1729 C     C_3   0.760978 0.984847 0.211054 0.000000
N577  N     N_3   0.785103 0.999043 0.181332 0.000000
C1730 C     C_3   0.797709 0.984366 0.191988 0.000000
C1731 C     C_R   0.824262 0.998352 0.180550 0.000000
N578  N     N_R   0.837275 0.985489 0.171604 0.000000
C1732 C     C_R   0.859561 0.003066 0.160239 0.000000
C1733 C     C_R   0.878908 0.001955 0.125668 0.000000
C1734 C     C_R   0.900826 0.021887 0.133424 0.000000
C1735 C     C_R   0.902502 0.042173 0.173542 0.000000
C1736 C     C_R   0.881872 0.044081 0.192296 0.000000
C1737 C     C_R   0.860390 0.024895 0.174170 0.000000
N579  N     N_R   0.838177 0.023341 0.178942 0.000000
H1921 H     H_    0.760497 0.985793 0.279976 0.000000
H1922 H     H_    0.749026 0.992279 0.183200 0.000000
H1923 H     H_    0.754526 0.965725 0.194089 0.000000
H1924 H     H_    0.793492 0.013530 0.220993 0.000000
H1925 H     H_    0.793250 0.974670 0.252489 0.000000
H1926 H     H_    0.790559 0.969460 0.148041 0.000000
H1927 H     H_    0.877236 0.986314 0.092794 0.000000
H1928 H     H_    0.916735 0.021346 0.110807 0.000000
H1929 H     H_    0.919783 0.057283 0.183572 0.000000
H1930 H     H_    0.882684 0.060562 0.216473 0.000000
C1738 C     C_3   0.180229 0.984291 0.307847 0.000000
N580  N     N_3   0.160631 0.990998 0.296714 0.000000
C1739 C     C_3   0.158973 0.996488 0.207820 0.000000
C1740 C     C_R   0.144716 0.010249 0.194657 0.000000
N581  N     N_R   0.120220 0.998922 0.179234 0.000000
C1741 C     C_R   0.115829 0.017990 0.155768 0.000000
C1742 C     C_R   0.095579 0.017581 0.116961 0.000000
C1743 C     C_R   0.094630 0.039063 0.096322 0.000000
C1744 C     C_R   0.114286 0.060746 0.111109 0.000000
C1745 C     C_R   0.135407 0.061045 0.142172 0.000000
C1746 C     C_R   0.136132 0.039356 0.162116 0.000000
N582  N     N_R   0.155319 0.035217 0.183680 0.000000
H1931 H     H_    0.177363 0.972598 0.364862 0.000000
H1932 H     H_    0.180989 0.974111 0.252844 0.000000
H1933 H     H_    0.197339 0.000686 0.315509 0.000000
H1934 H     H_    0.165220 0.006814 0.329526 0.000000
H1935 H     H_    0.176976 0.007643 0.184609 0.000000
H1936 H     H_    0.150576 0.979649 0.171627 0.000000
H1937 H     H_    0.080984 0.000954 0.098709 0.000000
H1938 H     H_    0.078625 0.038909 0.066906 0.000000
H1939 H     H_    0.113521 0.077521 0.094061 0.000000
H1940 H     H_    0.150735 0.078137 0.146693 0.000000
C1747 C     C_3   0.149056 0.079596 0.410168 0.000000
N583  N     N_3   0.172853 0.080530 0.408441 0.000000
C1748 C     C_3   0.170351 0.057059 0.384406 0.000000
C1749 C     C_R   0.194239 0.057294 0.377939 0.000000
N584  N     N_R   0.204095 0.056913 0.302585 0.000000
C1750 C     C_R   0.223350 0.053619 0.325160 0.000000
C1751 C     C_R   0.240084 0.052793 0.273361 0.000000
C1752 C     C_R   0.256708 0.045798 0.308779 0.000000
C1753 C     C_R   0.255466 0.038958 0.393347 0.000000
C1754 C     C_R   0.238829 0.040837 0.444333 0.000000
C1755 C     C_R   0.224087 0.050276 0.409930 0.000000
N585  N     N_R   0.206554 0.053871 0.446263 0.000000
H1941 H     H_    0.149742 0.094715 0.447626 0.000000
H1942 H     H_    0.142630 0.081125 0.345199 0.000000
H1943 H     H_    0.136040 0.062204 0.437503 0.000000
H1944 H     H_    0.181303 0.084665 0.467407 0.000000
H1945 H     H_    0.159612 0.042941 0.430028 0.000000
H1946 H     H_    0.160704 0.052434 0.323524 0.000000
H1947 H     H_    0.240436 0.057590 0.207298 0.000000
H1948 H     H_    0.270009 0.044646 0.269780 0.000000
H1949 H     H_    0.267514 0.031993 0.419633 0.000000
H1950 H     H_    0.237060 0.033843 0.507538 0.000000
C1756 C     C_3   0.220816 0.303022 0.893649 0.000000
N586  N     N_3   0.227940 0.325080 0.938800 0.000000
C1757 C     C_3   0.212427 0.336260 0.915133 0.000000
C1758 C     C_R   0.219390 0.357317 0.967454 0.000000
N587  N     N_R   0.220698 0.355477 0.053605 0.000000
C1759 C     C_R   0.238340 0.377415 0.072384 0.000000
C1760 C     C_R   0.253587 0.384197 0.141800 0.000000
C1761 C     C_R   0.270141 0.408066 0.147523 0.000000
C1762 C     C_R   0.270920 0.424620 0.085065 0.000000
C1763 C     C_R   0.256841 0.417016 0.012851 0.000000
C1764 C     C_R   0.242748 0.392676 0.004638 0.000000
N588  N     N_R   0.231477 0.380380 0.935177 0.000000
H1951 H     H_    0.225554 0.290385 0.931104 0.000000
H1952 H     H_    0.201255 0.294191 0.882492 0.000000
H1953 H     H_    0.231114 0.307220 0.835237 0.000000
H1954 H     H_    0.245108 0.336851 0.919385 0.000000
H1955 H     H_    0.215905 0.342785 0.849711 0.000000
H1956 H     H_    0.193565 0.324045 0.926287 0.000000
H1957 H     H_    0.252131 0.371962 0.193196 0.000000
H1958 H     H_    0.281720 0.414032 0.202831 0.000000
H1959 H     H_    0.283110 0.443389 0.091760 0.000000
H1960 H     H_    0.257073 0.430025 0.965526 0.000000
C1765 C     C_3   0.193997 0.308663 0.719192 0.000000
N589  N     N_3   0.178983 0.320366 0.736029 0.000000
C1766 C     C_3   0.189694 0.346331 0.717343 0.000000
C1767 C     C_R   0.213801 0.356326 0.680821 0.000000
N590  N     N_R   0.218214 0.349339 0.604618 0.000000
C1768 C     C_R   0.241458 0.364529 0.593557 0.000000
C1769 C     C_R   0.254694 0.367559 0.522963 0.000000
C1770 C     C_R   0.278398 0.384185 0.524343 0.000000
C1771 C     C_R   0.288320 0.397493 0.595436 0.000000
C1772 C     C_R   0.274166 0.396066 0.662200 0.000000
C1773 C     C_R   0.250595 0.379252 0.660589 0.000000
N591  N     N_R   0.233403 0.374912 0.717310 0.000000
H1961 H     H_    0.186257 0.290494 0.749601 0.000000
H1962 H     H_    0.193630 0.306148 0.652154 0.000000
H1963 H     H_    0.212561 0.318775 0.741646 0.000000
H1964 H     H_    0.175742 0.317851 0.800036 0.000000
H1965 H     H_    0.177844 0.350412 0.673777 0.000000
H1966 H     H_    0.190937 0.355833 0.775743 0.000000
H1967 H     H_    0.246998 0.357316 0.467440 0.000000
H1968 H     H_    0.289331 0.386668 0.470216 0.000000
H1969 H     H_    0.307127 0.409734 0.597570 0.000000
H1970 H     H_    0.282149 0.407874 0.712797 0.000000
C1774 C     C_3   0.256184 0.475809 0.635159 0.000000
N592  N     N_3   0.254944 0.456014 0.690562 0.000000
C1775 C     C_3   0.266108 0.465603 0.771343 0.000000
C1776 C     C_R   0.278766 0.451641 0.808126 0.000000
N593  N     N_R   0.267601 0.426819 0.820571 0.000000
C1777 C     C_R   0.285131 0.422471 0.857192 0.000000
C1778 C     C_R   0.283633 0.400195 0.880878 0.000000
C1779 C     C_R   0.302205 0.399344 0.928037 0.000000
C1780 C     C_R   0.321784 0.420481 0.949031 0.000000
C1781 C     C_R   0.323394 0.442590 0.920785 0.000000
C1782 C     C_R   0.305199 0.443294 0.870474 0.000000
N594  N     N_R   0.302544 0.462547 0.836532 0.000000
H1971 H     H_    0.243549 0.468588 0.581013 0.000000
H1972 H     H_    0.251299 0.488246 0.669605 0.000000
H1973 H     H_    0.274397 0.485484 0.609979 0.000000
H1974 H     H_    0.264501 0.447965 0.663241 0.000000
H1975 H     H_    0.279316 0.484619 0.762769 0.000000
H1976 H     H_    0.252081 0.464366 0.814879 0.000000
H1977 H     H_    0.268315 0.383727 0.864112 0.000000
H1978 H     H_    0.300956 0.382276 0.951859 0.000000
H1979 H     H_    0.335759 0.419664 0.989069 0.000000
H1980 H     H_    0.337618 0.458239 0.945326 0.000000
C1783 C     C_3   0.157736 0.359383 0.968876 0.000000
N595  N     N_3   0.182980 0.371355 0.958296 0.000000
C1784 C     C_3   0.189298 0.396374 0.939110 0.000000
C1785 C     C_R   0.188188 0.399715 0.846804 0.000000
N596  N     N_R   0.206941 0.403191 0.796816 0.000000
C1786 C     C_R   0.200136 0.408810 0.721197 0.000000
C1787 C     C_R   0.212011 0.413855 0.646663 0.000000
C1788 C     C_R   0.203361 0.423278 0.580625 0.000000
C1789 C     C_R   0.183275 0.427109 0.590501 0.000000
C1790 C     C_R   0.170245 0.419240 0.663234 0.000000
C1791 C     C_R   0.178630 0.409122 0.726468 0.000000
N597  N     N_R   0.169614 0.401822 0.803829 0.000000
H1981 H     H_    0.152142 0.340086 0.974151 0.000000
H1982 H     H_    0.153054 0.365462 0.026173 0.000000
H1983 H     H_    0.149221 0.362814 0.911897 0.000000
H1984 H     H_    0.185184 0.364381 0.902529 0.000000
H1985 H     H_    0.177264 0.401987 0.969960 0.000000
H1986 H     H_    0.207646 0.407839 0.962633 0.000000
H1987 H     H_    0.228242 0.411906 0.640614 0.000000
H1988 H     H_    0.212907 0.428834 0.522423 0.000000
H1989 H     H_    0.177452 0.435753 0.540232 0.000000
H1990 H     H_    0.155459 0.423184 0.673202 0.000000
C1792 C     C_3   0.867760 0.254126 0.097023 0.000000
N598  N     N_3   0.886307 0.262788 0.163638 0.000000
C1793 C     C_3   0.889801 0.243326 0.208169 0.000000
C1794 C     C_R   0.889371 0.245905 0.300969 0.000000
N599  N     N_R   0.904214 0.266612 0.340229 0.000000
C1795 C     C_R   0.891241 0.267382 0.405278 0.000000
C1796 C     C_R   0.896851 0.284980 0.464131 0.000000
C1797 C     C_R   0.879523 0.282531 0.521212 0.000000
C1798 C     C_R   0.858319 0.261451 0.524804 0.000000
C1799 C     C_R   0.854296 0.242810 0.471158 0.000000
C1800 C     C_R   0.870762 0.246765 0.409688 0.000000
N600  N     N_R   0.869650 0.232236 0.346688 0.000000
H1991 H     H_    0.850845 0.253548 0.117660 0.000000
H1992 H     H_    0.873139 0.267320 0.043511 0.000000
H1993 H     H_    0.864348 0.236101 0.074775 0.000000
H1994 H     H_    0.881074 0.271713 0.206862 0.000000
H1995 H     H_    0.875468 0.225923 0.190838 0.000000
H1996 H     H_    0.907174 0.244145 0.191763 0.000000
H1997 H     H_    0.914172 0.300156 0.466736 0.000000
H1998 H     H_    0.883160 0.296405 0.566704 0.000000
H1999 H     H_    0.845464 0.259141 0.572387 0.000000
H2000 H     H_    0.838669 0.225788 0.478216 0.000000
C1801 C     C_3   0.979189 0.334012 0.567405 0.000000
N601  N     N_3   0.965602 0.309824 0.538893 0.000000
C1802 C     C_3   0.982577 0.301714 0.510552 0.000000
C1803 C     C_R   0.969209 0.276430 0.486073 0.000000
N602  N     N_R   0.972035 0.257537 0.526777 0.000000
C1804 C     C_R   0.960649 0.239681 0.472903 0.000000
C1805 C     C_R   0.964534 0.219697 0.465797 0.000000
C1806 C     C_R   0.953103 0.204195 0.401604 0.000000
C1807 C     C_R   0.938590 0.209402 0.344947 0.000000
C1808 C     C_R   0.936473 0.230775 0.349057 0.000000
C1809 C     C_R   0.949016 0.246346 0.411092 0.000000
N603  N     N_R   0.954140 0.269878 0.415971 0.000000
H2001 H     H_    0.991422 0.344089 0.516534 0.000000
H2002 H     H_    0.966758 0.341867 0.580632 0.000000
H2003 H     H_    0.989660 0.334025 0.625518 0.000000
H2004 H     H_    0.955068 0.310434 0.487553 0.000000
H2005 H     H_    0.992289 0.312552 0.455200 0.000000
H2006 H     H_    0.995637 0.303048 0.561954 0.000000
H2007 H     H_    0.978573 0.217880 0.501729 0.000000
H2008 H     H_    0.956711 0.188865 0.392441 0.000000
H2009 H     H_    0.931106 0.197891 0.292184 0.000000
H2010 H     H_    0.927347 0.236066 0.300033 0.000000
C1810 C     C_3   0.997305 0.251870 0.293765 0.000000
N604  N     N_3   0.985388 0.267122 0.277236 0.000000
C1811 C     C_3   0.971427 0.257727 0.201532 0.000000
C1812 C     C_R   0.961265 0.273545 0.166525 0.000000
N605  N     N_R   0.948629 0.282848 0.209911 0.000000
C1813 C     C_R   0.944612 0.296774 0.150969 0.000000
C1814 C     C_R   0.930251 0.308153 0.157661 0.000000
C1815 C     C_R   0.927577 0.321208 0.089344 0.000000
C1816 C     C_R   0.942052 0.325470 0.021029 0.000000
C1817 C     C_R   0.957345 0.314787 0.017884 0.000000
C1818 C     C_R   0.955694 0.297323 0.078585 0.000000
N606  N     N_R   0.964839 0.280739 0.083857 0.000000
H2011 H     H_    0.985585 0.233173 0.276772 0.000000
H2012 H     H_    0.014132 0.258772 0.258369 0.000000
H2013 H     H_    0.000400 0.250946 0.361089 0.000000
H2014 H     H_    0.998659 0.284333 0.262519 0.000000
H2015 H     H_    0.983691 0.256867 0.155651 0.000000
H2016 H     H_    0.956959 0.239544 0.210788 0.000000
H2017 H     H_    0.919694 0.305165 0.211979 0.000000
H2018 H     H_    0.915470 0.329439 0.091656 0.000000
H2019 H     H_    0.941666 0.337468 0.970212 0.000000
H2020 H     H_    0.969674 0.320452 0.967322 0.000000
C1819 C     C_3   0.872558 0.323210 0.378790 0.000000
N607  N     N_3   0.898324 0.335348 0.393491 0.000000
C1820 C     C_3   0.909791 0.327823 0.330662 0.000000
C1821 C     C_R   0.935751 0.335978 0.351048 0.000000
N608  N     N_R   0.951169 0.360172 0.346520 0.000000
C1822 C     C_R   0.971710 0.359843 0.323149 0.000000
C1823 C     C_R   0.992386 0.378746 0.295635 0.000000
C1824 C     C_R   0.010113 0.373646 0.265063 0.000000
C1825 C     C_R   0.007308 0.350081 0.264576 0.000000
C1826 C     C_R   0.986903 0.331465 0.295629 0.000000
C1827 C     C_R   0.969288 0.336898 0.323011 0.000000
N609  N     N_R   0.946961 0.321126 0.341890 0.000000
H2021 H     H_    0.864079 0.308726 0.426563 0.000000
H2022 H     H_    0.865098 0.336354 0.383897 0.000000
H2023 H     H_    0.868193 0.315448 0.315164 0.000000
H2024 H     H_    0.902224 0.330302 0.453234 0.000000
H2025 H     H_    0.900532 0.308213 0.323131 0.000000
H2026 H     H_    0.908589 0.336151 0.269009 0.000000
H2027 H     H_    0.994440 0.396836 0.291764 0.000000
H2028 H     H_    0.026005 0.388115 0.239439 0.000000
H2029 H     H_    0.020853 0.346100 0.238214 0.000000
H2030 H     H_    0.984668 0.313164 0.295651 0.000000
C1828 C     C_3   0.212088 0.062063 0.786370 0.000000
N610  N     N_3   0.190304 0.043266 0.747660 0.000000
C1829 C     C_3   0.190627 0.020054 0.735683 0.000000
C1830 C     C_R   0.212824 0.024777 0.707049 0.000000
N611  N     N_R   0.221425 0.040566 0.640557 0.000000
C1831 C     C_R   0.245321 0.050819 0.658816 0.000000
C1832 C     C_R   0.263826 0.069194 0.617121 0.000000
C1833 C     C_R   0.285045 0.082292 0.660183 0.000000
C1834 C     C_R   0.287881 0.076263 0.742874 0.000000
C1835 C     C_R   0.269913 0.056720 0.781197 0.000000
C1836 C     C_R   0.249456 0.042937 0.736537 0.000000
N612  N     N_R   0.229118 0.025319 0.767536 0.000000
H2031 H     H_    0.220410 0.054417 0.832592 0.000000
H2032 H     H_    0.225089 0.073439 0.739147 0.000000
H2033 H     H_    0.207538 0.074353 0.822676 0.000000
H2034 H     H_    0.186937 0.049425 0.690795 0.000000
H2035 H     H_    0.190316 0.009920 0.794053 0.000000
H2036 H     H_    0.176778 0.008887 0.691410 0.000000
H2037 H     H_    0.262770 0.073413 0.551758 0.000000
H2038 H     H_    0.299525 0.097070 0.628845 0.000000
H2039 H     H_    0.304264 0.086563 0.777676 0.000000
H2040 H     H_    0.271100 0.054465 0.846759 0.000000
C1837 C     C_3   0.255158 0.983978 0.641129 0.000000
N613  N     N_3   0.269877 0.998191 0.710548 0.000000
C1838 C     C_3   0.258834 0.986319 0.788806 0.000000
C1839 C     C_R   0.270163 0.001985 0.863381 0.000000
N614  N     N_R   0.294325 0.010899 0.883940 0.000000
C1840 C     C_R   0.297523 0.029539 0.932111 0.000000
C1841 C     C_R   0.318582 0.050031 0.942754 0.000000
C1842 C     C_R   0.318061 0.068643 0.986562 0.000000
C1843 C     C_R   0.297062 0.066040 0.021853 0.000000
C1844 C     C_R   0.275751 0.046201 0.003610 0.000000
C1845 C     C_R   0.276249 0.028511 0.955032 0.000000
N615  N     N_R   0.258071 0.011671 0.910207 0.000000
H2041 H     H_    0.265691 0.989158 0.582743 0.000000
H2042 H     H_    0.249146 0.964463 0.654952 0.000000
H2043 H     H_    0.239354 0.987643 0.631376 0.000000
H2044 H     H_    0.269031 0.014615 0.705903 0.000000
H2045 H     H_    0.239774 0.982587 0.783657 0.000000
H2046 H     H_    0.260815 0.969424 0.797427 0.000000
H2047 H     H_    0.334815 0.052175 0.913627 0.000000
H2048 H     H_    0.333931 0.085527 0.991348 0.000000
H2049 H     H_    0.297014 0.080597 0.057524 0.000000
H2050 H     H_    0.259303 0.045941 0.020943 0.000000
C1846 C     C_3   0.222030 0.975950 0.122103 0.000000
N616  N     N_3   0.211502 0.990295 0.079044 0.000000
C1847 C     C_3   0.221664 0.014007 0.116191 0.000000
C1848 C     C_R   0.214231 0.030362 0.063818 0.000000
N617  N     N_R   0.209916 0.027394 0.977823 0.000000
C1849 C     C_R   0.194527 0.037975 0.965260 0.000000
C1850 C     C_R   0.176389 0.034109 0.907734 0.000000
C1851 C     C_R   0.161927 0.045615 0.906085 0.000000
C1852 C     C_R   0.164086 0.060492 0.968991 0.000000
C1853 C     C_R   0.178701 0.060953 0.035241 0.000000
C1854 C     C_R   0.193005 0.048894 0.033587 0.000000
N618  N     N_R   0.204289 0.044087 0.098855 0.000000
H2051 H     H_    0.211538 0.956739 0.105605 0.000000
H2052 H     H_    0.240675 0.982135 0.101671 0.000000
H2053 H     H_    0.221815 0.977600 0.191381 0.000000
H2054 H     H_    0.193234 0.982077 0.091111 0.000000
H2055 H     H_    0.214903 0.012350 0.180427 0.000000
H2056 H     H_    0.241274 0.021085 0.122085 0.000000
H2057 H     H_    0.171941 0.021470 0.864291 0.000000
H2058 H     H_    0.148334 0.042078 0.857181 0.000000
H2059 H     H_    0.152743 0.069587 0.970903 0.000000
H2060 H     H_    0.177322 0.070330 0.086782 0.000000
C1855 C     C_3   0.432504 0.011603 0.365658 0.000000
N619  N     N_3   0.414297 0.992497 0.415248 0.000000
C1856 C     C_3   0.401005 0.001907 0.463768 0.000000
C1857 C     C_R   0.407253 0.003198 0.555616 0.000000
N620  N     N_R   0.412959 0.986474 0.597443 0.000000
C1858 C     C_R   0.424754 0.998308 0.667106 0.000000
C1859 C     C_R   0.439064 0.992260 0.721113 0.000000
C1860 C     C_R   0.454610 0.009662 0.774724 0.000000
C1861 C     C_R   0.454037 0.031796 0.779135 0.000000
C1862 C     C_R   0.438404 0.037002 0.727982 0.000000
C1863 C     C_R   0.425200 0.020487 0.668492 0.000000
N621  N     N_R   0.413205 0.023800 0.600982 0.000000
H2061 H     H_    0.447287 0.023581 0.407091 0.000000
H2062 H     H_    0.439928 0.003415 0.321129 0.000000
H2063 H     H_    0.424863 0.022099 0.328182 0.000000
H2064 H     H_    0.423056 0.985205 0.454776 0.000000
H2065 H     H_    0.406117 0.020237 0.441620 0.000000
H2066 H     H_    0.381645 0.990720 0.453550 0.000000
H2067 H     H_    0.439479 0.975063 0.718525 0.000000
H2068 H     H_    0.467274 0.005879 0.813289 0.000000
H2069 H     H_    0.466255 0.045257 0.821240 0.000000
H2070 H     H_    0.437544 0.053919 0.732907 0.000000
C1864 C     C_3   0.725396 0.235520 0.922411 0.000000
N622  N     N_3   0.702304 0.234642 0.941123 0.000000
C1865 C     C_3   0.686232 0.210694 0.969428 0.000000
C1866 C     C_R   0.672493 0.209953 0.044725 0.000000
N623  N     N_R   0.667378 0.227973 0.074248 0.000000
C1867 C     C_R   0.654573 0.217227 0.142525 0.000000
C1868 C     C_R   0.643111 0.226301 0.191360 0.000000
C1869 C     C_R   0.626905 0.211060 0.247947 0.000000
C1870 C     C_R   0.623635 0.187477 0.258435 0.000000
C1871 C     C_R   0.637367 0.179405 0.214388 0.000000
C1872 C     C_R   0.651841 0.194279 0.153111 0.000000
N624  N     N_R   0.663324 0.189093 0.092609 0.000000
H2071 H     H_    0.737174 0.240009 0.979143 0.000000
H2072 H     H_    0.723344 0.218454 0.896145 0.000000
H2073 H     H_    0.734164 0.249662 0.873706 0.000000
H2074 H     H_    0.695119 0.236056 0.882307 0.000000
H2075 H     H_    0.673814 0.201504 0.917062 0.000000
H2076 H     H_    0.696206 0.200565 0.988467 0.000000
H2077 H     H_    0.645516 0.244391 0.182510 0.000000
H2078 H     H_    0.617248 0.217946 0.285074 0.000000
H2079 H     H_    0.610801 0.175558 0.303078 0.000000
H2080 H     H_    0.635565 0.161417 0.225328 0.000000
C1873 C     C_3   0.486008 0.405581 0.039090 0.000000
N625  N     N_3   0.497603 0.429960 0.071066 0.000000
C1874 C     C_3   0.503158 0.447784 0.002718 0.000000
C1875 C     C_R   0.512841 0.471740 0.039667 0.000000
N626  N     N_R   0.498033 0.480602 0.071500 0.000000
C1876 C     C_R   0.513442 0.499030 0.118146 0.000000
C1877 C     C_R   0.508281 0.512512 0.173849 0.000000
C1878 C     C_R   0.526961 0.530506 0.216128 0.000000
C1879 C     C_R   0.550102 0.533624 0.206464 0.000000
C1880 C     C_R   0.554796 0.519008 0.153541 0.000000
C1881 C     C_R   0.536227 0.501891 0.109696 0.000000
N627  N     N_R   0.536712 0.484523 0.061717 0.000000
H2081 H     H_    0.467277 0.396557 0.060215 0.000000
H2082 H     H_    0.486351 0.405820 0.969565 0.000000
H2083 H     H_    0.495397 0.395096 0.065402 0.000000
H2084 H     H_    0.513916 0.432392 0.098521 0.000000
H2085 H     H_    0.516238 0.447027 0.960128 0.000000
H2086 H     H_    0.487098 0.445393 0.967153 0.000000
H2087 H     H_    0.490268 0.509266 0.185443 0.000000
H2088 H     H_    0.523455 0.541927 0.257925 0.000000
H2089 H     H_    0.564377 0.547038 0.242714 0.000000
H2090 H     H_    0.572452 0.520600 0.147965 0.000000
C1882 C     C_3   0.720548 0.647853 0.820334 0.000000
N628  N     N_3   0.697724 0.632323 0.781742 0.000000
C1883 C     C_3   0.695880 0.645012 0.706219 0.000000
C1884 C     C_R   0.672058 0.633746 0.666760 0.000000
N629  N     N_R   0.660373 0.609989 0.642458 0.000000
C1885 C     C_R   0.643941 0.610755 0.586212 0.000000
C1886 C     C_R   0.630594 0.593410 0.529482 0.000000
C1887 C     C_R   0.616954 0.598910 0.469321 0.000000
C1888 C     C_R   0.617818 0.621780 0.464463 0.000000
C1889 C     C_R   0.632893 0.639635 0.517918 0.000000
C1890 C     C_R   0.645380 0.633527 0.579738 0.000000
N630  N     N_R   0.662880 0.648474 0.631378 0.000000
H2091 H     H_    0.725972 0.637260 0.866766 0.000000
H2092 H     H_    0.734367 0.655579 0.772795 0.000000
H2093 H     H_    0.719089 0.663192 0.848148 0.000000
H2094 H     H_    0.684776 0.632043 0.821501 0.000000
H2095 H     H_    0.698218 0.662965 0.723809 0.000000
H2096 H     H_    0.709241 0.646344 0.659838 0.000000
H2097 H     H_    0.631550 0.576389 0.529101 0.000000
H2098 H     H_    0.606133 0.585549 0.424075 0.000000
H2099 H     H_    0.607623 0.626037 0.415612 0.000000
H2100 H     H_    0.635195 0.657872 0.509012 0.000000
C1891 C     C_3   0.944405 0.534743 0.527094 0.000000
N631  N     N_3   0.944957 0.511654 0.536790 0.000000
C1892 C     C_3   0.950931 0.507650 0.624407 0.000000
C1893 C     C_R   0.940595 0.481254 0.648313 0.000000
N632  N     N_R   0.917086 0.469630 0.672699 0.000000
C1894 C     C_R   0.914732 0.447732 0.696408 0.000000
C1895 C     C_R   0.895262 0.429633 0.732743 0.000000
C1896 C     C_R   0.895930 0.408075 0.753171 0.000000
C1897 C     C_R   0.916755 0.405815 0.742545 0.000000
C1898 C     C_R   0.936759 0.425060 0.711714 0.000000
C1899 C     C_R   0.935381 0.446035 0.688594 0.000000
N633  N     N_R   0.953040 0.467068 0.660516 0.000000
H2101 H     H_    0.945977 0.540131 0.459585 0.000000
H2102 H     H_    0.927127 0.533220 0.547953 0.000000
H2103 H     H_    0.960190 0.548554 0.560037 0.000000
H2104 H     H_    0.959346 0.514631 0.499918 0.000000
H2105 H     H_    0.970255 0.517140 0.638725 0.000000
H2106 H     H_    0.942341 0.515249 0.664426 0.000000
H2107 H     H_    0.880399 0.432643 0.748718 0.000000
H2108 H     H_    0.880654 0.393422 0.781428 0.000000
H2109 H     H_    0.917692 0.389260 0.761730 0.000000
H2110 H     H_    0.952776 0.423300 0.706551 0.000000
C1900 C     C_3   0.557119 0.166788 0.678029 0.000000
N634  N     N_3   0.541386 0.175913 0.711582 0.000000
C1901 C     C_3   0.533342 0.186875 0.642785 0.000000
C1902 C     C_R   0.520057 0.199805 0.675206 0.000000
N635  N     N_R   0.495106 0.189426 0.687671 0.000000
C1903 C     C_R   0.492556 0.209624 0.699728 0.000000
C1904 C     C_R   0.471976 0.211869 0.704567 0.000000
C1905 C     C_R   0.472263 0.234101 0.713613 0.000000
C1906 C     C_R   0.493781 0.253777 0.726514 0.000000
C1907 C     C_R   0.514335 0.250794 0.723676 0.000000
C1908 C     C_R   0.513413 0.229368 0.702124 0.000000
N636  N     N_R   0.531843 0.224780 0.685225 0.000000
H2111 H     H_    0.575708 0.181191 0.680309 0.000000
H2112 H     H_    0.556292 0.151301 0.717859 0.000000
H2113 H     H_    0.551845 0.160982 0.612120 0.000000
H2114 H     H_    0.552557 0.190139 0.749065 0.000000
H2115 H     H_    0.549523 0.200455 0.612306 0.000000
H2116 H     H_    0.522185 0.173463 0.595758 0.000000
H2117 H     H_    0.456021 0.196613 0.700661 0.000000
H2118 H     H_    0.455740 0.235712 0.717166 0.000000
H2119 H     H_    0.494450 0.270984 0.741834 0.000000
H2120 H     H_    0.530758 0.264338 0.742320 0.000000
C1909 C     C_3   0.556489 0.036857 0.308615 0.000000
N637  N     N_3   0.576175 0.030105 0.314429 0.000000
C1910 C     C_3   0.570662 0.006708 0.278191 0.000000
C1911 C     C_R   0.564851 0.007098 0.188443 0.000000
N638  N     N_R   0.543403 0.991488 0.150193 0.000000
C1912 C     C_R   0.545283 0.001971 0.073616 0.000000
C1913 C     C_R   0.528479 0.994676 0.010281 0.000000
C1914 C     C_R   0.531672 0.010119 0.941953 0.000000
C1915 C     C_R   0.552027 0.031877 0.937480 0.000000
C1916 C     C_R   0.569859 0.037777 0.998661 0.000000
C1917 C     C_R   0.566251 0.022395 0.066574 0.000000
N639  N     N_R   0.579873 0.025761 0.137527 0.000000
H2121 H     H_    0.543134 0.027324 0.259168 0.000000
H2122 H     H_    0.548924 0.034442 0.371744 0.000000
H2123 H     H_    0.562889 0.056222 0.293627 0.000000
H2124 H     H_    0.579607 0.028927 0.378677 0.000000
H2125 H     H_    0.586403 0.003361 0.283002 0.000000
H2126 H     H_    0.557124 0.991662 0.312165 0.000000
H2127 H     H_    0.512377 0.978301 0.016879 0.000000
H2128 H     H_    0.517666 0.005657 0.894430 0.000000
H2129 H     H_    0.553804 0.044759 0.887512 0.000000
H2130 H     H_    0.584556 0.055106 0.996745 0.000000
C1918 C     C_3   0.162487 0.806960 0.281301 0.000000
N640  N     N_3   0.150050 0.787368 0.223217 0.000000
C1919 C     C_3   0.151468 0.765887 0.257227 0.000000
C1920 C     C_R   0.143948 0.747395 0.191069 0.000000
N641  N     N_R   0.120863 0.735387 0.160238 0.000000
C1921 C     C_R   0.122655 0.720324 0.103854 0.000000
C1922 C     C_R   0.104718 0.700883 0.064412 0.000000
C1923 C     C_R   0.111176 0.686591 0.015602 0.000000
C1924 C     C_R   0.135133 0.692383 0.004072 0.000000
C1925 C     C_R   0.152895 0.711878 0.044383 0.000000
C1926 C     C_R   0.146033 0.725030 0.095819 0.000000
N642  N     N_R   0.159613 0.740509 0.155205 0.000000
H2131 H     H_    0.164138 0.824150 0.251487 0.000000
H2132 H     H_    0.152158 0.803421 0.339587 0.000000
H2133 H     H_    0.180557 0.808677 0.298025 0.000000
H2134 H     H_    0.158738 0.791986 0.165897 0.000000
H2135 H     H_    0.170097 0.770329 0.276721 0.000000
H2136 H     H_    0.139871 0.758843 0.312370 0.000000
H2137 H     H_    0.086138 0.696650 0.070188 0.000000
H2138 H     H_    0.097462 0.671236 0.984095 0.000000
H2139 H     H_    0.139959 0.681525 0.964048 0.000000
H2140 H     H_    0.171495 0.715893 0.038886 0.000000
C1927 C     C_3   0.911509 0.670059 0.957090 0.000000
N643  N     N_3   0.911666 0.647157 0.981741 0.000000
C1928 C     C_3   0.921865 0.648766 0.066438 0.000000
C1929 C     C_R   0.935810 0.634551 0.071842 0.000000
N644  N     N_R   0.925972 0.609807 0.065410 0.000000
C1930 C     C_R   0.945712 0.605903 0.061369 0.000000
C1931 C     C_R   0.947276 0.585077 0.041818 0.000000
C1932 C     C_R   0.969613 0.586094 0.031034 0.000000
C1933 C     C_R   0.990012 0.607344 0.041992 0.000000
C1934 C     C_R   0.988046 0.628329 0.055197 0.000000
C1935 C     C_R   0.965875 0.627076 0.066132 0.000000
N645  N     N_R   0.960380 0.645624 0.073369 0.000000
H2141 H     H_    0.927130 0.680689 0.917905 0.000000
H2142 H     H_    0.895359 0.666764 0.918147 0.000000
H2143 H     H_    0.911176 0.680209 0.012673 0.000000
H2144 H     H_    0.923135 0.644655 0.941168 0.000000
H2145 H     H_    0.934404 0.667659 0.079198 0.000000
H2146 H     H_    0.907638 0.641970 0.113823 0.000000
H2147 H     H_    0.931959 0.568683 0.027640 0.000000
H2148 H     H_    0.971183 0.570422 0.010132 0.000000
H2149 H     H_    0.007345 0.607885 0.032635 0.000000
H2150 H     H_    0.003528 0.645441 0.053304 0.000000
C1936 C     C_3   0.553613 0.698342 0.427634 0.000000
N646  N     N_3   0.568941 0.722685 0.396720 0.000000
C1937 C     C_3   0.564568 0.741361 0.434708 0.000000
C1938 C     C_R   0.561596 0.736081 0.525178 0.000000
N647  N     N_R   0.538606 0.725642 0.555983 0.000000
C1939 C     C_R   0.540823 0.710964 0.617769 0.000000
C1940 C     C_R   0.523215 0.690308 0.651623 0.000000
C1941 C     C_R   0.529631 0.677197 0.711320 0.000000
C1942 C     C_R   0.553418 0.683749 0.731264 0.000000
C1943 C     C_R   0.571038 0.703048 0.689871 0.000000
C1944 C     C_R   0.564253 0.715316 0.630276 0.000000
N648  N     N_R   0.578250 0.730943 0.572023 0.000000
H2151 H     H_    0.562090 0.693053 0.481922 0.000000
H2152 H     H_    0.536095 0.696782 0.445270 0.000000
H2153 H     H_    0.551370 0.685460 0.377546 0.000000
H2154 H     H_    0.567054 0.723450 0.331562 0.000000
H2155 H     H_    0.579671 0.759057 0.423113 0.000000
H2156 H     H_    0.548326 0.741525 0.406705 0.000000
H2157 H     H_    0.505293 0.682872 0.626492 0.000000
H2158 H     H_    0.516122 0.661393 0.741628 0.000000
H2159 H     H_    0.558085 0.672758 0.775572 0.000000
H2160 H     H_    0.589664 0.708685 0.703562 0.000000

loop_
_geom_bond_atom_site_label_1
_geom_bond_atom_site_label_2
_geom_bond_distance
_geom_bond_site_symmetry_2
_ccdc_geom_bond_type
Zn1   N3    2.080 .      S
Zn1   N5    2.162 .      S
Zn1   N8    2.050 1_556  S
Zn1   N464  2.118 .      S
Zn2   N12   2.041 .      S
Zn2   N14   2.132 .      S
Zn2   N17   2.043 .      S
Zn2   N492  2.144 .      S
Zn3   N20   2.124 .      S
Zn3   N24   2.123 .      S
Zn3   N26   2.066 .      S
Zn3   N485  2.108 .      S
Zn4   N30   2.206 .      S
Zn4   N33   2.125 .      S
Zn4   N35   2.109 .      S
Zn4   N509  2.125 .      S
Zn5   N38   2.095 .      S
Zn5   N42   2.097 1_545  S
Zn5   N45   2.129 .      S
Zn5   N614  2.100 .      S
Zn6   N48   2.042 .      S
Zn6   N50   2.024 .      S
Zn6   N54   2.029 .      S
Zn6   N458  2.096 .      S
Zn7   N56   2.027 .      S
Zn7   N60   2.038 .      S
Zn7   N63   1.941 .      S
Zn7   N452  2.033 .      S
Zn8   N65   2.094 .      S
Zn8   N68   2.123 .      S
Zn8   N71   2.117 .      S
Zn8   N480  2.115 .      S
Zn9   N74   2.108 .      S
Zn9   N78   2.051 .      S
Zn9   N80   2.094 .      S
Zn9   N503  2.077 .      S
Zn10  N23   2.043 .      S
Zn10  N84   2.146 .      S
Zn10  N86   2.152 .      S
Zn10  N533  2.088 .      S
Zn11  N89   2.030 .      S
Zn11  N92   2.079 .      S
Zn11  N95   2.024 .      S
Zn11  N99   2.121 .      S
Zn12  N101  2.127 .      S
Zn12  N105  2.079 .      S
Zn12  N108  2.052 .      S
Zn12  N600  1.963 .      S
Zn13  N21   2.074 .      S
Zn13  N111  2.111 .      S
Zn13  N114  2.114 .      S
Zn13  N117  2.034 1_554  S
Zn14  N36   2.102 .      S
Zn14  N120  2.142 .      S
Zn14  N123  2.006 1_554  S
Zn14  N126  2.028 .      S
Zn15  N137  2.011 .      S
Zn15  N273  2.116 .      S
Zn15  N456  2.006 .      S
Zn15  N575  2.014 .      S
Zn16  N246  2.148 .      S
Zn16  N540  2.190 .      S
Zn16  N585  2.026 .      S
Zn16  N611  2.139 .      S
Zn17  N77   2.120 .      S
Zn17  N128  2.150 .      S
Zn17  N132  2.048 1_554  S
Zn17  N134  2.076 .      S
Zn18  N300  2.130 .      S
Zn18  N447  2.118 .      S
Zn18  N546  2.148 1_655  S
Zn18  N557  2.175 1_554  S
Zn19  N138  2.076 .      S
Zn19  N302  2.041 .      S
Zn19  N411  2.129 .      S
Zn19  N560  2.170 .      S
Zn20  N141  2.102 1_655  S
Zn20  N294  2.033 .      S
Zn20  N563  2.105 .      S
Zn20  N602  2.089 .      S
Zn21  N107  2.101 .      S
Zn21  N296  2.100 .      S
Zn21  N537  2.116 .      S
Zn21  N567  2.077 1_554  S
Zn22  N210  2.135 .      S
Zn22  N281  2.152 .      S
Zn22  N542  2.127 .      S
Zn22  N570  2.094 1_554  S
Zn23  N143  2.138 .      S
Zn23  N155  2.209 .      S
Zn23  N356  2.145 .      S
Zn23  N521  2.123 .      S
Zn24  N146  2.066 .      S
Zn24  N188  2.103 .      S
Zn24  N369  2.125 .      S
Zn24  N531  2.058 .      S
Zn25  N110  2.194 .      S
Zn25  N149  2.054 1_554  S
Zn25  N153  2.096 .      S
Zn25  N483  2.064 .      S
Zn26  N156  2.068 .      S
Zn26  N158  2.047 .      S
Zn26  N312  2.087 .      S
Zn26  N498  1.981 .      S
Zn27  N135  2.135 .      S
Zn27  N161  2.124 .      S
Zn27  N164  2.126 1_554  S
Zn27  N501  2.134 .      S
Zn28  N119  2.053 .      S
Zn28  N168  2.077 1_655  S
Zn28  N171  2.114 1_554  S
Zn28  N513  2.092 .      S
Zn29  N53   2.016 .      S
Zn29  N162  2.105 .      S
Zn29  N174  2.167 .      S
Zn29  N339  2.054 .      S
Zn30  N44   2.115 .      S
Zn30  N152  2.136 .      S
Zn30  N176  2.130 .      S
Zn30  N347  2.093 .      S
Zn31  N180  2.162 .      S
Zn31  N183  2.106 .      S
Zn31  N321  2.088 .      S
Zn31  N470  2.078 .      S
Zn32  N185  2.119 .      S
Zn32  N189  2.090 .      S
Zn32  N330  2.071 .      S
Zn32  N477  2.096 .      S
Zn33  N191  1.988 1_545  S
Zn33  N195  2.147 .      S
Zn33  N198  2.003 .      S
Zn33  N201  2.152 .      S
Zn34  N96   2.009 .      S
Zn34  N204  2.076 .      S
Zn34  N207  2.101 .      S
Zn34  N209  2.180 .      S
Zn35  N222  2.018 .      S
Zn35  N227  2.118 .      S
Zn35  N552  2.065 .      S
Zn35  N597  2.034 .      S
Zn36  N62   2.097 .      S
Zn36  N419  2.067 1_554  S
Zn36  N429  2.123 1_655  S
Zn36  N645  2.053 .      S
Zn37  N212  2.090 .      S
Zn37  N215  2.111 .      S
Zn37  N423  2.068 .      S
Zn37  N443  2.134 .      S
Zn38  N39   2.090 .      S
Zn38  N177  2.079 .      S
Zn38  N435  2.124 .      S
Zn38  N621  2.024 .      S
Zn39  N51   2.097 .      S
Zn39  N173  2.032 .      S
Zn39  N440  2.092 .      S
Zn39  N648  2.153 .      S
Zn40  N72   2.102 .      S
Zn40  N218  2.118 .      S
Zn40  N224  1.995 .      S
Zn40  N374  2.139 .      S
Zn41  N213  2.062 .      S
Zn41  N219  2.123 .      S
Zn41  N221  2.046 .      S
Zn41  N426  2.058 .      S
Zn42  N216  2.120 .      S
Zn42  N225  2.059 .      S
Zn42  N317  2.110 .      S
Zn42  N378  2.024 .      S
Zn43  N140  2.163 .      S
Zn43  N228  2.111 .      S
Zn43  N236  2.063 .      S
Zn43  N554  2.059 .      S
Zn44  N231  2.047 .      S
Zn44  N233  2.120 .      S
Zn44  N237  2.108 .      S
Zn44  N590  2.066 .      S
Zn45  N239  2.034 .      S
Zn45  N242  2.091 .      S
Zn45  N245  2.098 .      S
Zn45  N405  2.047 .      S
Zn46  N57   2.033 .      S
Zn46  N75   2.082 .      S
Zn46  N249  2.086 .      S
Zn46  N252  2.127 .      S
Zn47  N15   2.086 .      S
Zn47  N47   2.113 .      S
Zn47  N255  2.120 .      S
Zn47  N257  2.127 .      S
Zn48  N6    2.158 .      S
Zn48  N41   2.093 .      S
Zn48  N261  2.145 .      S
Zn48  N263  2.065 .      S
Zn49  N29   2.161 .      S
Zn49  N267  2.112 .      S
Zn49  N269  2.078 .      S
Zn49  N524  1.971 .      S
Zn50  N194  2.027 .      S
Zn50  N272  2.114 .      S
Zn50  N276  2.068 .      S
Zn50  N278  2.027 .      S
Zn51  N93   2.054 .      S
Zn51  N282  2.058 .      S
Zn51  N285  2.058 1_554  S
Zn51  N288  2.104 .      S
Zn52  N290  2.102 1_655  S
Zn52  N293  2.050 1_554  S
Zn52  N297  2.103 .      S
Zn52  N606  2.116 .      S
Zn53  N299  2.086 .      S
Zn53  N303  2.068 1_554  S
Zn53  N306  2.129 .      S
Zn53  N417  2.076 .      S
Zn54  N11   2.096 .      S
Zn54  N309  2.105 .      S
Zn54  N311  2.092 .      S
Zn54  N314  2.040 .      S
Zn55  N2    2.087 .      S
Zn55  N318  2.125 .      S
Zn55  N320  2.055 .      S
Zn55  N324  1.982 .      S
Zn56  N69   2.176 .      S
Zn56  N326  2.053 .      S
Zn56  N329  2.048 .      S
Zn56  N333  2.178 .      S
Zn57  N254  2.101 .      S
Zn57  N335  2.066 .      S
Zn57  N338  2.022 .      S
Zn57  N342  2.068 .      S
Zn58  N264  2.102 .      S
Zn58  N344  2.117 .      S
Zn58  N348  2.064 .      S
Zn58  N351  2.195 .      S
Zn59  N270  2.096 .      S
Zn59  N354  2.024 .      S
Zn59  N357  2.077 .      S
Zn59  N360  2.138 .      S
Zn60  N87   2.110 .      S
Zn60  N363  2.049 .      S
Zn60  N365  2.185 .      S
Zn60  N368  2.103 .      S
Zn61  N371  2.028 .      S
Zn61  N375  2.127 .      S
Zn61  N377  2.032 .      S
Zn61  N380  2.109 .      S
Zn62  N248  2.132 .      S
Zn62  N383  2.196 .      S
Zn62  N386  2.151 .      S
Zn62  N390  2.096 .      S
Zn63  N66   2.131 .      S
Zn63  N327  2.082 .      S
Zn63  N336  2.087 .      S
Zn63  N393  2.044 .      S
Zn64  N395  2.009 .      S
Zn64  N398  2.127 1_556  S
Zn64  N401  2.046 .      S
Zn64  N404  1.982 .      S
Zn65  N407  1.994 .      S
Zn65  N410  2.108 .      S
Zn65  N414  2.069 .      S
Zn65  N416  2.107 .      S
Zn66  N144  2.126 1_554  S
Zn66  N437  2.135 .      S
Zn66  N519  2.114 .      S
Zn66  N624  2.046 .      S
Zn67  N147  2.105 1_554  S
Zn67  N431  2.042 .      S
Zn67  N527  2.058 .      S
Zn67  N626  2.081 .      S
Zn68  N59   2.014 .      S
Zn68  N179  2.145 1_655  S
Zn68  N384  2.121 .      S
Zn68  N420  2.079 .      S
Zn69  N167  2.153 .      S
Zn69  N372  2.108 .      S
Zn69  N422  2.087 .      S
Zn69  N425  2.065 .      S
Zn70  N182  2.103 .      S
Zn70  N428  2.093 .      S
Zn70  N468  2.000 .      S
Zn70  N641  2.024 .      S
Zn71  N186  2.073 .      S
Zn71  N392  2.012 .      S
Zn71  N432  1.998 .      S
Zn71  N473  2.117 .      S
Zn72  N150  2.122 .      S
Zn72  N434  2.092 .      S
Zn72  N488  2.028 .      S
Zn72  N635  2.193 .      S
Zn73  N159  2.092 .      S
Zn73  N438  2.037 .      S
Zn73  N494  2.105 .      S
Zn73  N639  2.119 .      S
Zn74  N165  2.088 .      S
Zn74  N441  2.050 .      S
Zn74  N507  2.152 .      S
Zn74  N630  2.052 .      S
Zn75  N170  2.128 .      S
Zn75  N444  2.150 1_655  S
Zn75  N516  2.092 .      S
Zn75  N633  2.113 .      S
Zn76  N408  1.989 .      S
Zn76  N446  2.139 .      S
Zn76  N450  2.090 .      S
Zn76  N453  2.047 .      S
Zn77  N192  1.981 .      S
Zn77  N455  2.060 .      S
Zn77  N459  2.098 .      S
Zn77  N462  2.124 .      S
Zn78  N402  2.020 .      S
Zn78  N465  2.117 .      S
Zn78  N467  2.050 .      S
Zn78  N471  2.023 .      S
Zn79  N474  2.001 .      S
Zn79  N476  2.104 .      S
Zn79  N479  2.064 .      S
Zn79  N594  2.140 .      S
Zn80  N90   2.013 .      S
Zn80  N482  1.957 .      S
Zn80  N486  2.087 .      S
Zn80  N489  2.062 .      S
Zn81  N197  2.038 .      S
Zn81  N491  2.106 1_545  S
Zn81  N495  2.028 .      S
Zn81  N497  1.996 .      S
Zn82  N413  2.114 .      S
Zn82  N500  2.120 .      S
Zn82  N504  2.046 .      S
Zn82  N506  2.108 .      S
Zn83  N510  2.134 .      S
Zn83  N512  2.087 .      S
Zn83  N515  2.086 .      S
Zn83  N608  2.073 .      S
Zn84  N102  2.051 .      S
Zn84  N518  2.119 .      S
Zn84  N522  2.081 .      S
Zn84  N525  2.013 .      S
Zn85  N203  2.090 .      S
Zn85  N528  2.083 .      S
Zn85  N530  2.098 .      S
Zn85  N534  2.091 .      S
Zn86  N200  2.079 .      S
Zn86  N279  2.055 .      S
Zn86  N536  2.214 .      S
Zn86  N579  2.119 .      S
Zn87  N98   2.023 .      S
Zn87  N284  2.038 .      S
Zn87  N539  2.065 .      S
Zn87  N573  2.085 .      S
Zn88  N230  2.065 .      S
Zn88  N543  2.092 .      S
Zn88  N548  2.145 .      S
Zn88  N587  2.084 .      S
Zn89  N240  2.055 .      S
Zn89  N399  2.054 .      S
Zn89  N545  2.194 .      S
Zn89  N581  2.168 .      S
Zn90  N291  2.144 .      S
Zn90  N549  2.112 .      S
Zn90  N551  2.075 .      S
Zn90  N555  2.139 .      S
Zn91  N243  2.133 1_655  S
Zn91  N449  2.163 .      S
Zn91  N558  2.121 .      S
Zn91  N561  2.086 .      S
Zn92  N104  2.133 .      S
Zn92  N275  2.056 .      S
Zn92  N564  2.117 .      S
Zn92  N566  2.023 .      S
Zn93  N206  2.073 .      S
Zn93  N234  2.081 .      S
Zn93  N569  2.101 .      S
Zn93  N572  2.084 .      S
Zn94  N305  2.061 .      S
Zn94  N461  2.119 .      S
Zn94  N576  2.102 .      S
Zn94  N578  2.078 .      S
Zn95  N287  2.155 .      S
Zn95  N582  2.160 .      S
Zn95  N584  1.959 .      S
Zn95  N618  1.973 .      S
Zn96  N588  2.059 .      S
Zn96  N591  2.068 .      S
Zn96  N593  2.069 .      S
Zn96  N596  1.991 .      S
Zn97  N599  1.968 .      S
Zn97  N603  2.086 .      S
Zn97  N605  2.024 .      S
Zn97  N609  2.053 .      S
Zn98  N396  2.100 1_545  S
Zn98  N612  2.122 .      S
Zn98  N615  2.114 .      S
Zn98  N617  2.206 .      S
Zn99  N260  2.168 .      S
Zn99  N308  2.076 .      S
Zn99  N345  2.129 .      S
Zn99  N620  2.026 .      S
Zn100 N113  2.124 .      S
Zn100 N266  2.172 .      S
Zn100 N353  2.072 1_554  S
Zn100 N623  2.046 .      S
Zn101 N83   2.054 .      S
Zn101 N129  2.098 .      S
Zn101 N362  2.031 1_554  S
Zn101 N627  2.100 .      S
Zn102 N81   2.127 .      S
Zn102 N131  2.085 .      S
Zn102 N366  2.133 .      S
Zn102 N629  2.063 .      S
Zn103 N32   2.167 .      S
Zn103 N122  2.114 .      S
Zn103 N387  2.133 .      S
Zn103 N632  2.060 .      S
Zn104 N27   2.068 .      S
Zn104 N116  1.990 .      S
Zn104 N359  2.135 .      S
Zn104 N636  2.147 .      S
Zn105 N18   2.095 .      S
Zn105 N315  2.042 .      S
Zn105 N350  2.113 .      S
Zn105 N638  2.105 .      S
Zn106 N9    2.078 .      S
Zn106 N323  2.032 .      S
Zn106 N381  2.114 .      S
Zn106 N642  2.019 .      S
Zn107 N125  2.054 .      S
Zn107 N251  2.161 .      S
Zn107 N389  2.051 1_554  S
Zn107 N644  2.063 .      S
Zn108 N258  2.111 .      S
Zn108 N332  2.122 .      S
Zn108 N341  2.049 .      S
Zn108 N647  2.176 .      S
C1    N1    1.455 .      S
C1    H1    1.109 .      S
C1    H2    1.108 .      S
C1    H3    1.108 .      S
N1    C2    1.449 .      S
N1    H4    1.040 .      S
C2    C3    1.496 .      S
C2    H5    1.107 .      S
C2    H6    1.094 .      S
C5    H7    1.071 .      S
C6    H8    1.077 .      S
C7    H9    1.080 .      S
C8    H10   1.055 .      S
C10   N4    1.456 .      S
C10   H11   1.107 .      S
C10   H12   1.108 .      S
C10   H13   1.109 .      S
N4    C11   1.449 1_554  S
N4    H14   1.042 .      S
C11   N4    1.449 1_556  S
C11   C12   1.496 .      S
C11   H15   1.101 1_556  S
C11   H16   1.106 1_556  S
C14   H17   1.070 .      S
C15   H18   1.081 .      S
C16   H19   1.081 .      S
C17   H20   1.062 .      S
H15   C11   1.101 1_554  S
H16   C11   1.106 1_554  S
C19   N7    1.450 .      S
C19   H21   1.108 .      S
C19   H22   1.107 .      S
C19   H23   1.105 .      S
N7    C20   1.456 .      S
N7    H24   1.044 .      S
C20   C21   1.483 .      S
C20   H25   1.104 .      S
C20   H26   1.105 .      S
N8    Zn1   2.050 1_554  S
C23   H27   1.078 1_554  S
C24   H28   1.081 .      S
C25   H29   1.081 .      S
C26   H30   1.072 .      S
H27   C23   1.078 1_556  S
C28   N10   1.449 .      S
C28   H31   1.105 .      S
C28   H32   1.092 .      S
C28   H33   1.106 .      S
N10   C29   1.451 .      S
N10   H34   1.039 .      S
C29   C30   1.472 .      S
C29   H35   1.098 .      S
C29   H36   1.085 .      S
C32   H37   1.067 .      S
C33   H38   1.079 .      S
C34   H39   1.081 .      S
C35   H40   1.061 .      S
C37   N13   1.454 .      S
C37   H41   1.101 .      S
C37   H42   1.109 .      S
C37   H43   1.109 .      S
N13   C38   1.445 .      S
N13   H44   1.043 .      S
C38   C39   1.484 .      S
C38   H45   1.098 .      S
C38   H46   1.102 .      S
C41   H47   1.060 1_556  S
C42   H48   1.081 .      S
C43   H49   1.081 .      S
C44   H50   1.064 .      S
H47   C41   1.060 1_554  S
C46   N16   1.454 .      S
C46   H51   1.106 .      S
C46   H52   1.107 .      S
C46   H53   1.104 .      S
N16   C47   1.447 .      S
N16   H54   1.040 .      S
C47   C48   1.489 1_556  S
C47   H55   1.100 .      S
C47   H56   1.107 .      S
C48   C47   1.489 1_554  S
C50   H57   1.080 .      S
C51   H58   1.081 .      S
C52   H59   1.081 .      S
C53   H60   1.064 .      S
C55   N19   1.454 .      S
C55   H61   1.102 .      S
C55   H62   1.101 .      S
C55   H63   1.107 .      S
N19   C56   1.454 .      S
N19   H64   1.033 .      S
C56   C57   1.485 .      S
C56   H65   1.103 .      S
C56   H66   1.096 .      S
C59   H67   1.065 .      S
C60   H68   1.081 .      S
C61   H69   1.081 1_554  S
C62   H70   1.070 1_554  S
H69   C61   1.081 1_556  S
H70   C62   1.070 1_556  S
C64   N22   1.447 .      S
C64   H71   1.108 .      S
C64   H72   1.107 .      S
C64   H73   1.103 .      S
N22   C65   1.444 .      S
N22   H74   1.039 .      S
C65   C66   1.490 .      S
C65   H75   1.102 .      S
C65   H76   1.099 .      S
C68   H77   1.080 .      S
C69   H78   1.081 .      S
C70   H79   1.080 .      S
C71   H80   1.063 .      S
C73   N25   1.460 .      S
C73   H81   1.105 .      S
C73   H82   1.109 .      S
C73   H83   1.106 .      S
N25   C74   1.447 .      S
N25   H84   1.034 .      S
C74   C75   1.496 .      S
C74   H85   1.091 .      S
C74   H86   1.109 .      S
C77   H87   1.051 .      S
C78   H88   1.080 .      S
C79   H89   1.081 .      S
C80   H90   1.056 .      S
C82   N28   1.455 .      S
C82   H91   1.109 .      S
C82   H92   1.109 .      S
C82   H93   1.106 .      S
N28   C83   1.452 .      S
N28   H94   1.041 .      S
C83   C84   1.488 .      S
C83   H95   1.106 .      S
C83   H96   1.109 .      S
C86   H97   1.080 .      S
C87   H98   1.081 .      S
C88   H99   1.081 .      S
C89   H100  1.069 .      S
C91   N31   1.439 .      S
C91   H101  1.109 .      S
C91   H102  1.107 .      S
C91   H103  1.106 .      S
N31   C92   1.445 .      S
N31   H104  1.043 .      S
C92   C93   1.467 .      S
C92   H105  1.097 .      S
C92   H106  1.107 .      S
C95   H107  1.065 .      S
C96   H108  1.081 .      S
C97   H109  1.081 .      S
C98   H110  1.063 .      S
C100  N34   1.448 .      S
C100  H111  1.108 .      S
C100  H112  1.094 .      S
C100  H113  1.086 .      S
N34   C101  1.439 .      S
N34   H114  1.038 .      S
C101  C102  1.429 .      S
C101  H115  1.078 .      S
C101  H116  1.090 .      S
C104  H117  1.080 .      S
C105  H118  1.081 .      S
C106  H119  1.081 .      S
C107  H120  1.077 .      S
C109  N37   1.440 .      S
C109  H121  1.101 1_565  S
C109  H122  1.101 .      S
C109  H123  1.096 .      S
N37   C110  1.449 1_565  S
N37   H124  1.035 .      S
C110  N37   1.449 1_545  S
C110  C111  1.487 .      S
C110  H125  1.086 .      S
C110  H126  1.104 1_545  S
C113  H127  1.063 .      S
C114  H128  1.071 .      S
C115  H129  1.081 .      S
C116  H130  1.077 .      S
H121  C109  1.101 1_545  S
H126  C110  1.104 1_565  S
C118  N40   1.447 .      S
C118  H131  1.109 .      S
C118  H132  1.101 .      S
C118  H133  1.103 .      S
N40   C119  1.460 .      S
N40   H134  1.043 1_554  S
C119  C120  1.480 1_554  S
C119  H135  1.106 .      S
C119  H136  1.106 .      S
C120  C119  1.480 1_556  S
C122  H137  1.078 .      S
C123  H138  1.081 .      S
C124  H139  1.080 .      S
C125  H140  1.075 .      S
N42   Zn5   2.097 1_565  S
H134  N40   1.043 1_556  S
C127  N43   1.451 .      S
C127  H141  1.098 .      S
C127  H142  1.102 .      S
C127  H143  1.107 .      S
N43   C128  1.442 .      S
N43   H144  1.042 .      S
C128  C129  1.465 1_556  S
C128  H145  1.091 .      S
C128  H146  1.092 .      S
C129  C128  1.465 1_554  S
C131  H147  1.080 .      S
C132  H148  1.081 .      S
C133  H149  1.080 .      S
C134  H150  1.079 1_545  S
H150  C134  1.079 1_565  S
C136  N46   1.452 .      S
C136  H151  1.109 .      S
C136  H152  1.101 .      S
C136  H153  1.102 .      S
N46   C137  1.460 1_554  S
N46   H154  1.043 1_554  S
C137  N46   1.460 1_556  S
C137  C138  1.462 .      S
C137  H155  1.088 .      S
C137  H156  1.099 .      S
C140  H157  1.067 .      S
C141  H158  1.081 .      S
C142  H159  1.081 .      S
C143  H160  1.080 .      S
H154  N46   1.043 1_556  S
C145  N49   1.453 .      S
C145  H161  1.106 .      S
C145  H162  1.101 .      S
C145  H163  1.103 .      S
N49   C146  1.454 .      S
N49   H164  1.038 .      S
C146  C147  1.478 .      S
C146  H165  1.086 .      S
C146  H166  1.084 .      S
C149  H167  1.075 .      S
C150  H168  1.077 .      S
C151  H169  1.078 .      S
C152  H170  1.034 .      S
C154  N52   1.446 .      S
C154  H171  1.107 .      S
C154  H172  1.106 .      S
C154  H173  1.107 .      S
N52   C155  1.444 .      S
N52   H174  1.042 .      S
C155  C156  1.452 1_556  S
C155  H175  1.079 .      S
C155  H176  1.096 .      S
C156  C155  1.452 1_554  S
C158  H177  1.079 .      S
C159  H178  1.081 .      S
C160  H179  1.081 .      S
C161  H180  1.067 .      S
C163  N55   1.453 .      S
C163  H181  1.108 .      S
C163  H182  1.105 .      S
C163  H183  1.096 .      S
N55   C164  1.446 .      S
N55   H184  1.043 .      S
C164  C165  1.470 .      S
C164  H185  1.104 .      S
C164  H186  1.091 .      S
C167  H187  1.075 .      S
C168  H188  1.081 .      S
C169  H189  1.081 .      S
C170  H190  1.076 .      S
C172  N58   1.456 .      S
C172  H191  1.109 .      S
C172  H192  1.107 .      S
C172  H193  1.099 1_455  S
N58   C173  1.446 1_455  S
N58   H194  1.032 .      S
C173  N58   1.446 1_655  S
C173  C174  1.511 .      S
C173  H195  1.069 .      S
C173  H196  1.100 .      S
C176  H197  1.075 .      S
C177  H198  1.081 .      S
C178  H199  1.077 .      S
C179  H200  1.072 .      S
H193  C172  1.099 1_655  S
C181  N61   1.455 .      S
C181  H201  1.101 1_655  S
C181  H202  1.106 .      S
C181  H203  1.108 .      S
N61   C182  1.448 .      S
N61   H204  1.043 1_655  S
C182  C183  1.499 .      S
C182  H205  1.097 .      S
C182  H206  1.096 .      S
C185  H207  1.043 .      S
C186  H208  1.081 .      S
C187  H209  1.080 .      S
C188  H210  1.074 .      S
H201  C181  1.101 1_455  S
H204  N61   1.043 1_455  S
C190  N64   1.447 .      S
C190  H211  1.107 .      S
C190  H212  1.098 .      S
C190  H213  1.107 .      S
N64   C191  1.447 .      S
N64   H214  1.043 .      S
C191  C192  1.463 .      S
C191  H215  1.103 .      S
C191  H216  1.109 .      S
C194  H217  1.061 .      S
C195  H218  1.081 .      S
C196  H219  1.080 .      S
C197  H220  1.064 1_556  S
H220  C197  1.064 1_554  S
C199  N67   1.441 .      S
C199  H221  1.106 .      S
C199  H222  1.095 .      S
C199  H223  1.097 .      S
N67   C200  1.441 .      S
N67   H224  1.041 .      S
C200  C201  1.448 .      S
C200  H225  1.100 .      S
C200  H226  1.106 .      S
C203  H227  1.078 .      S
C204  H228  1.081 .      S
C205  H229  1.081 .      S
C206  H230  1.066 .      S
C208  N70   1.457 .      S
C208  H231  1.108 .      S
C208  H232  1.109 .      S
C208  H233  1.108 .      S
N70   C209  1.448 1_554  S
N70   H234  1.034 .      S
C209  N70   1.448 1_556  S
C209  C210  1.497 .      S
C209  H235  1.108 1_556  S
C209  H236  1.109 .      S
C212  H237  1.068 .      S
C213  H238  1.081 .      S
C214  H239  1.081 .      S
C215  H240  1.067 .      S
H235  C209  1.108 1_554  S
C217  N73   1.452 .      S
C217  H241  1.108 .      S
C217  H242  1.108 .      S
C217  H243  1.107 .      S
N73   C218  1.454 .      S
N73   H244  1.043 .      S
C218  C219  1.493 .      S
C218  H245  1.108 .      S
C218  H246  1.105 .      S
C221  H247  1.079 .      S
C222  H248  1.081 .      S
C223  H249  1.080 .      S
C224  H250  1.062 .      S
C226  N76   1.455 .      S
C226  H251  1.108 .      S
C226  H252  1.103 .      S
C226  H253  1.103 .      S
N76   C227  1.463 .      S
N76   H254  1.038 .      S
C227  C228  1.449 .      S
C227  H255  1.091 .      S
C227  H256  1.101 .      S
C230  H257  1.081 .      S
C231  H258  1.081 .      S
C232  H259  1.081 .      S
C233  H260  1.080 .      S
C235  N79   1.451 .      S
C235  H261  1.108 .      S
C235  H262  1.107 .      S
C235  H263  1.108 .      S
N79   C236  1.448 .      S
N79   H264  1.037 .      S
C236  C237  1.483 .      S
C236  H265  1.106 .      S
C236  H266  1.105 .      S
C239  H267  1.075 .      S
C240  H268  1.080 .      S
C241  H269  1.081 .      S
C242  H270  1.064 .      S
C244  N82   1.455 .      S
C244  H271  1.107 .      S
C244  H272  1.103 .      S
C244  H273  1.102 .      S
N82   C245  1.454 .      S
N82   H274  1.039 .      S
C245  C246  1.465 .      S
C245  H275  1.065 .      S
C245  H276  1.087 .      S
C248  H277  1.080 .      S
C249  H278  1.081 .      S
C250  H279  1.081 .      S
C251  H280  1.057 .      S
C253  N85   1.457 .      S
C253  H281  1.107 .      S
C253  H282  1.108 .      S
C253  H283  1.107 .      S
N85   C254  1.453 .      S
N85   H284  1.042 .      S
C254  C255  1.457 .      S
C254  H285  1.097 .      S
C254  H286  1.102 .      S
C257  H287  1.061 .      S
C258  H288  1.078 .      S
C259  H289  1.081 .      S
C260  H290  1.077 .      S
C262  N88   1.449 .      S
C262  H291  1.108 .      S
C262  H292  1.105 .      S
C262  H293  1.106 .      S
N88   C263  1.447 .      S
N88   H294  1.040 .      S
C263  C264  1.479 .      S
C263  H295  1.105 .      S
C263  H296  1.092 .      S
C266  H297  1.072 .      S
C267  H298  1.081 .      S
C268  H299  1.081 .      S
C269  H300  1.079 .      S
C271  N91   1.451 .      S
C271  H301  1.108 .      S
C271  H302  1.107 .      S
C271  H303  1.108 .      S
N91   C272  1.455 .      S
N91   H304  1.038 .      S
C272  C273  1.471 .      S
C272  H305  1.103 .      S
C272  H306  1.092 .      S
C275  H307  1.068 .      S
C276  H308  1.081 .      S
C277  H309  1.080 1_554  S
C278  H310  1.067 1_554  S
H309  C277  1.080 1_556  S
H310  C278  1.067 1_556  S
C280  N94   1.456 .      S
C280  H311  1.108 .      S
C280  H312  1.109 .      S
C280  H313  1.104 .      S
N94   C281  1.442 .      S
N94   H314  1.038 .      S
C281  C282  1.487 .      S
C281  H315  1.098 .      S
C281  H316  1.083 .      S
C284  H317  1.074 .      S
C285  H318  1.081 .      S
C286  H319  1.081 .      S
C287  H320  1.066 .      S
C289  N97   1.453 .      S
C289  H321  1.108 .      S
C289  H322  1.106 .      S
C289  H323  1.109 .      S
N97   C290  1.454 .      S
N97   H324  1.033 .      S
C290  C291  1.484 .      S
C290  H325  1.096 .      S
C290  H326  1.109 .      S
C293  H327  1.057 .      S
C294  H328  1.079 .      S
C295  H329  1.060 .      S
C296  H330  1.064 .      S
C298  N100  1.450 .      S
C298  H331  1.098 .      S
C298  H332  1.104 .      S
C298  H333  1.109 .      S
N100  C299  1.450 .      S
N100  H334  1.044 .      S
C299  C300  1.486 .      S
C299  H335  1.105 .      S
C299  H336  1.094 .      S
C302  H337  1.067 .      S
C303  H338  1.079 .      S
C304  H339  1.081 .      S
C305  H340  1.054 .      S
C307  N103  1.451 .      S
C307  H341  1.089 .      S
C307  H342  1.084 .      S
C307  H343  1.096 .      S
N103  C308  1.455 .      S
N103  H344  1.040 .      S
C308  C309  1.472 .      S
C308  H345  1.094 .      S
C308  H346  1.105 .      S
C311  H347  1.063 .      S
C312  H348  1.079 .      S
C313  H349  1.079 .      S
C314  H350  1.075 .      S
C316  N106  1.454 .      S
C316  H351  1.107 .      S
C316  H352  1.106 .      S
C316  H353  1.107 .      S
N106  C317  1.453 .      S
N106  H354  1.041 .      S
C317  C318  1.462 .      S
C317  H355  1.100 .      S
C317  H356  1.100 .      S
C320  H357  1.074 1_554  S
C321  H358  1.081 1_554  S
C322  H359  1.080 .      S
C323  H360  1.069 .      S
H357  C320  1.074 1_556  S
H358  C321  1.081 1_556  S
C325  N109  1.449 .      S
C325  H361  1.101 .      S
C325  H362  1.104 .      S
C325  H363  1.106 .      S
N109  C326  1.444 1_556  S
N109  H364  1.038 .      S
C326  N109  1.444 1_554  S
C326  C327  1.479 .      S
C326  H365  1.098 .      S
C326  H366  1.103 .      S
C329  H367  1.061 .      S
C330  H368  1.081 .      S
C331  H369  1.074 .      S
C332  H370  1.078 .      S
C334  N112  1.453 .      S
C334  H371  1.100 .      S
C334  H372  1.102 .      S
C334  H373  1.107 1_554  S
N112  C335  1.441 .      S
N112  H374  1.040 .      S
C335  C336  1.492 .      S
C335  H375  1.091 1_554  S
C335  H376  1.092 .      S
C338  H377  1.063 .      S
C339  H378  1.081 .      S
C340  H379  1.081 .      S
C341  H380  1.064 .      S
H373  C334  1.107 1_556  S
H375  C335  1.091 1_556  S
C343  N115  1.455 .      S
C343  H381  1.099 .      S
C343  H382  1.094 .      S
C343  H383  1.099 .      S
N115  C344  1.438 .      S
N115  H384  1.033 .      S
C344  C345  1.476 .      S
C344  H385  1.079 .      S
C344  H386  1.105 .      S
C347  H387  1.081 .      S
C348  H388  1.081 .      S
C349  H389  1.081 .      S
C350  H390  1.066 1_556  S
N117  Zn13  2.034 1_556  S
H390  C350  1.066 1_554  S
C352  N118  1.455 .      S
C352  H391  1.107 .      S
C352  H392  1.106 1_556  S
C352  H393  1.102 .      S
N118  C353  1.450 1_556  S
N118  H394  1.036 .      S
C353  N118  1.450 1_554  S
C353  C354  1.511 .      S
C353  H395  1.103 1_554  S
C353  H396  1.086 .      S
C356  H397  1.054 1_655  S
C357  H398  1.081 1_655  S
C358  H399  1.078 .      S
C359  H400  1.068 .      S
H392  C352  1.106 1_554  S
H395  C353  1.103 1_556  S
H397  C356  1.054 1_455  S
H398  C357  1.081 1_455  S
C361  N121  1.427 .      S
C361  H401  1.078 .      S
C361  H402  1.094 .      S
C361  H403  1.096 .      S
N121  C362  1.432 .      S
N121  H404  1.024 .      S
C362  C363  1.476 .      S
C362  H405  1.089 .      S
C362  H406  1.094 .      S
C365  H407  1.072 .      S
C366  H408  1.081 .      S
C367  H409  1.081 .      S
C368  H410  1.075 1_556  S
N123  Zn14  2.006 1_556  S
H410  C368  1.075 1_554  S
C370  N124  1.453 .      S
C370  H411  1.108 .      S
C370  H412  1.109 .      S
C370  H413  1.104 .      S
N124  C371  1.452 .      S
N124  H414  1.043 1_556  S
C371  C372  1.487 1_556  S
C371  H415  1.097 .      S
C371  H416  1.105 .      S
C372  C371  1.487 1_554  S
C374  H417  1.068 .      S
C375  H418  1.079 .      S
C376  H419  1.078 .      S
C377  H420  1.079 .      S
H414  N124  1.043 1_554  S
C379  N127  1.456 1_556  S
C379  H421  1.108 .      S
C379  H422  1.106 .      S
C379  H423  1.107 1_556  S
N127  C379  1.456 1_554  S
N127  C380  1.443 1_554  S
N127  H424  1.035 .      S
C380  N127  1.443 1_556  S
C380  C381  1.499 1_556  S
C380  H425  1.105 .      S
C380  H426  1.096 .      S
C381  C380  1.499 1_554  S
C383  H427  1.077 .      S
C384  H428  1.077 .      S
C385  H429  1.081 .      S
C386  H430  1.058 .      S
H423  C379  1.107 1_554  S
C388  N130  1.453 .      S
C388  H431  1.109 .      S
C388  H432  1.101 .      S
C388  H433  1.102 .      S
N130  C389  1.444 .      S
N130  H434  1.032 .      S
C389  C390  1.487 .      S
C389  H435  1.096 .      S
C389  H436  1.090 .      S
C392  H437  1.065 .      S
C393  H438  1.081 .      S
C394  H439  1.081 .      S
C395  H440  1.063 1_556  S
N132  Zn17  2.048 1_556  S
H440  C395  1.063 1_554  S
C397  N133  1.461 .      S
C397  H441  1.109 .      S
C397  H442  1.103 1_554  S
C397  H443  1.098 1_554  S
N133  C398  1.455 1_554  S
N133  H444  1.030 .      S
C398  N133  1.455 1_556  S
C398  C399  1.491 1_556  S
C398  H445  1.104 .      S
C398  H446  1.100 .      S
C399  C398  1.491 1_554  S
C401  H447  1.078 .      S
C402  H448  1.077 .      S
C403  H449  1.081 .      S
C404  H450  1.077 .      S
H442  C397  1.103 1_556  S
H443  C397  1.098 1_556  S
C406  N136  1.459 .      S
C406  H451  1.109 .      S
C406  H452  1.107 .      S
C406  H453  1.107 .      S
N136  C407  1.444 .      S
N136  H454  1.031 .      S
C407  C408  1.502 .      S
C407  H455  1.108 .      S
C407  H456  1.094 .      S
C410  H457  1.066 .      S
C411  H458  1.074 .      S
C412  H459  1.080 .      S
C413  H460  1.058 .      S
C415  N139  1.463 .      S
C415  H461  1.108 .      S
C415  H462  1.104 .      S
C415  H463  1.104 .      S
N139  C416  1.455 .      S
N139  H464  1.041 .      S
C416  C417  1.458 .      S
C416  H465  1.091 .      S
C416  H466  1.089 .      S
C419  H467  1.064 .      S
C420  H468  1.078 .      S
C421  H469  1.081 .      S
C422  H470  1.070 .      S
N141  Zn20  2.102 1_455  S
C424  N142  1.452 .      S
C424  H471  1.105 .      S
C424  H472  1.106 .      S
C424  H473  1.103 .      S
N142  C425  1.442 .      S
N142  H474  1.043 .      S
C425  C426  1.480 .      S
C425  H475  1.095 .      S
C425  H476  1.104 .      S
C428  H477  1.052 .      S
C429  H478  1.080 .      S
C430  H479  1.080 .      S
C431  H480  1.044 1_556  S
N144  Zn66  2.126 1_556  S
H480  C431  1.044 1_554  S
C433  N145  1.455 .      S
C433  H481  1.108 .      S
C433  H482  1.109 .      S
C433  H483  1.107 .      S
N145  C434  1.455 .      S
N145  H484  1.043 .      S
C434  C435  1.485 .      S
C434  H485  1.098 .      S
C434  H486  1.105 .      S
C437  H487  1.066 .      S
C438  H488  1.081 .      S
C439  H489  1.081 .      S
C440  H490  1.071 1_556  S
N147  Zn67  2.105 1_556  S
H490  C440  1.071 1_554  S
C442  N148  1.456 .      S
C442  H491  1.108 .      S
C442  H492  1.105 .      S
C442  H493  1.108 .      S
N148  C443  1.445 .      S
N148  H494  1.040 .      S
C443  C444  1.488 .      S
C443  H495  1.101 .      S
C443  H496  1.104 .      S
N149  Zn25  2.054 1_556  S
C446  H497  1.062 .      S
C447  H498  1.080 1_556  S
C448  H499  1.081 .      S
C449  H500  1.055 .      S
H498  C447  1.080 1_554  S
C451  N151  1.450 .      S
C451  H501  1.098 .      S
C451  H502  1.107 .      S
C451  H503  1.105 .      S
N151  C452  1.448 .      S
N151  H504  1.042 .      S
C452  C453  1.475 .      S
C452  H505  1.098 .      S
C452  H506  1.108 .      S
C455  H507  1.078 .      S
C456  H508  1.075 .      S
C457  H509  1.081 .      S
C458  H510  1.079 .      S
C460  N154  1.455 .      S
C460  H511  1.106 .      S
C460  H512  1.109 .      S
C460  H513  1.104 .      S
N154  C461  1.455 .      S
N154  H514  1.041 .      S
C461  C462  1.480 .      S
C461  H515  1.097 .      S
C461  H516  1.099 .      S
C464  H517  1.061 .      S
C465  H518  1.081 .      S
C466  H519  1.078 .      S
C467  H520  1.077 .      S
C469  N157  1.451 .      S
C469  H521  1.109 .      S
C469  H522  1.105 .      S
C469  H523  1.104 .      S
N157  C470  1.441 .      S
N157  H524  1.029 .      S
C470  C471  1.479 .      S
C470  H525  1.096 .      S
C470  H526  1.100 .      S
C473  H527  1.072 .      S
C474  H528  1.081 .      S
C475  H529  1.081 .      S
C476  H530  1.057 .      S
C478  N160  1.453 .      S
C478  H531  1.107 .      S
C478  H532  1.109 .      S
C478  H533  1.109 .      S
N160  C479  1.451 .      S
N160  H534  1.040 .      S
C479  C480  1.487 .      S
C479  H535  1.099 .      S
C479  H536  1.100 .      S
C482  H537  1.059 .      S
C483  H538  1.080 .      S
C484  H539  1.081 .      S
C485  H540  1.072 .      S
C487  N163  1.451 .      S
C487  H541  1.109 .      S
C487  H542  1.102 .      S
C487  H543  1.109 .      S
N163  C488  1.454 .      S
N163  H544  1.038 .      S
C488  C489  1.480 .      S
C488  H545  1.096 .      S
C488  H546  1.106 .      S
N164  Zn27  2.126 1_556  S
C491  H547  1.068 .      S
C492  H548  1.081 .      S
C493  H549  1.081 .      S
C494  H550  1.070 .      S
C496  N166  1.455 .      S
C496  H551  1.108 .      S
C496  H552  1.108 .      S
C496  H553  1.108 .      S
N166  C497  1.451 .      S
N166  H554  1.043 .      S
C497  C498  1.483 .      S
C497  H555  1.101 .      S
C497  H556  1.097 .      S
C500  H557  1.055 .      S
C501  H558  1.081 .      S
C502  H559  1.080 .      S
C503  H560  1.070 .      S
N168  Zn28  2.077 1_455  S
C505  N169  1.458 .      S
C505  H561  1.107 .      S
C505  H562  1.104 .      S
C505  H563  1.107 .      S
N169  C506  1.441 1_455  S
N169  H564  1.036 .      S
C506  N169  1.441 1_655  S
C506  C507  1.484 .      S
C506  H565  1.095 .      S
C506  H566  1.098 .      S
C509  H567  1.071 .      S
C510  H568  1.081 .      S
C511  H569  1.081 .      S
C512  H570  1.076 1_656  S
N171  Zn28  2.114 1_556  S
H570  C512  1.076 1_454  S
C514  N172  1.426 .      S
C514  H571  1.100 .      S
C514  H572  1.095 .      S
C514  H573  1.056 .      S
N172  C515  1.444 .      S
N172  H574  1.043 .      S
C515  C516  1.510 .      S
C515  H575  1.107 .      S
C515  H576  1.105 .      S
C518  H577  1.078 .      S
C519  H578  1.081 .      S
C520  H579  1.081 .      S
C521  H580  1.069 .      S
C523  N175  1.455 .      S
C523  H581  1.108 .      S
C523  H582  1.108 .      S
C523  H583  1.100 .      S
N175  C524  1.451 .      S
N175  H584  1.040 .      S
C524  C525  1.489 .      S
C524  H585  1.105 .      S
C524  H586  1.106 .      S
C527  H587  1.071 .      S
C528  H588  1.080 .      S
C529  H589  1.081 1_545  S
C530  H590  1.064 .      S
H589  C529  1.081 1_565  S
C532  N178  1.461 .      S
C532  H591  1.103 .      S
C532  H592  1.108 .      S
C532  H593  1.106 .      S
N178  C533  1.460 .      S
N178  H594  1.039 .      S
C533  C534  1.500 .      S
C533  H595  1.103 .      S
C533  H596  1.103 .      S
N179  Zn68  2.145 1_455  S
C536  H597  1.048 1_455  S
C537  H598  1.081 .      S
C538  H599  1.081 .      S
C539  H600  1.050 .      S
H597  C536  1.048 1_655  S
C541  N181  1.452 .      S
C541  H601  1.106 .      S
C541  H602  1.108 .      S
C541  H603  1.104 .      S
N181  C542  1.450 .      S
N181  H604  1.042 .      S
C542  C543  1.460 .      S
C542  H605  1.089 .      S
C542  H606  1.085 .      S
C545  H607  1.067 .      S
C546  H608  1.081 .      S
C547  H609  1.081 .      S
C548  H610  1.072 .      S
C550  N184  1.456 .      S
C550  H611  1.104 .      S
C550  H612  1.107 .      S
C550  H613  1.109 .      S
N184  C551  1.445 .      S
N184  H614  1.040 .      S
C551  C552  1.483 .      S
C551  H615  1.106 .      S
C551  H616  1.101 .      S
C554  H617  1.072 .      S
C555  H618  1.081 .      S
C556  H619  1.081 .      S
C557  H620  1.078 .      S
C559  N187  1.449 .      S
C559  H621  1.098 .      S
C559  H622  1.109 .      S
C559  H623  1.108 .      S
N187  C560  1.448 .      S
N187  H624  1.041 .      S
C560  C561  1.464 .      S
C560  H625  1.091 .      S
C560  H626  1.096 .      S
C563  H627  1.075 .      S
C564  H628  1.079 .      S
C565  H629  1.081 .      S
C566  H630  1.080 .      S
C568  N190  1.455 .      S
C568  H631  1.108 .      S
C568  H632  1.108 .      S
C568  H633  1.109 .      S
N190  C569  1.457 .      S
N190  H634  1.040 .      S
C569  C570  1.488 .      S
C569  H635  1.094 .      S
C569  H636  1.083 .      S
N191  Zn33  1.988 1_565  S
C572  H637  1.068 .      S
C573  H638  1.081 .      S
C574  H639  1.081 .      S
C575  H640  1.073 .      S
C577  N193  1.457 .      S
C577  H641  1.104 .      S
C577  H642  1.106 .      S
C577  H643  1.106 .      S
N193  C578  1.456 .      S
N193  H644  1.032 .      S
C578  C579  1.500 .      S
C578  H645  1.078 .      S
C578  H646  1.100 .      S
C581  H647  1.076 .      S
C582  H648  1.081 .      S
C583  H649  1.081 1_545  S
C584  H650  1.068 .      S
H649  C583  1.081 1_565  S
C586  N196  1.453 .      S
C586  H651  1.109 1_556  S
C586  H652  1.107 .      S
C586  H653  1.106 .      S
N196  C587  1.456 .      S
N196  H654  1.043 1_556  S
C587  C588  1.482 1_565  S
C587  H655  1.084 .      S
C587  H656  1.082 .      S
C588  C587  1.482 1_545  S
C590  H657  1.061 .      S
C591  H658  1.070 .      S
C592  H659  1.079 .      S
C593  H660  1.079 .      S
H651  C586  1.109 1_554  S
H654  N196  1.043 1_554  S
C595  N199  1.455 1_556  S
C595  H661  1.106 .      S
C595  H662  1.102 .      S
C595  H663  1.099 .      S
N199  C595  1.455 1_554  S
N199  C596  1.438 1_554  S
N199  H664  1.033 .      S
C596  N199  1.438 1_556  S
C596  C597  1.450 1_556  S
C596  H665  1.097 .      S
C596  H666  1.087 .      S
C597  C596  1.450 1_554  S
C599  H667  1.069 .      S
C600  H668  1.081 .      S
C601  H669  1.073 .      S
C602  H670  1.056 .      S
C604  N202  1.451 .      S
C604  H671  1.100 .      S
C604  H672  1.109 .      S
C604  H673  1.106 .      S
N202  C605  1.459 .      S
N202  H674  1.039 .      S
C605  C606  1.493 .      S
C605  H675  1.103 .      S
C605  H676  1.105 .      S
C608  H677  1.076 .      S
C609  H678  1.081 .      S
C610  H679  1.078 .      S
C611  H680  1.079 .      S
C613  N205  1.448 .      S
C613  H681  1.104 .      S
C613  H682  1.094 .      S
C613  H683  1.092 .      S
N205  C614  1.444 .      S
N205  H684  1.043 .      S
C614  C615  1.432 .      S
C614  H685  1.100 .      S
C614  H686  1.107 .      S
C617  H687  1.078 .      S
C618  H688  1.081 .      S
C619  H689  1.081 .      S
C620  H690  1.072 .      S
C622  N208  1.429 .      S
C622  H691  1.108 .      S
C622  H692  1.109 .      S
C622  H693  1.099 .      S
N208  C623  1.434 .      S
N208  H694  1.027 .      S
C623  C624  1.486 .      S
C623  H695  1.082 .      S
C623  H696  1.108 .      S
C626  H697  1.068 .      S
C627  H698  1.080 .      S
C628  H699  1.081 1_554  S
C629  H700  1.071 1_554  S
H699  C628  1.081 1_556  S
H700  C629  1.071 1_556  S
C631  N211  1.454 .      S
C631  H701  1.107 .      S
C631  H702  1.109 .      S
C631  H703  1.107 .      S
N211  C632  1.450 .      S
N211  H704  1.043 .      S
C632  C633  1.489 .      S
C632  H705  1.104 .      S
C632  H706  1.096 .      S
C635  H707  1.051 .      S
C636  H708  1.072 .      S
C637  H709  1.078 .      S
C638  H710  1.060 .      S
C640  N214  1.450 .      S
C640  H711  1.105 .      S
C640  H712  1.107 .      S
C640  H713  1.087 .      S
N214  C641  1.443 .      S
N214  H714  1.039 .      S
C641  C642  1.481 .      S
C641  H715  1.098 .      S
C641  H716  1.095 .      S
C644  H717  1.074 .      S
C645  H718  1.081 .      S
C646  H719  1.081 .      S
C647  H720  1.074 .      S
C649  N217  1.446 .      S
C649  H721  1.100 .      S
C649  H722  1.091 .      S
C649  H723  1.103 .      S
N217  C650  1.435 .      S
N217  H724  1.030 .      S
C650  C651  1.457 .      S
C650  H725  1.082 .      S
C650  H726  1.099 .      S
C653  H727  1.074 .      S
C654  H728  1.081 .      S
C655  H729  1.081 .      S
C656  H730  1.069 1_554  S
H730  C656  1.069 1_556  S
C658  N220  1.453 .      S
C658  H731  1.109 .      S
C658  H732  1.107 .      S
C658  H733  1.108 .      S
N220  C659  1.451 .      S
N220  H734  1.042 .      S
C659  C660  1.493 .      S
C659  H735  1.098 .      S
C659  H736  1.102 .      S
C662  H737  1.062 .      S
C663  H738  1.079 .      S
C664  H739  1.081 .      S
C665  H740  1.077 .      S
C667  N223  1.452 .      S
C667  H741  1.103 .      S
C667  H742  1.107 .      S
C667  H743  1.107 .      S
N223  C668  1.440 .      S
N223  H744  1.031 .      S
C668  C669  1.489 .      S
C668  H745  1.102 .      S
C668  H746  1.102 .      S
C671  H747  1.079 .      S
C672  H748  1.081 .      S
C673  H749  1.081 .      S
C674  H750  1.065 .      S
C676  N226  1.453 .      S
C676  H751  1.097 .      S
C676  H752  1.103 .      S
C676  H753  1.105 .      S
N226  C677  1.436 .      S
N226  H754  1.041 .      S
C677  C678  1.464 .      S
C677  H755  1.094 .      S
C677  H756  1.104 .      S
C680  H757  1.066 .      S
C681  H758  1.077 .      S
C682  H759  1.081 .      S
C683  H760  1.071 .      S
C685  N229  1.456 .      S
C685  H761  1.106 .      S
C685  H762  1.106 .      S
C685  H763  1.106 .      S
N229  C686  1.459 .      S
N229  H764  1.041 .      S
C686  C687  1.461 .      S
C686  H765  1.089 .      S
C686  H766  1.082 .      S
C689  H767  1.067 .      S
C690  H768  1.081 .      S
C691  H769  1.079 .      S
C692  H770  1.069 .      S
C694  N232  1.451 .      S
C694  H771  1.105 .      S
C694  H772  1.109 .      S
C694  H773  1.101 .      S
N232  C695  1.451 .      S
N232  H774  1.044 .      S
C695  C696  1.464 .      S
C695  H775  1.094 .      S
C695  H776  1.103 .      S
C698  H777  1.063 .      S
C699  H778  1.080 .      S
C700  H779  1.081 .      S
C701  H780  1.058 .      S
C703  N235  1.453 .      S
C703  H781  1.103 .      S
C703  H782  1.101 .      S
C703  H783  1.106 .      S
N235  C704  1.446 .      S
N235  H784  1.041 .      S
C704  C705  1.478 .      S
C704  H785  1.100 .      S
C704  H786  1.105 .      S
C707  H787  1.073 .      S
C708  H788  1.081 .      S
C709  H789  1.081 .      S
C710  H790  1.071 .      S
C712  N238  1.453 .      S
C712  H791  1.095 .      S
C712  H792  1.109 .      S
C712  H793  1.095 .      S
N238  C713  1.457 .      S
N238  H794  1.039 .      S
C713  C714  1.474 .      S
C713  H795  1.092 .      S
C713  H796  1.096 .      S
C716  H797  1.074 .      S
C717  H798  1.081 .      S
C718  H799  1.081 .      S
C719  H800  1.076 .      S
C721  N241  1.453 .      S
C721  H801  1.108 .      S
C721  H802  1.106 .      S
C721  H803  1.106 .      S
N241  C722  1.454 .      S
N241  H804  1.040 .      S
C722  C723  1.505 .      S
C722  H805  1.092 .      S
C722  H806  1.099 .      S
C725  H807  1.064 .      S
C726  H808  1.081 .      S
C727  H809  1.081 1_565  S
C728  H810  1.059 .      S
N243  Zn91  2.133 1_455  S
H809  C727  1.081 1_545  S
C730  N244  1.454 1_565  S
C730  H811  1.108 .      S
C730  H812  1.108 .      S
C730  H813  1.107 .      S
N244  C730  1.454 1_545  S
N244  C731  1.447 1_545  S
N244  H814  1.040 .      S
C731  N244  1.447 1_565  S
C731  C732  1.481 1_565  S
C731  H815  1.104 .      S
C731  H816  1.097 .      S
C732  C731  1.481 1_545  S
C734  H817  1.071 .      S
C735  H818  1.081 .      S
C736  H819  1.081 .      S
C737  H820  1.067 .      S
C739  N247  1.455 .      S
C739  H821  1.109 .      S
C739  H822  1.108 .      S
C739  H823  1.109 .      S
N247  C740  1.445 .      S
N247  H824  1.040 .      S
C740  C741  1.500 .      S
C740  H825  1.079 .      S
C740  H826  1.108 .      S
C743  H827  1.065 .      S
C744  H828  1.067 .      S
C745  H829  1.075 .      S
C746  H830  1.074 .      S
C748  N250  1.457 1_556  S
C748  H831  1.106 .      S
C748  H832  1.108 .      S
C748  H833  1.109 .      S
N250  C748  1.457 1_554  S
N250  C749  1.446 .      S
N250  H834  1.040 .      S
C749  C750  1.495 .      S
C749  H835  1.095 .      S
C749  H836  1.104 .      S
C752  H837  1.064 .      S
C753  H838  1.072 .      S
C754  H839  1.074 .      S
C755  H840  1.078 .      S
C757  N253  1.455 .      S
C757  H841  1.108 .      S
C757  H842  1.106 .      S
C757  H843  1.109 .      S
N253  C758  1.443 .      S
N253  H844  1.036 .      S
C758  C759  1.485 1_554  S
C758  H845  1.102 .      S
C758  H846  1.101 .      S
C759  C758  1.485 1_556  S
C761  H847  1.055 .      S
C762  H848  1.078 .      S
C763  H849  1.081 .      S
C764  H850  1.052 .      S
C766  N256  1.452 .      S
C766  H851  1.108 .      S
C766  H852  1.099 .      S
C766  H853  1.098 .      S
N256  C767  1.456 .      S
N256  H854  1.043 .      S
C767  C768  1.460 .      S
C767  H855  1.089 .      S
C767  H856  1.083 .      S
C770  H857  1.079 .      S
C771  H858  1.081 .      S
C772  H859  1.081 .      S
C773  H860  1.073 .      S
C775  N259  1.455 .      S
C775  H861  1.106 .      S
C775  H862  1.103 .      S
C775  H863  1.108 .      S
N259  C776  1.444 .      S
N259  H864  1.035 .      S
C776  C777  1.484 .      S
C776  H865  1.100 .      S
C776  H866  1.104 .      S
C779  H867  1.072 .      S
C780  H868  1.079 .      S
C781  H869  1.080 .      S
C782  H870  1.074 .      S
C784  N262  1.442 .      S
C784  H871  1.109 .      S
C784  H872  1.096 .      S
C784  H873  1.093 .      S
N262  C785  1.452 .      S
N262  H874  1.040 .      S
C785  C786  1.459 1_556  S
C785  H875  1.098 1_556  S
C785  H876  1.107 .      S
C786  C785  1.459 1_554  S
C788  H877  1.074 1_554  S
C789  H878  1.081 .      S
C790  H879  1.081 .      S
C791  H880  1.074 .      S
H875  C785  1.098 1_554  S
H877  C788  1.074 1_556  S
C793  N265  1.453 .      S
C793  H881  1.104 .      S
C793  H882  1.107 .      S
C793  H883  1.104 .      S
N265  C794  1.451 .      S
N265  H884  1.044 .      S
C794  C795  1.474 .      S
C794  H885  1.103 .      S
C794  H886  1.091 .      S
C797  H887  1.077 1_554  S
C798  H888  1.081 1_554  S
C799  H889  1.081 .      S
C800  H890  1.075 .      S
H887  C797  1.077 1_556  S
H888  C798  1.081 1_556  S
C802  N268  1.437 .      S
C802  H891  1.103 .      S
C802  H892  1.106 .      S
C802  H893  1.091 .      S
N268  C803  1.447 .      S
N268  H894  1.039 .      S
C803  C804  1.467 .      S
C803  H895  1.101 .      S
C803  H896  1.104 .      S
C806  H897  1.071 .      S
C807  H898  1.081 .      S
C808  H899  1.081 .      S
C809  H900  1.075 .      S
C811  N271  1.432 .      S
C811  H901  1.092 .      S
C811  H902  1.097 .      S
C811  H903  1.094 .      S
N271  C812  1.442 .      S
N271  H904  1.016 1_565  S
C812  C813  1.480 .      S
C812  H905  1.099 .      S
C812  H906  1.100 .      S
C815  H907  1.076 .      S
C816  H908  1.081 .      S
C817  H909  1.081 .      S
C818  H910  1.075 1_545  S
H904  N271  1.016 1_545  S
H910  C818  1.075 1_565  S
C820  N274  1.455 .      S
C820  H911  1.104 .      S
C820  H912  1.108 .      S
C820  H913  1.108 .      S
N274  C821  1.448 .      S
N274  H914  1.041 .      S
C821  C822  1.486 .      S
C821  H915  1.106 .      S
C821  H916  1.106 .      S
C824  H917  1.049 .      S
C825  H918  1.078 .      S
C826  H919  1.078 .      S
C827  H920  1.062 .      S
C829  N277  1.455 .      S
C829  H921  1.108 .      S
C829  H922  1.109 .      S
C829  H923  1.105 .      S
N277  C830  1.454 .      S
N277  H924  1.044 .      S
C830  C831  1.488 .      S
C830  H925  1.083 .      S
C830  H926  1.094 .      S
C833  H927  1.063 .      S
C834  H928  1.077 .      S
C835  H929  1.078 .      S
C836  H930  1.060 .      S
C838  N280  1.435 .      S
C838  H931  1.103 .      S
C838  H932  1.104 .      S
C838  H933  1.101 .      S
N280  C839  1.435 .      S
N280  H934  1.039 .      S
C839  C840  1.462 .      S
C839  H935  1.092 .      S
C839  H936  1.097 .      S
C842  H937  1.067 .      S
C843  H938  1.081 .      S
C844  H939  1.081 .      S
C845  H940  1.077 .      S
C847  N283  1.461 .      S
C847  H941  1.103 .      S
C847  H942  1.102 .      S
C847  H943  1.103 .      S
N283  C848  1.457 .      S
N283  H944  1.044 .      S
C848  C849  1.475 .      S
C848  H945  1.096 .      S
C848  H946  1.061 .      S
C851  H947  1.079 .      S
C852  H948  1.079 .      S
C853  H949  1.081 .      S
C854  H950  1.076 1_556  S
N285  Zn51  2.058 1_556  S
H950  C854  1.076 1_554  S
C856  N286  1.453 1_556  S
C856  H951  1.101 .      S
C856  H952  1.096 .      S
C856  H953  1.107 .      S
N286  C856  1.453 1_554  S
N286  C857  1.446 .      S
N286  H954  1.039 .      S
C857  C858  1.481 .      S
C857  H955  1.091 1_554  S
C857  H956  1.104 1_554  S
C860  H957  1.065 .      S
C861  H958  1.079 .      S
C862  H959  1.081 .      S
C863  H960  1.066 .      S
H955  C857  1.091 1_556  S
H956  C857  1.104 1_556  S
C865  N289  1.454 .      S
C865  H961  1.108 .      S
C865  H962  1.109 .      S
C865  H963  1.109 .      S
N289  C866  1.449 .      S
N289  H964  1.041 .      S
C866  C867  1.490 .      S
C866  H965  1.102 .      S
C866  H966  1.094 .      S
N290  Zn52  2.102 1_455  S
C869  H967  1.063 1_454  S
C870  H968  1.080 1_554  S
C871  H969  1.081 .      S
C872  H970  1.041 .      S
H967  C869  1.063 1_656  S
H968  C870  1.080 1_556  S
C874  N292  1.455 .      S
C874  H971  1.108 1_655  S
C874  H972  1.109 .      S
C874  H973  1.108 1_655  S
N292  C875  1.449 .      S
N292  H974  1.041 1_655  S
C875  C876  1.490 .      S
C875  H975  1.097 .      S
C875  H976  1.107 .      S
N293  Zn52  2.050 1_556  S
C878  H977  1.053 .      S
C879  H978  1.081 .      S
C880  H979  1.080 .      S
C881  H980  1.052 .      S
H971  C874  1.108 1_455  S
H973  C874  1.108 1_455  S
H974  N292  1.041 1_455  S
C883  N295  1.456 1_556  S
C883  H981  1.091 .      S
C883  H982  1.100 .      S
C883  H983  1.105 .      S
N295  C883  1.456 1_554  S
N295  C884  1.446 1_554  S
N295  H984  1.041 .      S
C884  N295  1.446 1_556  S
C884  C885  1.465 1_556  S
C884  H985  1.080 .      S
C884  H986  1.099 .      S
C885  C884  1.465 1_554  S
C887  H987  1.078 .      S
C888  H988  1.081 .      S
C889  H989  1.081 .      S
C890  H990  1.069 .      S
C892  N298  1.460 .      S
C892  H991  1.105 1_554  S
C892  H992  1.108 1_554  S
C892  H993  1.106 .      S
N298  C893  1.445 .      S
N298  H994  1.040 .      S
C893  C894  1.498 .      S
C893  H995  1.099 .      S
C893  H996  1.077 .      S
C896  H997  1.070 .      S
C897  H998  1.080 .      S
C898  H999  1.081 .      S
C899  H1000 1.052 .      S
H991  C892  1.105 1_556  S
H992  C892  1.108 1_556  S
C901  N301  1.457 .      S
C901  H1001 1.109 .      S
C901  H1002 1.109 .      S
C901  H1003 1.107 .      S
N301  C902  1.453 .      S
N301  H1004 1.040 .      S
C902  C903  1.472 .      S
C902  H1005 1.103 .      S
C902  H1006 1.096 .      S
C905  H1007 1.076 .      S
C906  H1008 1.081 .      S
C907  H1009 1.081 .      S
C908  H1010 1.064 1_556  S
N303  Zn53  2.068 1_556  S
H1010 C908  1.064 1_554  S
C910  N304  1.454 .      S
C910  H1011 1.109 .      S
C910  H1012 1.102 .      S
C910  H1013 1.107 .      S
N304  C911  1.445 .      S
N304  H1014 1.038 .      S
C911  C912  1.493 .      S
C911  H1015 1.108 .      S
C911  H1016 1.100 .      S
C914  H1017 1.079 .      S
C915  H1018 1.079 .      S
C916  H1019 1.081 .      S
C917  H1020 1.065 .      S
C919  N307  1.455 .      S
C919  H1021 1.109 .      S
C919  H1022 1.109 .      S
C919  H1023 1.108 .      S
N307  C920  1.448 .      S
N307  H1024 1.035 .      S
C920  C921  1.493 .      S
C920  H1025 1.104 .      S
C920  H1026 1.091 .      S
C923  H1027 1.038 .      S
C924  H1028 1.073 .      S
C925  H1029 1.076 .      S
C926  H1030 1.053 .      S
C928  N310  1.453 .      S
C928  H1031 1.097 .      S
C928  H1032 1.108 .      S
C928  H1033 1.100 .      S
N310  C929  1.449 .      S
N310  H1034 1.039 .      S
C929  C930  1.489 1_565  S
C929  H1035 1.104 .      S
C929  H1036 1.090 .      S
C930  C929  1.489 1_545  S
C932  H1037 1.074 1_545  S
C933  H1038 1.079 .      S
C934  H1039 1.081 .      S
C935  H1040 1.070 .      S
H1037 C932  1.074 1_565  S
C937  N313  1.465 1_545  S
C937  H1041 1.106 .      S
C937  H1042 1.090 .      S
C937  H1043 1.092 .      S
N313  C937  1.465 1_565  S
N313  C938  1.446 .      S
N313  H1044 1.028 .      S
C938  C939  1.484 .      S
C938  H1045 1.094 .      S
C938  H1046 1.099 .      S
C941  H1047 1.066 .      S
C942  H1048 1.080 .      S
C943  H1049 1.081 .      S
C944  H1050 1.069 .      S
C946  N316  1.457 .      S
C946  H1051 1.109 .      S
C946  H1052 1.107 .      S
C946  H1053 1.105 .      S
N316  C947  1.465 .      S
N316  H1054 1.036 .      S
C947  C948  1.502 .      S
C947  H1055 1.086 .      S
C947  H1056 1.095 .      S
C950  H1057 1.071 .      S
C951  H1058 1.080 .      S
C952  H1059 1.081 .      S
C953  H1060 1.075 .      S
C955  N319  1.455 .      S
C955  H1061 1.107 .      S
C955  H1062 1.101 .      S
C955  H1063 1.106 .      S
N319  C956  1.440 .      S
N319  H1064 1.037 .      S
C956  C957  1.482 .      S
C956  H1065 1.095 .      S
C956  H1066 1.096 .      S
C959  H1067 1.073 .      S
C960  H1068 1.076 .      S
C961  H1069 1.081 .      S
C962  H1070 1.065 .      S
C964  N322  1.451 .      S
C964  H1071 1.095 .      S
C964  H1072 1.107 .      S
C964  H1073 1.085 .      S
N322  C965  1.449 .      S
N322  H1074 1.034 .      S
C965  C966  1.489 .      S
C965  H1075 1.102 .      S
C965  H1076 1.097 .      S
C968  H1077 1.070 .      S
C969  H1078 1.081 .      S
C970  H1079 1.081 .      S
C971  H1080 1.078 .      S
C973  N325  1.452 .      S
C973  H1081 1.108 .      S
C973  H1082 1.109 .      S
C973  H1083 1.098 .      S
N325  C974  1.442 .      S
N325  H1084 1.031 .      S
C974  C975  1.492 .      S
C974  H1085 1.103 .      S
C974  H1086 1.105 .      S
C977  H1087 1.081 .      S
C978  H1088 1.081 .      S
C979  H1089 1.081 .      S
C980  H1090 1.077 .      S
C982  N328  1.464 .      S
C982  H1091 1.101 .      S
C982  H1092 1.104 .      S
C982  H1093 1.098 .      S
N328  C983  1.456 .      S
N328  H1094 1.043 .      S
C983  C984  1.486 .      S
C983  H1095 1.097 .      S
C983  H1096 1.105 .      S
C986  H1097 1.072 .      S
C987  H1098 1.074 .      S
C988  H1099 1.081 .      S
C989  H1100 1.074 .      S
C991  N331  1.455 .      S
C991  H1101 1.109 .      S
C991  H1102 1.109 .      S
C991  H1103 1.110 .      S
N331  C992  1.457 .      S
N331  H1104 1.034 .      S
C992  C993  1.496 .      S
C992  H1105 1.101 .      S
C992  H1106 1.103 .      S
C995  H1107 1.070 .      S
C996  H1108 1.079 .      S
C997  H1109 1.072 .      S
C998  H1110 1.065 .      S
C1000 N334  1.459 .      S
C1000 H1111 1.109 1_554  S
C1000 H1112 1.109 .      S
C1000 H1113 1.107 .      S
N334  C1001 1.447 .      S
N334  H1114 1.038 1_554  S
C1001 C1002 1.498 .      S
C1001 H1115 1.102 .      S
C1001 H1116 1.089 .      S
C1004 H1117 1.063 .      S
C1005 H1118 1.081 .      S
C1006 H1119 1.081 .      S
C1007 H1120 1.058 .      S
H1111 C1000 1.109 1_556  S
H1114 N334  1.038 1_556  S
C1009 N337  1.457 .      S
C1009 H1121 1.106 .      S
C1009 H1122 1.105 .      S
C1009 H1123 1.107 .      S
N337  C1010 1.440 .      S
N337  H1124 1.035 .      S
C1010 C1011 1.480 .      S
C1010 H1125 1.097 .      S
C1010 H1126 1.088 .      S
C1013 H1127 1.072 .      S
C1014 H1128 1.078 .      S
C1015 H1129 1.072 .      S
C1016 H1130 1.067 .      S
C1018 N340  1.453 .      S
C1018 H1131 1.109 .      S
C1018 H1132 1.102 .      S
C1018 H1133 1.085 .      S
N340  C1019 1.442 .      S
N340  H1134 1.030 .      S
C1019 C1020 1.479 .      S
C1019 H1135 1.099 .      S
C1019 H1136 1.107 .      S
C1022 H1137 1.064 .      S
C1023 H1138 1.081 .      S
C1024 H1139 1.081 .      S
C1025 H1140 1.070 .      S
C1027 N343  1.458 .      S
C1027 H1141 1.109 .      S
C1027 H1142 1.108 .      S
C1027 H1143 1.099 .      S
N343  C1028 1.475 .      S
N343  H1144 1.040 .      S
C1028 C1029 1.471 .      S
C1028 H1145 1.101 .      S
C1028 H1146 1.100 .      S
C1031 H1147 1.071 .      S
C1032 H1148 1.081 .      S
C1033 H1149 1.081 .      S
C1034 H1150 1.074 .      S
C1036 N346  1.453 .      S
C1036 H1151 1.103 .      S
C1036 H1152 1.105 .      S
C1036 H1153 1.098 .      S
N346  C1037 1.452 .      S
N346  H1154 1.043 .      S
C1037 C1038 1.470 .      S
C1037 H1155 1.086 .      S
C1037 H1156 1.092 .      S
C1040 H1157 1.065 .      S
C1041 H1158 1.079 .      S
C1042 H1159 1.077 .      S
C1043 H1160 1.071 .      S
C1045 N349  1.452 .      S
C1045 H1161 1.109 .      S
C1045 H1162 1.103 .      S
C1045 H1163 1.103 .      S
N349  C1046 1.446 1_545  S
N349  H1164 1.035 1_545  S
C1046 N349  1.446 1_565  S
C1046 C1047 1.475 .      S
C1046 H1165 1.091 .      S
C1046 H1166 1.106 .      S
C1049 H1167 1.067 .      S
C1050 H1168 1.081 .      S
C1051 H1169 1.081 .      S
C1052 H1170 1.051 .      S
H1164 N349  1.035 1_565  S
C1054 N352  1.455 .      S
C1054 H1171 1.097 .      S
C1054 H1172 1.108 .      S
C1054 H1173 1.106 .      S
N352  C1055 1.444 .      S
N352  H1174 1.042 .      S
C1055 C1056 1.460 .      S
C1055 H1175 1.096 .      S
C1055 H1176 1.092 .      S
N353  Zn100 2.072 1_556  S
C1058 H1177 1.071 .      S
C1059 H1178 1.081 .      S
C1060 H1179 1.079 .      S
C1061 H1180 1.070 .      S
C1063 N355  1.451 .      S
C1063 H1181 1.101 .      S
C1063 H1182 1.107 .      S
C1063 H1183 1.105 .      S
N355  C1064 1.447 .      S
N355  H1184 1.040 .      S
C1064 C1065 1.484 .      S
C1064 H1185 1.102 .      S
C1064 H1186 1.107 .      S
C1067 H1187 1.064 .      S
C1068 H1188 1.081 .      S
C1069 H1189 1.080 .      S
C1070 H1190 1.060 .      S
C1072 N358  1.450 .      S
C1072 H1191 1.104 .      S
C1072 H1192 1.107 .      S
C1072 H1193 1.109 .      S
N358  C1073 1.455 .      S
N358  H1194 1.031 .      S
C1073 C1074 1.485 .      S
C1073 H1195 1.098 .      S
C1073 H1196 1.073 .      S
C1076 H1197 1.065 .      S
C1077 H1198 1.077 .      S
C1078 H1199 1.081 .      S
C1079 H1200 1.060 .      S
C1081 N361  1.458 .      S
C1081 H1201 1.109 .      S
C1081 H1202 1.109 .      S
C1081 H1203 1.103 .      S
N361  C1082 1.463 .      S
N361  H1204 1.044 .      S
C1082 C1083 1.452 .      S
C1082 H1205 1.097 .      S
C1082 H1206 1.084 .      S
N362  Zn101 2.031 1_556  S
C1085 H1207 1.065 1_556  S
C1086 H1208 1.081 .      S
C1087 H1209 1.081 .      S
C1088 H1210 1.068 .      S
H1207 C1085 1.065 1_554  S
C1090 N364  1.454 .      S
C1090 H1211 1.108 .      S
C1090 H1212 1.108 .      S
C1090 H1213 1.108 .      S
N364  C1091 1.445 .      S
N364  H1214 1.041 .      S
C1091 C1092 1.492 .      S
C1091 H1215 1.098 .      S
C1091 H1216 1.100 .      S
C1094 H1217 1.050 .      S
C1095 H1218 1.081 .      S
C1096 H1219 1.081 .      S
C1097 H1220 1.061 .      S
C1099 N367  1.450 .      S
C1099 H1221 1.100 .      S
C1099 H1222 1.092 .      S
C1099 H1223 1.097 .      S
N367  C1100 1.440 .      S
N367  H1224 1.032 .      S
C1100 C1101 1.484 .      S
C1100 H1225 1.086 .      S
C1100 H1226 1.108 .      S
C1103 H1227 1.078 .      S
C1104 H1228 1.079 .      S
C1105 H1229 1.078 .      S
C1106 H1230 1.071 .      S
C1108 N370  1.463 .      S
C1108 H1231 1.109 .      S
C1108 H1232 1.098 .      S
C1108 H1233 1.107 .      S
N370  C1109 1.442 .      S
N370  H1234 1.040 .      S
C1109 C1110 1.508 .      S
C1109 H1235 1.089 .      S
C1109 H1236 1.096 .      S
C1112 H1237 1.080 .      S
C1113 H1238 1.079 1_554  S
C1114 H1239 1.081 .      S
C1115 H1240 1.076 .      S
H1238 C1113 1.079 1_556  S
C1117 N373  1.441 .      S
C1117 H1241 1.089 .      S
C1117 H1242 1.103 .      S
C1117 H1243 1.094 .      S
N373  C1118 1.431 .      S
N373  H1244 1.037 .      S
C1118 C1119 1.453 .      S
C1118 H1245 1.092 .      S
C1118 H1246 1.108 .      S
C1121 H1247 1.070 .      S
C1122 H1248 1.080 .      S
C1123 H1249 1.080 .      S
C1124 H1250 1.067 .      S
C1126 N376  1.456 .      S
C1126 H1251 1.107 .      S
C1126 H1252 1.102 .      S
C1126 H1253 1.102 .      S
N376  C1127 1.451 .      S
N376  H1254 1.042 .      S
C1127 C1128 1.488 .      S
C1127 H1255 1.075 .      S
C1127 H1256 1.075 .      S
C1130 H1257 1.078 .      S
C1131 H1258 1.081 .      S
C1132 H1259 1.081 .      S
C1133 H1260 1.077 .      S
C1135 N379  1.456 .      S
C1135 H1261 1.107 .      S
C1135 H1262 1.108 .      S
C1135 H1263 1.109 .      S
N379  C1136 1.447 .      S
N379  H1264 1.041 .      S
C1136 C1137 1.484 .      S
C1136 H1265 1.098 .      S
C1136 H1266 1.106 .      S
C1139 H1267 1.032 .      S
C1140 H1268 1.080 .      S
C1141 H1269 1.065 .      S
C1142 H1270 1.048 .      S
C1144 N382  1.453 .      S
C1144 H1271 1.102 .      S
C1144 H1272 1.105 .      S
C1144 H1273 1.108 .      S
N382  C1145 1.445 .      S
N382  H1274 1.040 .      S
C1145 C1146 1.486 .      S
C1145 H1275 1.096 .      S
C1145 H1276 1.108 .      S
C1148 H1277 1.064 .      S
C1149 H1278 1.081 .      S
C1150 H1279 1.081 1_655  S
C1151 H1280 1.070 1_655  S
H1279 C1150 1.081 1_455  S
H1280 C1151 1.070 1_455  S
C1153 N385  1.460 .      S
C1153 H1281 1.108 .      S
C1153 H1282 1.110 .      S
C1153 H1283 1.102 .      S
N385  C1154 1.444 .      S
N385  H1284 1.022 .      S
C1154 C1155 1.482 .      S
C1154 H1285 1.053 .      S
C1154 H1286 1.095 .      S
C1157 H1287 1.052 .      S
C1158 H1288 1.076 .      S
C1159 H1289 1.081 .      S
C1160 H1290 1.060 .      S
C1162 N388  1.451 .      S
C1162 H1291 1.085 .      S
C1162 H1292 1.097 .      S
C1162 H1293 1.102 .      S
N388  C1163 1.440 .      S
N388  H1294 1.037 .      S
C1163 C1164 1.461 .      S
C1163 H1295 1.097 .      S
C1163 H1296 1.102 .      S
N389  Zn107 2.051 1_556  S
C1166 H1297 1.076 1_556  S
C1167 H1298 1.081 .      S
C1168 H1299 1.080 .      S
C1169 H1300 1.067 .      S
H1297 C1166 1.076 1_554  S
C1171 N391  1.444 .      S
C1171 H1301 1.108 .      S
C1171 H1302 1.103 .      S
C1171 H1303 1.085 .      S
N391  C1172 1.438 .      S
N391  H1304 1.035 .      S
C1172 C1173 1.473 .      S
C1172 H1305 1.095 .      S
C1172 H1306 1.104 .      S
C1175 H1307 1.063 .      S
C1176 H1308 1.081 .      S
C1177 H1309 1.074 .      S
C1178 H1310 1.074 .      S
C1180 N394  1.454 .      S
C1180 H1311 1.099 1_565  S
C1180 H1312 1.086 .      S
C1180 H1313 1.099 .      S
N394  C1181 1.462 .      S
N394  H1314 1.036 .      S
C1181 C1182 1.443 .      S
C1181 H1315 1.064 .      S
C1181 H1316 1.089 .      S
C1184 H1317 1.073 .      S
C1185 H1318 1.081 .      S
C1186 H1319 1.081 .      S
C1187 H1320 1.072 .      S
N396  Zn98  2.100 1_565  S
H1311 C1180 1.099 1_545  S
C1189 N397  1.460 1_556  S
C1189 H1321 1.108 1_565  S
C1189 H1322 1.100 .      S
C1189 H1323 1.108 .      S
N397  C1189 1.460 1_554  S
N397  C1190 1.439 1_554  S
N397  H1324 1.032 .      S
C1190 N397  1.439 1_556  S
C1190 C1191 1.491 1_556  S
C1190 H1325 1.095 .      S
C1190 H1326 1.084 .      S
C1191 C1190 1.491 1_554  S
N398  Zn64  2.127 1_554  S
C1193 H1327 1.068 .      S
C1194 H1328 1.074 .      S
C1195 H1329 1.081 .      S
C1196 H1330 1.074 .      S
H1321 C1189 1.108 1_545  S
C1198 N400  1.455 .      S
C1198 H1331 1.109 .      S
C1198 H1332 1.108 .      S
C1198 H1333 1.109 .      S
N400  C1199 1.455 .      S
N400  H1334 1.040 .      S
C1199 C1200 1.513 1_554  S
C1199 H1335 1.103 .      S
C1199 H1336 1.097 .      S
C1200 C1199 1.513 1_556  S
C1202 H1337 1.048 .      S
C1203 H1338 1.075 .      S
C1204 H1339 1.079 .      S
C1205 H1340 1.062 .      S
C1207 N403  1.456 .      S
C1207 H1341 1.109 .      S
C1207 H1342 1.109 .      S
C1207 H1343 1.108 .      S
N403  C1208 1.447 .      S
N403  H1344 1.041 .      S
C1208 C1209 1.497 .      S
C1208 H1345 1.090 .      S
C1208 H1346 1.109 .      S
C1211 H1347 1.079 .      S
C1212 H1348 1.077 .      S
C1213 H1349 1.061 .      S
C1214 H1350 1.064 .      S
C1216 N406  1.452 .      S
C1216 H1351 1.104 .      S
C1216 H1352 1.109 .      S
C1216 H1353 1.109 .      S
N406  C1217 1.456 .      S
N406  H1354 1.041 .      S
C1217 C1218 1.488 .      S
C1217 H1355 1.104 .      S
C1217 H1356 1.096 .      S
C1220 H1357 1.066 .      S
C1221 H1358 1.081 .      S
C1222 H1359 1.078 .      S
C1223 H1360 1.078 .      S
C1225 N409  1.461 .      S
C1225 H1361 1.097 .      S
C1225 H1362 1.096 .      S
C1225 H1363 1.104 .      S
N409  C1226 1.447 .      S
N409  H1364 1.033 .      S
C1226 C1227 1.417 .      S
C1226 H1365 1.096 .      S
C1226 H1366 1.075 .      S
C1229 H1367 1.068 .      S
C1230 H1368 1.080 .      S
C1231 H1369 1.081 .      S
C1232 H1370 1.069 .      S
C1234 N412  1.454 .      S
C1234 H1371 1.108 .      S
C1234 H1372 1.109 .      S
C1234 H1373 1.108 .      S
N412  C1235 1.449 .      S
N412  H1374 1.042 .      S
C1235 C1236 1.492 .      S
C1235 H1375 1.098 .      S
C1235 H1376 1.097 .      S
C1238 H1377 1.075 .      S
C1239 H1378 1.080 .      S
C1240 H1379 1.081 .      S
C1241 H1380 1.077 .      S
C1243 N415  1.454 .      S
C1243 H1381 1.108 .      S
C1243 H1382 1.103 .      S
C1243 H1383 1.107 .      S
N415  C1244 1.448 .      S
N415  H1384 1.042 .      S
C1244 C1245 1.483 .      S
C1244 H1385 1.103 .      S
C1244 H1386 1.103 .      S
C1247 H1387 1.038 .      S
C1248 H1388 1.071 .      S
C1249 H1389 1.080 .      S
C1250 H1390 1.032 .      S
C1252 N418  1.454 .      S
C1252 H1391 1.108 .      S
C1252 H1392 1.091 .      S
C1252 H1393 1.098 .      S
N418  C1253 1.453 1_455  S
N418  H1394 1.040 .      S
C1253 N418  1.453 1_655  S
C1253 C1254 1.468 .      S
C1253 H1395 1.107 .      S
C1253 H1396 1.091 .      S
N419  Zn36  2.067 1_556  S
C1256 H1397 1.063 1_556  S
C1257 H1398 1.080 .      S
C1258 H1399 1.081 .      S
C1259 H1400 1.060 .      S
H1397 C1256 1.063 1_554  S
C1261 N421  1.449 .      S
C1261 H1401 1.105 .      S
C1261 H1402 1.098 .      S
C1261 H1403 1.109 .      S
N421  C1262 1.455 .      S
N421  H1404 1.043 .      S
C1262 C1263 1.491 .      S
C1262 H1405 1.095 .      S
C1262 H1406 1.098 .      S
C1265 H1407 1.069 .      S
C1266 H1408 1.081 .      S
C1267 H1409 1.080 .      S
C1268 H1410 1.068 .      S
C1270 N424  1.458 .      S
C1270 H1411 1.103 .      S
C1270 H1412 1.105 .      S
C1270 H1413 1.090 .      S
N424  C1271 1.428 .      S
N424  H1414 1.018 1_556  S
C1271 C1272 1.490 1_556  S
C1271 H1415 1.087 .      S
C1271 H1416 1.093 .      S
C1272 C1271 1.490 1_554  S
C1274 H1417 1.060 .      S
C1275 H1418 1.081 .      S
C1276 H1419 1.070 .      S
C1277 H1420 1.076 .      S
H1414 N424  1.018 1_554  S
C1279 N427  1.457 1_556  S
C1279 H1421 1.104 1_556  S
C1279 H1422 1.102 .      S
C1279 H1423 1.098 .      S
N427  C1279 1.457 1_554  S
N427  C1280 1.447 .      S
N427  H1424 1.040 .      S
C1280 C1281 1.483 .      S
C1280 H1425 1.102 1_554  S
C1280 H1426 1.098 .      S
C1283 H1427 1.071 .      S
C1284 H1428 1.079 .      S
C1285 H1429 1.081 .      S
C1286 H1430 1.063 .      S
N429  Zn36  2.123 1_455  S
H1421 C1279 1.104 1_554  S
H1425 C1280 1.102 1_556  S
C1288 N430  1.455 .      S
C1288 H1431 1.105 .      S
C1288 H1432 1.109 .      S
C1288 H1433 1.109 .      S
N430  C1289 1.445 .      S
N430  H1434 1.035 .      S
C1289 C1290 1.505 .      S
C1289 H1435 1.105 .      S
C1289 H1436 1.097 .      S
C1292 H1437 1.072 .      S
C1293 H1438 1.080 .      S
C1294 H1439 1.081 .      S
C1295 H1440 1.075 .      S
C1297 N433  1.455 .      S
C1297 H1441 1.109 .      S
C1297 H1442 1.109 .      S
C1297 H1443 1.107 .      S
N433  C1298 1.450 .      S
N433  H1444 1.036 .      S
C1298 C1299 1.472 .      S
C1298 H1445 1.074 .      S
C1298 H1446 1.104 .      S
C1301 H1447 1.064 .      S
C1302 H1448 1.077 .      S
C1303 H1449 1.076 .      S
C1304 H1450 1.076 .      S
C1306 N436  1.454 .      S
C1306 H1451 1.109 .      S
C1306 H1452 1.108 .      S
C1306 H1453 1.107 .      S
N436  C1307 1.445 .      S
N436  H1454 1.041 .      S
C1307 C1308 1.495 .      S
C1307 H1455 1.099 .      S
C1307 H1456 1.107 .      S
C1310 H1457 1.057 .      S
C1311 H1458 1.081 .      S
C1312 H1459 1.081 .      S
C1313 H1460 1.066 .      S
C1315 N439  1.450 .      S
C1315 H1461 1.109 .      S
C1315 H1462 1.108 .      S
C1315 H1463 1.107 .      S
N439  C1316 1.458 .      S
N439  H1464 1.042 .      S
C1316 C1317 1.473 .      S
C1316 H1465 1.097 .      S
C1316 H1466 1.101 .      S
C1319 H1467 1.074 .      S
C1320 H1468 1.081 .      S
C1321 H1469 1.078 .      S
C1322 H1470 1.078 .      S
C1324 N442  1.455 .      S
C1324 H1471 1.108 .      S
C1324 H1472 1.102 .      S
C1324 H1473 1.108 .      S
N442  C1325 1.447 .      S
N442  H1474 1.041 .      S
C1325 C1326 1.471 .      S
C1325 H1475 1.085 .      S
C1325 H1476 1.079 .      S
C1328 H1477 1.071 .      S
C1329 H1478 1.081 .      S
C1330 H1479 1.080 1_455  S
C1331 H1480 1.056 1_455  S
N444  Zn75  2.150 1_455  S
H1479 C1330 1.080 1_655  S
H1480 C1331 1.056 1_655  S
C1333 N445  1.449 .      S
C1333 H1481 1.105 1_655  S
C1333 H1482 1.104 .      S
C1333 H1483 1.102 .      S
N445  C1334 1.430 .      S
N445  H1484 1.039 .      S
C1334 C1335 1.474 .      S
C1334 H1485 1.084 .      S
C1334 H1486 1.096 .      S
C1337 H1487 1.067 .      S
C1338 H1488 1.081 .      S
C1339 H1489 1.080 1_554  S
C1340 H1490 1.060 1_554  S
H1481 C1333 1.105 1_455  S
H1489 C1339 1.080 1_556  S
H1490 C1340 1.060 1_556  S
C1342 N448  1.457 .      S
C1342 H1491 1.103 .      S
C1342 H1492 1.106 .      S
C1342 H1493 1.109 .      S
N448  C1343 1.455 .      S
N448  H1494 1.042 .      S
C1343 C1344 1.472 .      S
C1343 H1495 1.091 .      S
C1343 H1496 1.083 .      S
C1346 H1497 1.063 .      S
C1347 H1498 1.075 .      S
C1348 H1499 1.080 .      S
C1349 H1500 1.075 1_455  S
H1500 C1349 1.075 1_655  S
C1351 N451  1.454 .      S
C1351 H1501 1.108 .      S
C1351 H1502 1.108 .      S
C1351 H1503 1.105 .      S
N451  C1352 1.444 .      S
N451  H1504 1.044 .      S
C1352 C1353 1.494 .      S
C1352 H1505 1.092 .      S
C1352 H1506 1.107 .      S
C1355 H1507 1.066 .      S
C1356 H1508 1.081 .      S
C1357 H1509 1.081 .      S
C1358 H1510 1.065 .      S
C1360 N454  1.453 .      S
C1360 H1511 1.109 .      S
C1360 H1512 1.109 .      S
C1360 H1513 1.109 .      S
N454  C1361 1.452 .      S
N454  H1514 1.043 .      S
C1361 C1362 1.491 .      S
C1361 H1515 1.107 .      S
C1361 H1516 1.109 .      S
C1364 H1517 1.079 .      S
C1365 H1518 1.060 .      S
C1366 H1519 1.078 .      S
C1367 H1520 1.072 .      S
C1369 N457  1.454 .      S
C1369 H1521 1.109 .      S
C1369 H1522 1.109 .      S
C1369 H1523 1.106 .      S
N457  C1370 1.456 .      S
N457  H1524 1.040 .      S
C1370 C1371 1.490 .      S
C1370 H1525 1.108 .      S
C1370 H1526 1.105 .      S
C1373 H1527 1.063 .      S
C1374 H1528 1.081 .      S
C1375 H1529 1.075 .      S
C1376 H1530 1.045 .      S
C1378 N460  1.437 .      S
C1378 H1531 1.089 1_556  S
C1378 H1532 1.087 1_556  S
C1378 H1533 1.089 .      S
N460  C1379 1.428 .      S
N460  H1534 1.013 1_556  S
C1379 C1380 1.490 1_556  S
C1379 H1535 1.093 .      S
C1379 H1536 1.100 .      S
C1380 C1379 1.490 1_554  S
C1382 H1537 1.060 .      S
C1383 H1538 1.081 .      S
C1384 H1539 1.076 .      S
C1385 H1540 1.068 .      S
H1531 C1378 1.089 1_554  S
H1532 C1378 1.087 1_554  S
H1534 N460  1.013 1_554  S
C1387 N463  1.444 .      S
C1387 H1541 1.084 .      S
C1387 H1542 1.105 .      S
C1387 H1543 1.088 .      S
N463  C1388 1.441 .      S
N463  H1544 1.044 .      S
C1388 C1389 1.492 .      S
C1388 H1545 1.100 .      S
C1388 H1546 1.091 .      S
C1391 H1547 1.057 .      S
C1392 H1548 1.080 .      S
C1393 H1549 1.079 1_556  S
C1394 H1550 1.049 .      S
H1549 C1393 1.079 1_554  S
C1396 N466  1.450 .      S
C1396 H1551 1.105 .      S
C1396 H1552 1.090 .      S
C1396 H1553 1.101 .      S
N466  C1397 1.452 .      S
N466  H1554 1.039 .      S
C1397 C1398 1.448 1_556  S
C1397 H1555 1.092 1_556  S
C1397 H1556 1.091 .      S
C1398 C1397 1.448 1_554  S
C1400 H1557 1.060 1_554  S
C1401 H1558 1.081 .      S
C1402 H1559 1.078 .      S
C1403 H1560 1.080 .      S
H1555 C1397 1.092 1_554  S
H1557 C1400 1.060 1_556  S
C1405 N469  1.446 .      S
C1405 H1561 1.107 .      S
C1405 H1562 1.102 .      S
C1405 H1563 1.101 .      S
N469  C1406 1.445 .      S
N469  H1564 1.036 .      S
C1406 C1407 1.474 .      S
C1406 H1565 1.097 .      S
C1406 H1566 1.095 .      S
C1409 H1567 1.064 .      S
C1410 H1568 1.081 .      S
C1411 H1569 1.081 .      S
C1412 H1570 1.079 .      S
C1414 N472  1.456 .      S
C1414 H1571 1.106 .      S
C1414 H1572 1.101 .      S
C1414 H1573 1.099 .      S
N472  C1415 1.457 .      S
N472  H1574 1.040 .      S
C1415 C1416 1.476 1_554  S
C1415 H1575 1.105 .      S
C1415 H1576 1.083 .      S
C1416 C1415 1.476 1_556  S
C1418 H1577 1.056 .      S
C1419 H1578 1.068 .      S
C1420 H1579 1.079 .      S
C1421 H1580 1.077 .      S
C1423 N475  1.442 .      S
C1423 H1581 1.109 .      S
C1423 H1582 1.105 .      S
C1423 H1583 1.102 .      S
N475  C1424 1.442 .      S
N475  H1584 1.041 .      S
C1424 C1425 1.479 .      S
C1424 H1585 1.091 .      S
C1424 H1586 1.091 .      S
C1427 H1587 1.056 .      S
C1428 H1588 1.080 .      S
C1429 H1589 1.081 .      S
C1430 H1590 1.068 .      S
C1432 N478  1.453 .      S
C1432 H1591 1.108 .      S
C1432 H1592 1.105 .      S
C1432 H1593 1.109 .      S
N478  C1433 1.447 .      S
N478  H1594 1.031 .      S
C1433 C1434 1.461 .      S
C1433 H1595 1.091 .      S
C1433 H1596 1.099 .      S
C1436 H1597 1.072 .      S
C1437 H1598 1.081 .      S
C1438 H1599 1.073 .      S
C1439 H1600 1.063 .      S
C1441 N481  1.455 .      S
C1441 H1601 1.105 .      S
C1441 H1602 1.108 .      S
C1441 H1603 1.109 .      S
N481  C1442 1.443 .      S
N481  H1604 1.039 .      S
C1442 C1443 1.498 .      S
C1442 H1605 1.101 .      S
C1442 H1606 1.109 .      S
C1445 H1607 1.075 .      S
C1446 H1608 1.070 .      S
C1447 H1609 1.079 .      S
C1448 H1610 1.065 .      S
C1450 N484  1.452 .      S
C1450 H1611 1.107 .      S
C1450 H1612 1.104 .      S
C1450 H1613 1.108 .      S
N484  C1451 1.452 .      S
N484  H1614 1.039 .      S
C1451 C1452 1.487 .      S
C1451 H1615 1.097 .      S
C1451 H1616 1.081 .      S
C1454 H1617 1.062 .      S
C1455 H1618 1.078 .      S
C1456 H1619 1.081 .      S
C1457 H1620 1.057 .      S
C1459 N487  1.451 .      S
C1459 H1621 1.109 .      S
C1459 H1622 1.094 .      S
C1459 H1623 1.102 .      S
N487  C1460 1.451 .      S
N487  H1624 1.038 .      S
C1460 C1461 1.483 .      S
C1460 H1625 1.089 .      S
C1460 H1626 1.108 .      S
C1463 H1627 1.066 .      S
C1464 H1628 1.080 .      S
C1465 H1629 1.064 .      S
C1466 H1630 1.067 .      S
C1468 N490  1.446 .      S
C1468 H1631 1.106 .      S
C1468 H1632 1.100 .      S
C1468 H1633 1.098 .      S
N490  C1469 1.440 1_554  S
N490  H1634 1.034 .      S
C1469 N490  1.440 1_556  S
C1469 C1470 1.461 .      S
C1469 H1635 1.105 .      S
C1469 H1636 1.100 .      S
N491  Zn81  2.106 1_565  S
C1472 H1637 1.080 .      S
C1473 H1638 1.080 .      S
C1474 H1639 1.079 .      S
C1475 H1640 1.071 .      S
C1477 N493  1.457 .      S
C1477 H1641 1.106 .      S
C1477 H1642 1.109 .      S
C1477 H1643 1.103 1_545  S
N493  C1478 1.449 .      S
N493  H1644 1.043 .      S
C1478 C1479 1.493 .      S
C1478 H1645 1.107 .      S
C1478 H1646 1.089 1_545  S
C1481 H1647 1.049 1_556  S
C1482 H1648 1.078 .      S
C1483 H1649 1.074 .      S
C1484 H1650 1.074 .      S
H1643 C1477 1.103 1_565  S
H1646 C1478 1.089 1_565  S
H1647 C1481 1.049 1_554  S
C1486 N496  1.458 .      S
C1486 H1651 1.105 .      S
C1486 H1652 1.091 .      S
C1486 H1653 1.090 1_565  S
N496  C1487 1.435 1_565  S
N496  H1654 1.031 .      S
C1487 N496  1.435 1_545  S
C1487 C1488 1.486 .      S
C1487 H1655 1.094 .      S
C1487 H1656 1.077 .      S
C1490 H1657 1.063 .      S
C1491 H1658 1.077 .      S
C1492 H1659 1.081 .      S
C1493 H1660 1.075 .      S
H1653 C1486 1.090 1_545  S
C1495 N499  1.454 .      S
C1495 H1661 1.105 .      S
C1495 H1662 1.088 .      S
C1495 H1663 1.103 .      S
N499  C1496 1.450 .      S
N499  H1664 1.035 .      S
C1496 C1497 1.483 .      S
C1496 H1665 1.103 .      S
C1496 H1666 1.101 .      S
C1499 H1667 1.060 .      S
C1500 H1668 1.081 .      S
C1501 H1669 1.081 1_554  S
C1502 H1670 1.068 1_554  S
H1669 C1501 1.081 1_556  S
H1670 C1502 1.068 1_556  S
C1504 N502  1.446 .      S
C1504 H1671 1.101 .      S
C1504 H1672 1.098 .      S
C1504 H1673 1.104 .      S
N502  C1505 1.437 .      S
N502  H1674 1.040 .      S
C1505 C1506 1.465 .      S
C1505 H1675 1.100 .      S
C1505 H1676 1.101 .      S
C1508 H1677 1.063 .      S
C1509 H1678 1.080 .      S
C1510 H1679 1.081 .      S
C1511 H1680 1.065 .      S
C1513 N505  1.456 .      S
C1513 H1681 1.108 .      S
C1513 H1682 1.107 .      S
C1513 H1683 1.109 .      S
N505  C1514 1.454 .      S
N505  H1684 1.042 .      S
C1514 C1515 1.501 .      S
C1514 H1685 1.107 .      S
C1514 H1686 1.092 .      S
C1517 H1687 1.072 .      S
C1518 H1688 1.080 .      S
C1519 H1689 1.081 .      S
C1520 H1690 1.079 .      S
C1522 N508  1.455 .      S
C1522 H1691 1.109 .      S
C1522 H1692 1.110 .      S
C1522 H1693 1.110 .      S
N508  C1523 1.449 .      S
N508  H1694 1.043 .      S
C1523 C1524 1.485 .      S
C1523 H1695 1.093 .      S
C1523 H1696 1.106 .      S
C1526 H1697 1.069 .      S
C1527 H1698 1.081 .      S
C1528 H1699 1.081 .      S
C1529 H1700 1.077 .      S
C1531 N511  1.448 .      S
C1531 H1701 1.103 .      S
C1531 H1702 1.103 .      S
C1531 H1703 1.106 .      S
N511  C1532 1.451 .      S
N511  H1704 1.038 .      S
C1532 C1533 1.487 .      S
C1532 H1705 1.098 .      S
C1532 H1706 1.089 .      S
C1535 H1707 1.059 .      S
C1536 H1708 1.079 .      S
C1537 H1709 1.073 .      S
C1538 H1710 1.053 .      S
C1540 N514  1.437 .      S
C1540 H1711 1.081 .      S
C1540 H1712 1.109 .      S
C1540 H1713 1.091 .      S
N514  C1541 1.445 .      S
N514  H1714 1.042 .      S
C1541 C1542 1.464 .      S
C1541 H1715 1.099 .      S
C1541 H1716 1.092 .      S
C1544 H1717 1.053 .      S
C1545 H1718 1.079 .      S
C1546 H1719 1.080 .      S
C1547 H1720 1.056 .      S
C1549 N517  1.449 .      S
C1549 H1721 1.109 .      S
C1549 H1722 1.105 .      S
C1549 H1723 1.106 .      S
N517  C1550 1.446 .      S
N517  H1724 1.040 .      S
C1550 C1551 1.456 .      S
C1550 H1725 1.096 .      S
C1550 H1726 1.087 .      S
C1553 H1727 1.051 .      S
C1554 H1728 1.081 .      S
C1555 H1729 1.081 1_554  S
C1556 H1730 1.052 1_554  S
H1729 C1555 1.081 1_556  S
H1730 C1556 1.052 1_556  S
C1558 N520  1.446 .      S
C1558 H1731 1.097 .      S
C1558 H1732 1.094 .      S
C1558 H1733 1.101 .      S
N520  C1559 1.453 .      S
N520  H1734 1.044 .      S
C1559 C1560 1.457 .      S
C1559 H1735 1.106 .      S
C1559 H1736 1.097 .      S
C1562 H1737 1.056 .      S
C1563 H1738 1.075 .      S
C1564 H1739 1.080 .      S
C1565 H1740 1.062 .      S
C1567 N523  1.443 .      S
C1567 H1741 1.101 .      S
C1567 H1742 1.098 .      S
C1567 H1743 1.108 .      S
N523  C1568 1.441 .      S
N523  H1744 1.044 .      S
C1568 C1569 1.464 .      S
C1568 H1745 1.099 .      S
C1568 H1746 1.108 .      S
C1571 H1747 1.079 .      S
C1572 H1748 1.079 .      S
C1573 H1749 1.081 .      S
C1574 H1750 1.072 .      S
C1576 N526  1.445 .      S
C1576 H1751 1.101 .      S
C1576 H1752 1.104 .      S
C1576 H1753 1.105 .      S
N526  C1577 1.444 .      S
N526  H1754 1.037 .      S
C1577 C1578 1.465 .      S
C1577 H1755 1.093 .      S
C1577 H1756 1.100 .      S
C1580 H1757 1.078 1_554  S
C1581 H1758 1.081 1_554  S
C1582 H1759 1.074 .      S
C1583 H1760 1.066 .      S
H1757 C1580 1.078 1_556  S
H1758 C1581 1.081 1_556  S
C1585 N529  1.449 .      S
C1585 H1761 1.107 .      S
C1585 H1762 1.082 .      S
C1585 H1763 1.104 .      S
N529  C1586 1.449 .      S
N529  H1764 1.038 .      S
C1586 C1587 1.462 .      S
C1586 H1765 1.090 .      S
C1586 H1766 1.084 .      S
C1589 H1767 1.063 .      S
C1590 H1768 1.080 .      S
C1591 H1769 1.081 .      S
C1592 H1770 1.078 .      S
C1594 N532  1.450 .      S
C1594 H1771 1.101 .      S
C1594 H1772 1.099 .      S
C1594 H1773 1.091 .      S
N532  C1595 1.455 .      S
N532  H1774 1.032 .      S
C1595 C1596 1.467 .      S
C1595 H1775 1.083 .      S
C1595 H1776 1.096 .      S
C1598 H1777 1.075 .      S
C1599 H1778 1.079 .      S
C1600 H1779 1.081 .      S
C1601 H1780 1.080 .      S
C1603 N535  1.452 .      S
C1603 H1781 1.099 .      S
C1603 H1782 1.108 .      S
C1603 H1783 1.103 1_554  S
N535  C1604 1.444 .      S
N535  H1784 1.043 1_554  S
C1604 C1605 1.473 .      S
C1604 H1785 1.097 .      S
C1604 H1786 1.103 .      S
C1607 H1787 1.059 .      S
C1608 H1788 1.081 .      S
C1609 H1789 1.081 .      S
C1610 H1790 1.068 .      S
H1783 C1603 1.103 1_556  S
H1784 N535  1.043 1_556  S
C1612 N538  1.447 .      S
C1612 H1791 1.081 .      S
C1612 H1792 1.108 .      S
C1612 H1793 1.107 .      S
N538  C1613 1.435 .      S
N538  H1794 1.044 .      S
C1613 C1614 1.447 .      S
C1613 H1795 1.093 .      S
C1613 H1796 1.106 .      S
C1616 H1797 1.070 .      S
C1617 H1798 1.074 .      S
C1618 H1799 1.080 .      S
C1619 H1800 1.064 .      S
C1621 N541  1.452 .      S
C1621 H1801 1.107 .      S
C1621 H1802 1.108 .      S
C1621 H1803 1.106 .      S
N541  C1622 1.449 .      S
N541  H1804 1.038 .      S
C1622 C1623 1.491 .      S
C1622 H1805 1.101 .      S
C1622 H1806 1.096 .      S
C1625 H1807 1.065 .      S
C1626 H1808 1.081 .      S
C1627 H1809 1.081 .      S
C1628 H1810 1.067 .      S
C1630 N544  1.454 .      S
C1630 H1811 1.106 .      S
C1630 H1812 1.105 1_554  S
C1630 H1813 1.104 .      S
N544  C1631 1.445 .      S
N544  H1814 1.041 .      S
C1631 C1632 1.479 .      S
C1631 H1815 1.090 .      S
C1631 H1816 1.101 .      S
C1634 H1817 1.065 .      S
C1635 H1818 1.081 1_565  S
C1636 H1819 1.081 1_455  S
C1637 H1820 1.074 1_455  S
N546  Zn18  2.148 1_455  S
H1812 C1630 1.105 1_556  S
H1818 C1635 1.081 1_545  S
H1819 C1636 1.081 1_655  S
H1820 C1637 1.074 1_655  S
C1639 N547  1.451 .      S
C1639 H1821 1.109 .      S
C1639 H1822 1.095 .      S
C1639 H1823 1.096 .      S
N547  C1640 1.445 .      S
N547  H1824 1.038 .      S
C1640 C1641 1.480 .      S
C1640 H1825 1.102 .      S
C1640 H1826 1.100 .      S
C1643 H1827 1.073 .      S
C1644 H1828 1.081 .      S
C1645 H1829 1.076 .      S
C1646 H1830 1.066 .      S
C1648 N550  1.455 .      S
C1648 H1831 1.108 .      S
C1648 H1832 1.106 .      S
C1648 H1833 1.109 .      S
N550  C1649 1.450 .      S
N550  H1834 1.043 .      S
C1649 C1650 1.478 .      S
C1649 H1835 1.101 .      S
C1649 H1836 1.093 .      S
C1652 H1837 1.073 .      S
C1653 H1838 1.081 .      S
C1654 H1839 1.079 .      S
C1655 H1840 1.069 1_554  S
H1840 C1655 1.069 1_556  S
C1657 N553  1.450 .      S
C1657 H1841 1.108 .      S
C1657 H1842 1.104 .      S
C1657 H1843 1.107 .      S
N553  C1658 1.450 .      S
N553  H1844 1.038 .      S
C1658 C1659 1.486 .      S
C1658 H1845 1.105 .      S
C1658 H1846 1.097 .      S
C1661 H1847 1.080 .      S
C1662 H1848 1.081 .      S
C1663 H1849 1.080 .      S
C1664 H1850 1.065 .      S
C1666 N556  1.453 1_655  S
C1666 H1851 1.109 1_655  S
C1666 H1852 1.109 .      S
C1666 H1853 1.109 1_655  S
N556  C1666 1.453 1_455  S
N556  C1667 1.454 1_455  S
N556  H1854 1.044 .      S
C1667 N556  1.454 1_655  S
C1667 C1668 1.479 .      S
C1667 H1855 1.103 .      S
C1667 H1856 1.105 .      S
N557  Zn18  2.175 1_556  S
C1670 H1857 1.058 .      S
C1671 H1858 1.081 .      S
C1672 H1859 1.080 .      S
C1673 H1860 1.059 .      S
H1851 C1666 1.109 1_455  S
H1853 C1666 1.109 1_455  S
C1675 N559  1.434 .      S
C1675 H1861 1.090 .      S
C1675 H1862 1.106 .      S
C1675 H1863 1.104 .      S
N559  C1676 1.435 .      S
N559  H1864 1.044 .      S
C1676 C1677 1.461 .      S
C1676 H1865 1.098 .      S
C1676 H1866 1.099 .      S
C1679 H1867 1.073 .      S
C1680 H1868 1.081 .      S
C1681 H1869 1.081 .      S
C1682 H1870 1.076 .      S
C1684 N562  1.457 .      S
C1684 H1871 1.093 .      S
C1684 H1872 1.092 .      S
C1684 H1873 1.086 .      S
N562  C1685 1.446 .      S
N562  H1874 1.040 .      S
C1685 C1686 1.434 .      S
C1685 H1875 1.096 .      S
C1685 H1876 1.091 .      S
C1688 H1877 1.079 1_655  S
C1689 H1878 1.081 .      S
C1690 H1879 1.081 .      S
C1691 H1880 1.075 .      S
H1877 C1688 1.079 1_455  S
C1693 N565  1.453 .      S
C1693 H1881 1.108 .      S
C1693 H1882 1.101 .      S
C1693 H1883 1.108 .      S
N565  C1694 1.454 .      S
N565  H1884 1.043 .      S
C1694 C1695 1.483 .      S
C1694 H1885 1.095 .      S
C1694 H1886 1.105 .      S
C1697 H1887 1.069 .      S
C1698 H1888 1.081 .      S
C1699 H1889 1.081 .      S
C1700 H1890 1.074 .      S
N567  Zn21  2.077 1_556  S
C1702 N568  1.455 .      S
C1702 H1891 1.109 .      S
C1702 H1892 1.108 .      S
C1702 H1893 1.109 .      S
N568  C1703 1.454 .      S
N568  H1894 1.037 .      S
C1703 C1704 1.461 .      S
C1703 H1895 1.090 .      S
C1703 H1896 1.108 .      S
C1706 H1897 1.064 .      S
C1707 H1898 1.081 .      S
C1708 H1899 1.079 .      S
C1709 H1900 1.069 .      S
N570  Zn22  2.094 1_556  S
C1711 N571  1.452 .      S
C1711 H1901 1.100 .      S
C1711 H1902 1.106 .      S
C1711 H1903 1.101 .      S
N571  C1712 1.444 .      S
N571  H1904 1.041 .      S
C1712 C1713 1.475 .      S
C1712 H1905 1.093 .      S
C1712 H1906 1.106 .      S
C1715 H1907 1.063 .      S
C1716 H1908 1.081 .      S
C1717 H1909 1.081 .      S
C1718 H1910 1.070 .      S
C1720 N574  1.449 .      S
C1720 H1911 1.106 .      S
C1720 H1912 1.092 1_565  S
C1720 H1913 1.089 1_565  S
N574  C1721 1.459 .      S
N574  H1914 1.044 .      S
C1721 C1722 1.469 .      S
C1721 H1915 1.081 .      S
C1721 H1916 1.094 .      S
C1724 H1917 1.070 .      S
C1725 H1918 1.081 .      S
C1726 H1919 1.077 .      S
C1727 H1920 1.053 .      S
H1912 C1720 1.092 1_545  S
H1913 C1720 1.089 1_545  S
C1729 N577  1.453 .      S
C1729 H1921 1.099 .      S
C1729 H1922 1.105 .      S
C1729 H1923 1.107 .      S
N577  C1730 1.439 .      S
N577  H1924 1.037 1_565  S
C1730 C1731 1.506 .      S
C1730 H1925 1.090 .      S
C1730 H1926 1.093 .      S
C1733 H1927 1.077 1_545  S
C1734 H1928 1.081 .      S
C1735 H1929 1.081 .      S
C1736 H1930 1.080 .      S
H1924 N577  1.037 1_545  S
H1927 C1733 1.077 1_565  S
C1738 N580  1.454 .      S
C1738 H1931 1.105 .      S
C1738 H1932 1.109 .      S
C1738 H1933 1.107 1_565  S
N580  C1739 1.449 .      S
N580  H1934 1.042 1_565  S
C1739 C1740 1.480 1_565  S
C1739 H1935 1.095 1_565  S
C1739 H1936 1.108 .      S
C1740 C1739 1.480 1_545  S
C1742 H1937 1.070 .      S
C1743 H1938 1.081 .      S
C1744 H1939 1.081 .      S
C1745 H1940 1.069 .      S
H1933 C1738 1.107 1_545  S
H1934 N580  1.042 1_545  S
H1935 C1739 1.095 1_545  S
C1747 N583  1.459 .      S
C1747 H1941 1.109 .      S
C1747 H1942 1.107 .      S
C1747 H1943 1.106 .      S
N583  C1748 1.451 .      S
N583  H1944 1.039 .      S
C1748 C1749 1.489 .      S
C1748 H1945 1.099 .      S
C1748 H1946 1.096 .      S
C1751 H1947 1.077 .      S
C1752 H1948 1.081 .      S
C1753 H1949 1.081 .      S
C1754 H1950 1.067 .      S
C1756 N586  1.442 .      S
C1756 H1951 1.097 .      S
C1756 H1952 1.104 .      S
C1756 H1953 1.104 .      S
N586  C1757 1.446 .      S
N586  H1954 1.044 .      S
C1757 C1758 1.457 .      S
C1757 H1955 1.093 .      S
C1757 H1956 1.098 .      S
C1760 H1957 1.069 .      S
C1761 H1958 1.081 .      S
C1762 H1959 1.076 .      S
C1763 H1960 1.074 1_554  S
H1960 C1763 1.074 1_556  S
C1765 N589  1.447 .      S
C1765 H1961 1.106 .      S
C1765 H1962 1.079 .      S
C1765 H1963 1.097 .      S
N589  C1766 1.463 .      S
N589  H1964 1.035 .      S
C1766 C1767 1.482 .      S
C1766 H1965 1.095 .      S
C1766 H1966 1.097 .      S
C1769 H1967 1.072 .      S
C1770 H1968 1.080 .      S
C1771 H1969 1.079 .      S
C1772 H1970 1.057 .      S
C1774 N592  1.453 .      S
C1774 H1971 1.107 .      S
C1774 H1972 1.109 .      S
C1774 H1973 1.106 .      S
N592  C1775 1.450 .      S
N592  H1974 1.041 .      S
C1775 C1776 1.493 .      S
C1775 H1975 1.104 .      S
C1775 H1976 1.109 .      S
C1778 H1977 1.078 .      S
C1779 H1978 1.076 .      S
C1780 H1979 1.076 .      S
C1781 H1980 1.058 .      S
C1783 N595  1.426 .      S
C1783 H1981 1.084 .      S
C1783 H1982 1.093 1_556  S
C1783 H1983 1.092 .      S
N595  C1784 1.439 .      S
N595  H1984 1.038 .      S
C1784 C1785 1.475 .      S
C1784 H1985 1.091 .      S
C1784 H1986 1.105 .      S
C1787 H1987 1.077 .      S
C1788 H1988 1.078 .      S
C1789 H1989 1.081 .      S
C1790 H1990 1.069 .      S
H1982 C1783 1.093 1_554  S
C1792 N598  1.464 .      S
C1792 H1991 1.100 .      S
C1792 H1992 1.107 .      S
C1792 H1993 1.106 .      S
N598  C1793 1.464 .      S
N598  H1994 1.041 .      S
C1793 C1794 1.489 .      S
C1793 H1995 1.089 .      S
C1793 H1996 1.101 .      S
C1796 H1997 1.074 .      S
C1797 H1998 1.081 .      S
C1798 H1999 1.081 .      S
C1799 H2000 1.078 .      S
C1801 N601  1.435 .      S
C1801 H2001 1.100 .      S
C1801 H2002 1.108 .      S
C1801 H2003 1.109 .      S
N601  C1802 1.445 .      S
N601  H2004 1.037 .      S
C1802 C1803 1.469 .      S
C1802 H2005 1.107 .      S
C1802 H2006 1.109 .      S
C1805 H2007 1.071 .      S
C1806 H2008 1.080 .      S
C1807 H2009 1.071 .      S
C1808 H2010 1.070 .      S
C1810 N604  1.445 .      S
C1810 H2011 1.097 .      S
C1810 H2012 1.109 1_655  S
C1810 H2013 1.082 1_655  S
N604  C1811 1.437 .      S
N604  H2014 1.044 .      S
C1811 C1812 1.462 .      S
C1811 H2015 1.094 .      S
C1811 H2016 1.096 .      S
C1814 H2017 1.065 .      S
C1815 H2018 1.081 .      S
C1816 H2019 1.081 1_554  S
C1817 H2020 1.070 1_554  S
H2012 C1810 1.109 1_455  S
H2013 C1810 1.082 1_455  S
H2019 C1816 1.081 1_556  S
H2020 C1817 1.070 1_556  S
C1819 N607  1.455 .      S
C1819 H2021 1.103 .      S
C1819 H2022 1.104 .      S
C1819 H2023 1.106 .      S
N607  C1820 1.449 .      S
N607  H2024 1.040 .      S
C1820 C1821 1.493 .      S
C1820 H2025 1.097 .      S
C1820 H2026 1.103 .      S
C1823 H2027 1.066 .      S
C1824 H2028 1.081 .      S
C1825 H2029 1.079 .      S
C1826 H2030 1.075 .      S
C1828 N610  1.473 .      S
C1828 H2031 1.091 .      S
C1828 H2032 1.103 .      S
C1828 H2033 1.105 .      S
N610  C1829 1.461 .      S
N610  H2034 1.016 .      S
C1829 C1830 1.373 .      S
C1829 H2035 1.094 .      S
C1829 H2036 1.086 .      S
C1832 H2037 1.066 .      S
C1833 H2038 1.081 .      S
C1834 H2039 1.079 .      S
C1835 H2040 1.048 .      S
C1837 N613  1.453 .      S
C1837 H2041 1.109 .      S
C1837 H2042 1.108 .      S
C1837 H2043 1.107 .      S
N613  C1838 1.451 .      S
N613  H2044 1.038 1_565  S
C1838 C1839 1.502 1_565  S
C1838 H2045 1.106 .      S
C1838 H2046 1.105 .      S
C1839 C1838 1.502 1_545  S
C1841 H2047 1.080 .      S
C1842 H2048 1.078 .      S
C1843 H2049 1.081 .      S
C1844 H2050 1.064 .      S
H2044 N613  1.038 1_545  S
C1846 N616  1.453 .      S
C1846 H2051 1.109 .      S
C1846 H2052 1.108 .      S
C1846 H2053 1.109 .      S
N616  C1847 1.453 1_565  S
N616  H2054 1.044 .      S
C1847 N616  1.453 1_545  S
C1847 C1848 1.497 .      S
C1847 H2055 1.101 .      S
C1847 H2056 1.103 .      S
C1850 H2057 0.998 .      S
C1851 H2058 1.080 .      S
C1852 H2059 1.080 .      S
C1853 H2060 1.047 .      S
C1855 N619  1.455 1_545  S
C1855 H2061 1.104 .      S
C1855 H2062 1.107 .      S
C1855 H2063 1.105 .      S
N619  C1855 1.455 1_565  S
N619  C1856 1.456 1_565  S
N619  H2064 1.031 .      S
C1856 N619  1.456 1_545  S
C1856 C1857 1.490 .      S
C1856 H2065 1.080 .      S
C1856 H2066 1.104 1_545  S
C1859 H2067 1.075 .      S
C1860 H2068 1.080 .      S
C1861 H2069 1.078 .      S
C1862 H2070 1.074 .      S
H2066 C1856 1.104 1_565  S
C1864 N622  1.457 .      S
C1864 H2071 1.102 .      S
C1864 H2072 1.100 .      S
C1864 H2073 1.104 .      S
N622  C1865 1.439 .      S
N622  H2074 1.037 .      S
C1865 C1866 1.483 1_556  S
C1865 H2075 1.100 .      S
C1865 H2076 1.087 .      S
C1866 C1865 1.483 1_554  S
C1868 H2077 1.063 .      S
C1869 H2078 1.077 .      S
C1870 H2079 1.081 .      S
C1871 H2080 1.073 .      S
C1873 N625  1.455 .      S
C1873 H2081 1.108 .      S
C1873 H2082 1.104 1_554  S
C1873 H2083 1.109 .      S
N625  C1874 1.452 .      S
N625  H2084 1.040 .      S
C1874 C1875 1.465 .      S
C1874 H2085 1.095 1_554  S
C1874 H2086 1.084 1_554  S
C1877 H2087 1.071 .      S
C1878 H2088 1.080 .      S
C1879 H2089 1.075 .      S
C1880 H2090 1.067 .      S
H2082 C1873 1.104 1_556  S
H2085 C1874 1.095 1_556  S
H2086 C1874 1.084 1_556  S
C1882 N628  1.447 .      S
C1882 H2091 1.106 .      S
C1882 H2092 1.095 .      S
C1882 H2093 1.100 .      S
N628  C1883 1.435 .      S
N628  H2094 1.036 .      S
C1883 C1884 1.460 .      S
C1883 H2095 1.098 .      S
C1883 H2096 1.106 .      S
C1886 H2097 1.078 .      S
C1887 H2098 1.081 .      S
C1888 H2099 1.080 .      S
C1889 H2100 1.075 .      S
C1891 N631  1.443 .      S
C1891 H2101 1.105 .      S
C1891 H2102 1.101 .      S
C1891 H2103 1.106 .      S
N631  C1892 1.466 .      S
N631  H2104 1.032 .      S
C1892 C1893 1.504 .      S
C1892 H2105 1.101 .      S
C1892 H2106 1.085 .      S
C1895 H2107 1.062 .      S
C1896 H2108 1.081 .      S
C1897 H2109 1.081 .      S
C1898 H2110 1.056 .      S
C1900 N634  1.452 .      S
C1900 H2111 1.107 .      S
C1900 H2112 1.109 .      S
C1900 H2113 1.108 .      S
N634  C1901 1.450 .      S
N634  H2114 1.039 .      S
C1901 C1902 1.493 .      S
C1901 H2115 1.102 .      S
C1901 H2116 1.107 .      S
C1904 H2117 1.027 .      S
C1905 H2118 1.080 .      S
C1906 H2119 1.081 .      S
C1907 H2120 1.037 .      S
C1909 N637  1.457 .      S
C1909 H2121 1.099 .      S
C1909 H2122 1.100 .      S
C1909 H2123 1.100 .      S
N637  C1910 1.464 .      S
N637  H2124 1.040 .      S
C1910 C1911 1.458 .      S
C1910 H2125 1.087 .      S
C1910 H2126 1.082 1_545  S
C1913 H2127 1.071 .      S
C1914 H2128 1.077 .      S
C1915 H2129 1.075 .      S
C1916 H2130 1.059 .      S
H2126 C1910 1.082 1_565  S
C1918 N640  1.455 .      S
C1918 H2131 1.109 .      S
C1918 H2132 1.106 .      S
C1918 H2133 1.106 .      S
N640  C1919 1.450 .      S
N640  H2134 1.041 .      S
C1919 C1920 1.485 .      S
C1919 H2135 1.103 .      S
C1919 H2136 1.104 .      S
C1922 H2137 1.075 .      S
C1923 H2138 1.081 1_554  S
C1924 H2139 1.080 1_554  S
C1925 H2140 1.079 .      S
H2138 C1923 1.081 1_556  S
H2139 C1924 1.080 1_556  S
C1927 N643  1.456 .      S
C1927 H2141 1.103 .      S
C1927 H2142 1.103 .      S
C1927 H2143 1.107 1_556  S
N643  C1928 1.452 1_556  S
N643  H2144 1.043 .      S
C1928 N643  1.452 1_554  S
C1928 C1929 1.480 .      S
C1928 H2145 1.102 .      S
C1928 H2146 1.107 .      S
C1931 H2147 1.066 .      S
C1932 H2148 1.079 .      S
C1933 H2149 1.081 1_655  S
C1934 H2150 1.072 1_655  S
H2143 C1927 1.107 1_554  S
H2149 C1933 1.081 1_455  S
H2150 C1934 1.072 1_455  S
C1936 N646  1.458 .      S
C1936 H2151 1.106 .      S
C1936 H2152 1.099 .      S
C1936 H2153 1.106 .      S
N646  C1937 1.451 .      S
N646  H2154 1.038 .      S
C1937 C1938 1.460 .      S
C1937 H2155 1.098 .      S
C1937 H2156 1.093 .      S
C1940 H2157 1.070 .      S
C1941 H2158 1.079 .      S
C1942 H2159 1.077 .      S
C1943 H2160 1.070 .      S
C3    N2    1.400 .      A
C3    N3    1.375 .      A
N2    C4    1.346 .      A
C4    C5    1.375 .      A
C4    C9    1.351 .      A
C5    C6    1.375 .      A
C6    C7    1.380 .      A
C7    C8    1.380 .      A
C8    C9    1.375 .      A
C9    N3    1.351 .      A
C12   N5    1.392 .      A
C12   N6    1.400 .      A
N5    C13   1.349 .      A
C13   C14   1.375 .      A
C13   C18   1.370 .      A
C14   C15   1.381 .      A
C15   C16   1.382 .      A
C16   C17   1.381 .      A
C17   C18   1.376 .      A
C18   N6    1.354 .      A
C21   N8    1.377 .      A
C21   N9    1.375 .      A
N8    C22   1.344 .      A
C22   C23   1.373 .      A
C22   C27   1.365 .      A
C23   C24   1.383 .      A
C24   C25   1.390 .      A
C25   C26   1.385 .      A
C26   C27   1.371 .      A
C27   N9    1.355 .      A
C30   N11   1.385 .      A
C30   N12   1.371 .      A
N11   C31   1.351 .      A
C31   C32   1.367 .      A
C31   C36   1.357 .      A
C32   C33   1.386 .      A
C33   C34   1.381 .      A
C34   C35   1.377 .      A
C35   C36   1.368 .      A
C36   N12   1.342 .      A
C39   N14   1.394 .      A
C39   N15   1.376 .      A
N14   C40   1.363 .      A
C40   C41   1.385 .      A
C40   C45   1.364 .      A
C41   C42   1.379 1_556  A
C42   C41   1.379 1_554  A
C42   C43   1.377 .      A
C43   C44   1.378 1_554  A
C44   C43   1.378 1_556  A
C44   C45   1.375 .      A
C45   N15   1.343 .      A
C48   N17   1.383 1_554  A
C48   N18   1.385 .      A
N17   C48   1.383 1_556  A
N17   C49   1.341 1_556  A
C49   N17   1.341 1_554  A
C49   C50   1.376 .      A
C49   C54   1.358 .      A
C50   C51   1.383 .      A
C51   C52   1.388 .      A
C52   C53   1.386 .      A
C53   C54   1.367 .      A
C54   N18   1.354 .      A
C57   N20   1.397 .      A
C57   N21   1.375 .      A
N20   C58   1.346 .      A
C58   C59   1.364 .      A
C58   C63   1.356 .      A
C59   C60   1.381 .      A
C60   C61   1.384 .      A
C61   C62   1.383 .      A
C62   C63   1.378 .      A
C63   N21   1.350 .      A
C66   N23   1.379 .      A
C66   N24   1.392 .      A
N23   C67   1.336 .      A
C67   C68   1.372 .      A
C67   C72   1.358 .      A
C68   C69   1.379 .      A
C69   C70   1.386 .      A
C70   C71   1.387 .      A
C71   C72   1.369 .      A
C72   N24   1.360 .      A
C75   N26   1.379 .      A
C75   N27   1.383 .      A
N26   C76   1.355 .      A
C76   C77   1.377 .      A
C76   C81   1.357 .      A
C77   C78   1.373 .      A
C78   C79   1.365 .      A
C79   C80   1.372 .      A
C80   C81   1.393 .      A
C81   N27   1.364 .      A
C84   N29   1.403 .      A
C84   N30   1.400 .      A
N29   C85   1.345 .      A
C85   C86   1.376 .      A
C85   C90   1.367 .      A
C86   C87   1.381 .      A
C87   C88   1.386 .      A
C88   C89   1.384 .      A
C89   C90   1.371 .      A
C90   N30   1.355 .      A
C93   N32   1.385 .      A
C93   N33   1.386 .      A
N32   C94   1.363 .      A
C94   C95   1.380 .      A
C94   C99   1.368 .      A
C95   C96   1.381 .      A
C96   C97   1.380 .      A
C97   C98   1.378 .      A
C98   C99   1.373 .      A
C99   N33   1.348 .      A
C102  N35   1.383 .      A
C102  N36   1.366 .      A
N35   C103  1.351 .      A
C103  C104  1.374 .      A
C103  C108  1.370 .      A
C104  C105  1.383 .      A
C105  C106  1.390 .      A
C106  C107  1.386 .      A
C107  C108  1.371 .      A
C108  N36   1.347 .      A
C111  N38   1.381 .      A
C111  N39   1.387 .      A
N38   C112  1.351 .      A
C112  C113  1.365 .      A
C112  C117  1.361 .      A
C113  C114  1.383 .      A
C114  C115  1.381 .      A
C115  C116  1.374 .      A
C116  C117  1.377 .      A
C117  N39   1.343 .      A
C120  N41   1.386 .      A
C120  N42   1.384 .      A
N41   C121  1.345 .      A
C121  C122  1.372 .      A
C121  C126  1.363 .      A
C122  C123  1.384 .      A
C123  C124  1.390 .      A
C124  C125  1.386 .      A
C125  C126  1.368 .      A
C126  N42   1.345 .      A
C129  N44   1.387 .      A
C129  N45   1.382 1_554  A
N44   C130  1.346 .      A
C130  C131  1.375 .      A
C130  C135  1.364 .      A
C131  C132  1.383 .      A
C132  C133  1.388 .      A
C133  C134  1.384 .      A
C134  C135  1.376 .      A
C135  N45   1.354 1_554  A
N45   C129  1.382 1_556  A
N45   C135  1.354 1_556  A
C138  N47   1.385 .      A
C138  N48   1.367 .      A
N47   C139  1.360 .      A
C139  C140  1.373 .      A
C139  C144  1.364 .      A
C140  C141  1.386 .      A
C141  C142  1.389 .      A
C142  C143  1.382 .      A
C143  C144  1.374 .      A
C144  N48   1.341 .      A
C147  N50   1.378 .      A
C147  N51   1.379 .      A
N50   C148  1.320 .      A
C148  C149  1.356 .      A
C148  C153  1.352 .      A
C149  C150  1.374 .      A
C150  C151  1.377 .      A
C151  C152  1.375 .      A
C152  C153  1.369 .      A
C153  N51   1.364 .      A
C156  N53   1.364 .      A
C156  N54   1.364 1_554  A
N53   C157  1.345 .      A
C157  C158  1.373 .      A
C157  C162  1.358 .      A
C158  C159  1.380 .      A
C159  C160  1.387 .      A
C160  C161  1.382 .      A
C161  C162  1.373 .      A
C162  N54   1.351 1_554  A
N54   C156  1.364 1_556  A
N54   C162  1.351 1_556  A
C165  N56   1.374 .      A
C165  N57   1.373 .      A
N56   C166  1.347 .      A
C166  C167  1.372 .      A
C166  C171  1.354 .      A
C167  C168  1.384 .      A
C168  C169  1.389 .      A
C169  C170  1.385 .      A
C170  C171  1.365 .      A
C171  N57   1.339 .      A
C174  N59   1.372 .      A
C174  N60   1.387 .      A
N59   C175  1.347 .      A
C175  C176  1.374 .      A
C175  C180  1.352 .      A
C176  C177  1.382 .      A
C177  C178  1.384 .      A
C178  C179  1.382 .      A
C179  C180  1.369 .      A
C180  N60   1.345 .      A
C183  N62   1.399 .      A
C183  N63   1.365 .      A
N62   C184  1.352 .      A
C184  C185  1.354 .      A
C184  C189  1.337 .      A
C185  C186  1.379 .      A
C186  C187  1.383 .      A
C187  C188  1.379 .      A
C188  C189  1.374 .      A
C189  N63   1.327 .      A
C192  N65   1.381 1_554  A
C192  N66   1.387 .      A
N65   C192  1.381 1_556  A
N65   C193  1.341 .      A
C193  C194  1.367 .      A
C193  C198  1.364 .      A
C194  C195  1.377 .      A
C195  C196  1.381 .      A
C196  C197  1.384 .      A
C197  C198  1.376 .      A
C198  N66   1.361 1_556  A
N66   C198  1.361 1_554  A
C201  N68   1.379 .      A
C201  N69   1.391 .      A
N68   C202  1.346 .      A
C202  C203  1.380 .      A
C202  C207  1.371 .      A
C203  C204  1.379 .      A
C204  C205  1.383 .      A
C205  C206  1.384 .      A
C206  C207  1.370 .      A
C207  N69   1.359 .      A
C210  N71   1.391 .      A
C210  N72   1.382 .      A
N71   C211  1.354 .      A
C211  C212  1.383 .      A
C211  C216  1.359 .      A
C212  C213  1.377 .      A
C213  C214  1.376 .      A
C214  C215  1.378 .      A
C215  C216  1.384 .      A
C216  N72   1.356 .      A
C219  N74   1.391 .      A
C219  N75   1.383 .      A
N74   C220  1.337 .      A
C220  C221  1.372 .      A
C220  C225  1.346 .      A
C221  C222  1.381 .      A
C222  C223  1.385 .      A
C223  C224  1.386 .      A
C224  C225  1.367 .      A
C225  N75   1.349 .      A
C228  N77   1.372 .      A
C228  N78   1.370 .      A
N77   C229  1.358 .      A
C229  C230  1.379 .      A
C229  C234  1.366 .      A
C230  C231  1.385 .      A
C231  C232  1.389 .      A
C232  C233  1.385 .      A
C233  C234  1.371 .      A
C234  N78   1.344 .      A
C237  N80   1.390 .      A
C237  N81   1.388 .      A
N80   C238  1.344 .      A
C238  C239  1.378 .      A
C238  C243  1.359 .      A
C239  C240  1.376 .      A
C240  C241  1.379 .      A
C241  C242  1.384 .      A
C242  C243  1.371 .      A
C243  N81   1.356 .      A
C246  N83   1.360 .      A
C246  N84   1.395 .      A
N83   C247  1.342 .      A
C247  C248  1.381 .      A
C247  C252  1.360 .      A
C248  C249  1.378 .      A
C249  C250  1.382 .      A
C250  C251  1.383 .      A
C251  C252  1.377 .      A
C252  N84   1.366 .      A
C255  N86   1.387 .      A
C255  N87   1.373 .      A
N86   C256  1.358 .      A
C256  C257  1.372 .      A
C256  C261  1.363 .      A
C257  C258  1.383 .      A
C258  C259  1.377 .      A
C259  C260  1.375 .      A
C260  C261  1.386 .      A
C261  N87   1.350 .      A
C264  N89   1.380 .      A
C264  N90   1.369 .      A
N89   C265  1.343 .      A
C265  C266  1.367 .      A
C265  C270  1.357 .      A
C266  C267  1.385 .      A
C267  C268  1.389 .      A
C268  C269  1.384 .      A
C269  C270  1.377 .      A
C270  N90   1.350 .      A
C273  N92   1.375 .      A
C273  N93   1.370 .      A
N92   C274  1.344 .      A
C274  C275  1.369 .      A
C274  C279  1.359 .      A
C275  C276  1.382 .      A
C276  C277  1.384 .      A
C277  C278  1.382 .      A
C278  C279  1.373 .      A
C279  N93   1.350 .      A
C282  N95   1.382 .      A
C282  N96   1.362 .      A
N95   C283  1.345 .      A
C283  C284  1.375 .      A
C283  C288  1.350 .      A
C284  C285  1.383 .      A
C285  C286  1.386 .      A
C286  C287  1.384 .      A
C287  C288  1.371 .      A
C288  N96   1.344 .      A
C291  N98   1.385 .      A
C291  N99   1.395 .      A
N98   C292  1.329 .      A
C292  C293  1.368 .      A
C292  C297  1.341 .      A
C293  C294  1.359 .      A
C294  C295  1.370 .      A
C295  C296  1.382 .      A
C296  C297  1.343 .      A
C297  N99   1.341 .      A
C300  N101  1.391 .      A
C300  N102  1.376 .      A
N101  C301  1.349 .      A
C301  C302  1.364 .      A
C301  C306  1.350 .      A
C302  C303  1.381 .      A
C303  C304  1.374 .      A
C304  C305  1.375 .      A
C305  C306  1.381 .      A
C306  N102  1.348 .      A
C309  N104  1.382 .      A
C309  N105  1.391 .      A
N104  C310  1.354 .      A
C310  C311  1.366 .      A
C310  C315  1.357 .      A
C311  C312  1.382 .      A
C312  C313  1.379 .      A
C313  C314  1.381 .      A
C314  C315  1.358 .      A
C315  N105  1.331 .      A
C318  N107  1.374 .      A
C318  N108  1.374 .      A
N107  C319  1.361 .      A
C319  C320  1.381 .      A
C319  C324  1.365 .      A
C320  C321  1.382 .      A
C321  C322  1.383 .      A
C322  C323  1.380 .      A
C323  C324  1.372 .      A
C324  N108  1.344 .      A
C327  N110  1.396 .      A
C327  N111  1.385 .      A
N110  C328  1.373 .      A
C328  C329  1.386 .      A
C328  C333  1.374 .      A
C329  C330  1.378 .      A
C330  C331  1.377 .      A
C331  C332  1.379 .      A
C332  C333  1.376 .      A
C333  N111  1.340 .      A
C336  N113  1.400 .      A
C336  N114  1.387 .      A
N113  C337  1.344 .      A
C337  C338  1.370 .      A
C337  C342  1.357 .      A
C338  C339  1.381 .      A
C339  C340  1.384 .      A
C340  C341  1.383 .      A
C341  C342  1.363 .      A
C342  N114  1.346 .      A
C345  N116  1.356 .      A
C345  N117  1.375 .      A
N116  C346  1.342 .      A
C346  C347  1.380 .      A
C346  C351  1.353 .      A
C347  C348  1.380 .      A
C348  C349  1.385 .      A
C349  C350  1.385 .      A
C350  C351  1.378 .      A
C351  N117  1.362 .      A
C354  N119  1.390 .      A
C354  N120  1.389 .      A
N119  C355  1.344 .      A
C355  C356  1.373 .      A
C355  C360  1.349 .      A
C356  C357  1.373 .      A
C357  C358  1.374 .      A
C358  C359  1.384 .      A
C359  C360  1.368 .      A
C360  N120  1.354 .      A
C363  N122  1.383 .      A
C363  N123  1.362 .      A
N122  C364  1.357 .      A
C364  C365  1.377 .      A
C364  C369  1.366 .      A
C365  C366  1.385 .      A
C366  C367  1.388 .      A
C367  C368  1.383 .      A
C368  C369  1.372 .      A
C369  N123  1.341 .      A
C372  N125  1.379 .      A
C372  N126  1.379 .      A
N125  C373  1.350 .      A
C373  C374  1.367 .      A
C373  C378  1.357 .      A
C374  C375  1.383 .      A
C375  C376  1.382 .      A
C376  C377  1.379 .      A
C377  C378  1.368 .      A
C378  N126  1.339 .      A
C381  N128  1.402 .      A
C381  N129  1.386 .      A
N128  C382  1.347 .      A
C382  C383  1.370 .      A
C382  C387  1.348 .      A
C383  C384  1.389 .      A
C384  C385  1.381 .      A
C385  C386  1.376 .      A
C386  C387  1.368 .      A
C387  N129  1.342 .      A
C390  N131  1.390 .      A
C390  N132  1.369 .      A
N131  C391  1.360 .      A
C391  C392  1.381 .      A
C391  C396  1.362 .      A
C392  C393  1.381 .      A
C393  C394  1.381 .      A
C394  C395  1.379 .      A
C395  C396  1.371 .      A
C396  N132  1.344 .      A
C399  N134  1.393 .      A
C399  N135  1.383 .      A
N134  C400  1.331 .      A
C400  C401  1.369 .      A
C400  C405  1.353 .      A
C401  C402  1.380 .      A
C402  C403  1.387 .      A
C403  C404  1.386 .      A
C404  C405  1.370 .      A
C405  N135  1.359 .      A
C408  N137  1.382 .      A
C408  N138  1.378 .      A
N137  C409  1.326 .      A
C409  C410  1.365 .      A
C409  C414  1.346 .      A
C410  C411  1.363 .      A
C411  C412  1.378 .      A
C412  C413  1.380 .      A
C413  C414  1.379 .      A
C414  N138  1.366 .      A
C417  N140  1.387 .      A
C417  N141  1.383 .      A
N140  C418  1.361 .      A
C418  C419  1.374 .      A
C418  C423  1.369 .      A
C419  C420  1.380 .      A
C420  C421  1.382 .      A
C421  C422  1.379 .      A
C422  C423  1.368 .      A
C423  N141  1.339 .      A
C426  N143  1.404 .      A
C426  N144  1.390 .      A
N143  C427  1.337 .      A
C427  C428  1.352 .      A
C427  C432  1.339 .      A
C428  C429  1.382 .      A
C429  C430  1.379 .      A
C430  C431  1.378 .      A
C431  C432  1.347 .      A
C432  N144  1.335 .      A
C435  N146  1.377 .      A
C435  N147  1.387 .      A
N146  C436  1.351 .      A
C436  C437  1.379 .      A
C436  C441  1.362 .      A
C437  C438  1.381 .      A
C438  C439  1.379 .      A
C439  C440  1.380 .      A
C440  C441  1.378 .      A
C441  N147  1.356 .      A
C444  N149  1.380 .      A
C444  N150  1.382 .      A
N149  C445  1.339 .      A
C445  C446  1.368 1_556  A
C445  C450  1.363 .      A
C446  C445  1.368 1_554  A
C446  C447  1.371 1_554  A
C447  C446  1.371 1_556  A
C447  C448  1.370 .      A
C448  C449  1.379 .      A
C449  C450  1.395 .      A
C450  N150  1.376 .      A
C453  N152  1.384 .      A
C453  N153  1.388 .      A
N152  C454  1.356 .      A
C454  C455  1.374 .      A
C454  C459  1.364 .      A
C455  C456  1.385 .      A
C456  C457  1.387 .      A
C457  C458  1.381 .      A
C458  C459  1.367 .      A
C459  N153  1.340 .      A
C462  N155  1.389 .      A
C462  N156  1.384 .      A
N155  C463  1.386 .      A
C463  C464  1.397 .      A
C463  C468  1.363 .      A
C464  C465  1.382 .      A
C465  C466  1.375 .      A
C466  C467  1.371 .      A
C467  C468  1.376 .      A
C468  N156  1.330 .      A
C471  N158  1.373 .      A
C471  N159  1.383 .      A
N158  C472  1.347 .      A
C472  C473  1.378 .      A
C472  C477  1.359 .      A
C473  C474  1.380 1_545  A
C474  C473  1.380 1_565  A
C474  C475  1.382 .      A
C475  C476  1.382 1_565  A
C476  C475  1.382 1_545  A
C476  C477  1.355 .      A
C477  N159  1.348 .      A
C480  N161  1.383 .      A
C480  N162  1.383 .      A
N161  C481  1.350 .      A
C481  C482  1.358 .      A
C481  C486  1.361 .      A
C482  C483  1.381 .      A
C483  C484  1.376 .      A
C484  C485  1.376 .      A
C485  C486  1.384 .      A
C486  N162  1.349 .      A
C489  N164  1.386 .      A
C489  N165  1.386 .      A
N164  C490  1.354 .      A
C490  C491  1.372 .      A
C490  C495  1.363 .      A
C491  C492  1.381 .      A
C492  C493  1.385 .      A
C493  C494  1.382 .      A
C494  C495  1.367 .      A
C495  N165  1.342 .      A
C498  N167  1.388 .      A
C498  N168  1.383 .      A
N167  C499  1.355 .      A
C499  C500  1.359 .      A
C499  C504  1.358 .      A
C500  C501  1.381 1_554  A
C501  C500  1.381 1_556  A
C501  C502  1.379 .      A
C502  C503  1.379 1_556  A
C503  C502  1.379 1_554  A
C503  C504  1.375 .      A
C504  N168  1.341 .      A
C507  N170  1.375 .      A
C507  N171  1.398 .      A
N170  C508  1.362 .      A
C508  C509  1.380 .      A
C508  C513  1.365 .      A
C509  C510  1.381 .      A
C510  C511  1.383 .      A
C511  C512  1.381 .      A
C512  C513  1.369 .      A
C513  N171  1.340 .      A
C516  N173  1.379 .      A
C516  N174  1.396 .      A
N173  C517  1.334 .      A
C517  C518  1.373 .      A
C517  C522  1.364 .      A
C518  C519  1.379 .      A
C519  C520  1.384 .      A
C520  C521  1.385 .      A
C521  C522  1.379 .      A
C522  N174  1.370 .      A
C525  N176  1.391 .      A
C525  N177  1.387 .      A
N176  C526  1.361 .      A
C526  C527  1.376 .      A
C526  C531  1.362 .      A
C527  C528  1.383 1_545  A
C528  C527  1.383 1_565  A
C528  C529  1.375 1_565  A
C529  C528  1.375 1_545  A
C529  C530  1.374 .      A
C530  C531  1.378 .      A
C531  N177  1.346 .      A
C534  N179  1.395 .      A
C534  N180  1.410 .      A
N179  C535  1.349 .      A
C535  C536  1.372 .      A
C535  C540  1.351 .      A
C536  C537  1.379 .      A
C537  C538  1.378 .      A
C538  C539  1.377 .      A
C539  C540  1.361 .      A
C540  N180  1.342 .      A
C543  N182  1.380 .      A
C543  N183  1.373 .      A
N182  C544  1.355 .      A
C544  C545  1.377 .      A
C544  C549  1.367 .      A
C545  C546  1.377 .      A
C546  C547  1.378 .      A
C547  C548  1.379 .      A
C548  C549  1.390 .      A
C549  N183  1.361 .      A
C552  N185  1.385 .      A
C552  N186  1.385 .      A
N185  C553  1.354 .      A
C553  C554  1.364 .      A
C553  C558  1.359 .      A
C554  C555  1.384 .      A
C555  C556  1.386 .      A
C556  C557  1.382 .      A
C557  C558  1.368 .      A
C558  N186  1.337 .      A
C561  N188  1.391 .      A
C561  N189  1.367 .      A
N188  C562  1.350 .      A
C562  C563  1.373 .      A
C562  C567  1.364 .      A
C563  C564  1.384 .      A
C564  C565  1.388 .      A
C565  C566  1.384 .      A
C566  C567  1.374 .      A
C567  N189  1.349 .      A
C570  N191  1.369 .      A
C570  N192  1.370 .      A
N191  C571  1.348 .      A
C571  C572  1.370 1_556  A
C571  C576  1.350 .      A
C572  C571  1.370 1_554  A
C572  C573  1.384 .      A
C573  C574  1.385 .      A
C574  C575  1.380 .      A
C575  C576  1.374 1_554  A
C576  C575  1.374 1_556  A
C576  N192  1.345 .      A
C579  N194  1.380 .      A
C579  N195  1.395 .      A
N194  C580  1.338 .      A
C580  C581  1.372 .      A
C580  C585  1.366 .      A
C581  C582  1.379 .      A
C582  C583  1.385 .      A
C583  C584  1.387 .      A
C584  C585  1.373 .      A
C585  N195  1.362 .      A
C588  N197  1.368 .      A
C588  N198  1.384 .      A
N197  C589  1.353 .      A
C589  C590  1.368 .      A
C589  C594  1.356 .      A
C590  C591  1.376 .      A
C591  C592  1.380 .      A
C592  C593  1.375 .      A
C593  C594  1.369 .      A
C594  N198  1.334 .      A
C597  N200  1.372 .      A
C597  N201  1.384 1_554  A
N200  C598  1.347 .      A
C598  C599  1.374 .      A
C598  C603  1.364 .      A
C599  C600  1.371 .      A
C600  C601  1.374 .      A
C601  C602  1.379 .      A
C602  C603  1.378 .      A
C603  N201  1.362 1_554  A
N201  C597  1.384 1_556  A
N201  C603  1.362 1_556  A
C606  N203  1.385 .      A
C606  N204  1.390 .      A
N203  C607  1.351 .      A
C607  C608  1.370 .      A
C607  C612  1.358 .      A
C608  C609  1.383 .      A
C609  C610  1.388 .      A
C610  C611  1.385 .      A
C611  C612  1.370 .      A
C612  N204  1.341 .      A
C615  N206  1.367 .      A
C615  N207  1.374 .      A
N206  C616  1.346 .      A
C616  C617  1.374 .      A
C616  C621  1.368 .      A
C617  C618  1.382 .      A
C618  C619  1.387 .      A
C619  C620  1.384 .      A
C620  C621  1.373 .      A
C621  N207  1.354 .      A
C624  N209  1.400 .      A
C624  N210  1.392 .      A
N209  C625  1.354 .      A
C625  C626  1.372 .      A
C625  C630  1.366 .      A
C626  C627  1.383 .      A
C627  C628  1.379 .      A
C628  C629  1.377 .      A
C629  C630  1.377 .      A
C630  N210  1.349 .      A
C633  N212  1.398 .      A
C633  N213  1.374 .      A
N212  C634  1.341 .      A
C634  C635  1.356 .      A
C634  C639  1.338 .      A
C635  C636  1.369 .      A
C636  C637  1.381 .      A
C637  C638  1.379 .      A
C638  C639  1.378 .      A
C639  N213  1.339 .      A
C642  N215  1.380 .      A
C642  N216  1.389 .      A
N215  C643  1.361 .      A
C643  C644  1.384 .      A
C643  C648  1.374 .      A
C644  C645  1.381 .      A
C645  C646  1.383 .      A
C646  C647  1.382 .      A
C647  C648  1.371 .      A
C648  N216  1.348 .      A
C651  N218  1.389 .      A
C651  N219  1.377 .      A
N218  C652  1.342 .      A
C652  C653  1.363 1_556  A
C652  C657  1.371 .      A
C653  C652  1.363 1_554  A
C653  C654  1.385 .      A
C654  C655  1.389 .      A
C655  C656  1.385 .      A
C656  C657  1.372 1_554  A
C657  C656  1.372 1_556  A
C657  N219  1.353 .      A
C660  N221  1.379 .      A
C660  N222  1.383 .      A
N221  C661  1.351 .      A
C661  C662  1.366 .      A
C661  C666  1.350 .      A
C662  C663  1.385 .      A
C663  C664  1.386 .      A
C664  C665  1.380 .      A
C665  C666  1.371 .      A
C666  N222  1.336 .      A
C669  N224  1.366 .      A
C669  N225  1.388 .      A
N224  C670  1.340 .      A
C670  C671  1.377 .      A
C670  C675  1.357 .      A
C671  C672  1.379 .      A
C672  C673  1.385 .      A
C673  C674  1.384 .      A
C674  C675  1.378 .      A
C675  N225  1.360 .      A
C678  N227  1.394 .      A
C678  N228  1.368 .      A
N227  C679  1.354 .      A
C679  C680  1.377 .      A
C679  C684  1.364 .      A
C680  C681  1.380 .      A
C681  C682  1.380 .      A
C682  C683  1.378 .      A
C683  C684  1.373 .      A
C684  N228  1.350 .      A
C687  N230  1.367 .      A
C687  N231  1.375 .      A
N230  C688  1.357 .      A
C688  C689  1.376 .      A
C688  C693  1.362 .      A
C689  C690  1.380 .      A
C690  C691  1.377 .      A
C691  C692  1.379 .      A
C692  C693  1.380 .      A
C693  N231  1.351 .      A
C696  N233  1.385 .      A
C696  N234  1.370 .      A
N233  C697  1.351 .      A
C697  C698  1.368 .      A
C697  C702  1.354 .      A
C698  C699  1.380 .      A
C699  C700  1.377 .      A
C700  C701  1.378 .      A
C701  C702  1.369 .      A
C702  N234  1.348 .      A
C705  N236  1.377 .      A
C705  N237  1.382 .      A
N236  C706  1.344 .      A
C706  C707  1.372 .      A
C706  C711  1.360 .      A
C707  C708  1.380 .      A
C708  C709  1.384 .      A
C709  C710  1.383 .      A
C710  C711  1.381 .      A
C711  N237  1.359 .      A
C714  N239  1.377 .      A
C714  N240  1.368 .      A
N239  C715  1.341 .      A
C715  C716  1.363 .      A
C715  C720  1.354 .      A
C716  C717  1.382 .      A
C717  C718  1.387 .      A
C718  C719  1.384 .      A
C719  C720  1.377 .      A
C720  N240  1.354 .      A
C723  N242  1.388 .      A
C723  N243  1.385 .      A
N242  C724  1.343 .      A
C724  C725  1.372 .      A
C724  C729  1.366 .      A
C725  C726  1.374 1_565  A
C726  C725  1.374 1_545  A
C726  C727  1.374 1_545  A
C727  C726  1.374 1_565  A
C727  C728  1.381 .      A
C728  C729  1.391 .      A
C729  N243  1.372 .      A
C732  N245  1.387 1_545  A
C732  N246  1.385 .      A
N245  C732  1.387 1_565  A
N245  C733  1.349 1_565  A
C733  N245  1.349 1_545  A
C733  C734  1.376 .      A
C733  C738  1.357 .      A
C734  C735  1.380 .      A
C735  C736  1.382 .      A
C736  C737  1.383 .      A
C737  C738  1.370 .      A
C738  N246  1.353 .      A
C741  N248  1.397 .      A
C741  N249  1.394 .      A
N248  C742  1.336 .      A
C742  C743  1.352 .      A
C742  C747  1.349 .      A
C743  C744  1.372 .      A
C744  C745  1.384 .      A
C745  C746  1.371 .      A
C746  C747  1.364 .      A
C747  N249  1.333 .      A
C750  N251  1.396 .      A
C750  N252  1.396 .      A
N251  C751  1.356 .      A
C751  C752  1.373 .      A
C751  C756  1.359 .      A
C752  C753  1.380 .      A
C753  C754  1.379 .      A
C754  C755  1.374 .      A
C755  C756  1.366 .      A
C756  N252  1.333 .      A
C759  N254  1.395 1_556  A
C759  N255  1.380 .      A
N254  C759  1.395 1_554  A
N254  C760  1.357 1_554  A
C760  N254  1.357 1_556  A
C760  C761  1.382 .      A
C760  C765  1.355 .      A
C761  C762  1.379 .      A
C762  C763  1.374 .      A
C763  C764  1.373 .      A
C764  C765  1.363 .      A
C765  N255  1.346 .      A
C768  N257  1.383 .      A
C768  N258  1.375 .      A
N257  C769  1.351 .      A
C769  C770  1.377 .      A
C769  C774  1.369 .      A
C770  C771  1.385 .      A
C771  C772  1.391 .      A
C772  C773  1.385 .      A
C773  C774  1.371 .      A
C774  N258  1.351 .      A
C777  N260  1.403 .      A
C777  N261  1.389 .      A
N260  C778  1.354 .      A
C778  C779  1.367 .      A
C778  C783  1.369 .      A
C779  C780  1.385 .      A
C780  C781  1.386 .      A
C781  C782  1.380 .      A
C782  C783  1.371 .      A
C783  N261  1.342 .      A
C786  N263  1.374 1_554  A
C786  N264  1.378 .      A
N263  C786  1.374 1_556  A
N263  C787  1.348 1_556  A
C787  N263  1.348 1_554  A
C787  C788  1.374 .      A
C787  C792  1.364 .      A
C788  C789  1.383 .      A
C789  C790  1.385 .      A
C790  C791  1.382 .      A
C791  C792  1.380 .      A
C792  N264  1.356 .      A
C795  N266  1.389 .      A
C795  N267  1.385 .      A
N266  C796  1.355 .      A
C796  C797  1.381 .      A
C796  C801  1.362 .      A
C797  C798  1.385 .      A
C798  C799  1.386 .      A
C799  C800  1.381 .      A
C800  C801  1.374 .      A
C801  N267  1.347 .      A
C804  N269  1.382 .      A
C804  N270  1.376 .      A
N269  C805  1.350 .      A
C805  C806  1.373 .      A
C805  C810  1.369 .      A
C806  C807  1.385 .      A
C807  C808  1.389 .      A
C808  C809  1.383 .      A
C809  C810  1.373 .      A
C810  N270  1.351 .      A
C813  N272  1.393 1_565  A
C813  N273  1.369 .      A
N272  C813  1.393 1_545  A
N272  C814  1.346 .      A
C814  C815  1.371 .      A
C814  C819  1.373 .      A
C815  C816  1.383 .      A
C816  C817  1.388 .      A
C817  C818  1.385 .      A
C818  C819  1.378 .      A
C819  N273  1.358 1_545  A
N273  C819  1.358 1_565  A
C822  N275  1.386 .      A
C822  N276  1.377 .      A
N275  C823  1.355 .      A
C823  C824  1.382 .      A
C823  C828  1.338 .      A
C824  C825  1.375 .      A
C825  C826  1.372 .      A
C826  C827  1.375 .      A
C827  C828  1.382 .      A
C828  N276  1.351 .      A
C831  N278  1.376 .      A
C831  N279  1.379 .      A
N278  C832  1.344 .      A
C832  C833  1.367 .      A
C832  C837  1.354 .      A
C833  C834  1.380 .      A
C834  C835  1.386 .      A
C835  C836  1.375 .      A
C836  C837  1.358 .      A
C837  N279  1.341 .      A
C840  N281  1.383 .      A
C840  N282  1.369 .      A
N281  C841  1.377 .      A
C841  C842  1.389 1_554  A
C841  C846  1.368 .      A
C842  C841  1.389 1_556  A
C842  C843  1.382 .      A
C843  C844  1.378 .      A
C844  C845  1.377 .      A
C845  C846  1.377 1_556  A
C846  C845  1.377 1_554  A
C846  N282  1.339 .      A
C849  N284  1.375 .      A
C849  N285  1.371 .      A
N284  C850  1.343 .      A
C850  C851  1.370 .      A
C850  C855  1.364 .      A
C851  C852  1.383 .      A
C852  C853  1.389 .      A
C853  C854  1.385 .      A
C854  C855  1.373 .      A
C855  N285  1.352 .      A
C858  N287  1.394 .      A
C858  N288  1.378 .      A
N287  C859  1.342 .      A
C859  C860  1.360 .      A
C859  C864  1.359 .      A
C860  C861  1.382 .      A
C861  C862  1.381 .      A
C862  C863  1.380 .      A
C863  C864  1.370 .      A
C864  N288  1.349 .      A
C867  N290  1.392 .      A
C867  N291  1.404 .      A
N290  C868  1.336 .      A
C868  C869  1.366 .      A
C868  C873  1.345 .      A
C869  C870  1.379 .      A
C870  C871  1.375 .      A
C871  C872  1.377 .      A
C872  C873  1.364 .      A
C873  N291  1.352 .      A
C876  N293  1.370 .      A
C876  N294  1.383 .      A
N293  C877  1.337 .      A
C877  C878  1.344 .      A
C877  C882  1.346 .      A
C878  C879  1.376 .      A
C879  C880  1.374 .      A
C880  C881  1.383 .      A
C881  C882  1.360 .      A
C882  N294  1.341 .      A
C885  N296  1.382 .      A
C885  N297  1.375 .      A
N296  C886  1.350 .      A
C886  C887  1.376 .      A
C886  C891  1.371 .      A
C887  C888  1.382 .      A
C888  C889  1.387 .      A
C889  C890  1.384 .      A
C890  C891  1.371 .      A
C891  N297  1.353 .      A
C894  N299  1.387 .      A
C894  N300  1.387 .      A
N299  C895  1.339 .      A
C895  C896  1.372 1_554  A
C895  C900  1.358 .      A
C896  C895  1.372 1_556  A
C896  C897  1.378 .      A
C897  C898  1.377 .      A
C898  C899  1.379 1_556  A
C899  C898  1.379 1_554  A
C899  C900  1.373 .      A
C900  N300  1.362 .      A
C903  N302  1.368 .      A
C903  N303  1.387 .      A
N302  C904  1.345 .      A
C904  C905  1.375 .      A
C904  C909  1.359 .      A
C905  C906  1.381 .      A
C906  C907  1.385 .      A
C907  C908  1.383 .      A
C908  C909  1.368 .      A
C909  N303  1.350 .      A
C912  N305  1.384 .      A
C912  N306  1.384 .      A
N305  C913  1.338 .      A
C913  C914  1.372 .      A
C913  C918  1.361 .      A
C914  C915  1.381 .      A
C915  C916  1.374 .      A
C916  C917  1.376 .      A
C917  C918  1.393 .      A
C918  N306  1.372 .      A
C921  N308  1.378 .      A
C921  N309  1.396 .      A
N308  C922  1.357 .      A
C922  C923  1.383 1_565  A
C922  C927  1.344 .      A
C923  C922  1.383 1_545  A
C923  C924  1.364 .      A
C924  C925  1.356 .      A
C925  C926  1.369 .      A
C926  C927  1.370 1_545  A
C927  C926  1.370 1_565  A
C927  N309  1.350 .      A
C930  N311  1.383 1_545  A
C930  N312  1.387 .      A
N311  C930  1.383 1_565  A
N311  C931  1.352 1_565  A
C931  N311  1.352 1_545  A
C931  C932  1.378 .      A
C931  C936  1.360 .      A
C932  C933  1.382 .      A
C933  C934  1.384 .      A
C934  C935  1.380 .      A
C935  C936  1.379 .      A
C936  N312  1.353 .      A
C939  N314  1.376 .      A
C939  N315  1.374 .      A
N314  C940  1.348 .      A
C940  C941  1.367 .      A
C940  C945  1.360 .      A
C941  C942  1.383 .      A
C942  C943  1.385 .      A
C943  C944  1.381 .      A
C944  C945  1.376 .      A
C945  N315  1.350 .      A
C948  N317  1.383 .      A
C948  N318  1.380 .      A
N317  C949  1.351 .      A
C949  C950  1.375 .      A
C949  C954  1.366 .      A
C950  C951  1.380 .      A
C951  C952  1.382 .      A
C952  C953  1.380 .      A
C953  C954  1.380 .      A
C954  N318  1.350 .      A
C957  N320  1.377 .      A
C957  N321  1.380 .      A
N320  C958  1.347 .      A
C958  C959  1.374 .      A
C958  C963  1.365 .      A
C959  C960  1.385 .      A
C960  C961  1.382 .      A
C961  C962  1.379 .      A
C962  C963  1.360 .      A
C963  N321  1.344 .      A
C966  N323  1.377 .      A
C966  N324  1.368 .      A
N323  C967  1.354 .      A
C967  C968  1.373 .      A
C967  C972  1.358 .      A
C968  C969  1.385 .      A
C969  C970  1.388 .      A
C970  C971  1.383 .      A
C971  C972  1.367 .      A
C972  N324  1.337 .      A
C975  N326  1.371 .      A
C975  N327  1.388 .      A
N326  C976  1.347 .      A
C976  C977  1.376 .      A
C976  C981  1.362 .      A
C977  C978  1.384 .      A
C978  C979  1.390 .      A
C979  C980  1.385 .      A
C980  C981  1.377 .      A
C981  N327  1.354 .      A
C984  N329  1.379 .      A
C984  N330  1.379 .      A
N329  C985  1.343 .      A
C985  C986  1.369 .      A
C985  C990  1.355 .      A
C986  C987  1.379 .      A
C987  C988  1.382 .      A
C988  C989  1.381 .      A
C989  C990  1.377 .      A
C990  N330  1.353 .      A
C993  N332  1.401 .      A
C993  N333  1.390 .      A
N332  C994  1.334 .      A
C994  C995  1.373 .      A
C994  C999  1.362 .      A
C995  C996  1.369 .      A
C996  C997  1.376 .      A
C997  C998  1.387 .      A
C998  C999  1.362 .      A
C999  N333  1.358 .      A
C1002 N335  1.391 .      A
C1002 N336  1.391 .      A
N335  C1003 1.343 .      A
C1003 C1004 1.367 .      A
C1003 C1008 1.345 .      A
C1004 C1005 1.379 .      A
C1005 C1006 1.381 .      A
C1006 C1007 1.381 .      A
C1007 C1008 1.370 .      A
C1008 N336  1.348 .      A
C1011 N338  1.379 .      A
C1011 N339  1.376 .      A
N338  C1012 1.341 .      A
C1012 C1013 1.365 1_554  A
C1012 C1017 1.355 .      A
C1013 C1012 1.365 1_556  A
C1013 C1014 1.382 .      A
C1014 C1015 1.382 .      A
C1015 C1016 1.372 1_556  A
C1016 C1015 1.372 1_554  A
C1016 C1017 1.369 .      A
C1017 N339  1.345 .      A
C1020 N341  1.372 .      A
C1020 N342  1.375 .      A
N341  C1021 1.351 .      A
C1021 C1022 1.375 .      A
C1021 C1026 1.362 .      A
C1022 C1023 1.380 .      A
C1023 C1024 1.382 .      A
C1024 C1025 1.381 .      A
C1025 C1026 1.375 .      A
C1026 N342  1.354 .      A
C1029 N344  1.369 .      A
C1029 N345  1.393 .      A
N344  C1030 1.357 .      A
C1030 C1031 1.371 .      A
C1030 C1035 1.369 .      A
C1031 C1032 1.384 .      A
C1032 C1033 1.386 .      A
C1033 C1034 1.382 .      A
C1034 C1035 1.371 .      A
C1035 N345  1.344 .      A
C1038 N347  1.387 1_565  A
C1038 N348  1.375 .      A
N347  C1038 1.387 1_545  A
N347  C1039 1.346 .      A
C1039 C1040 1.367 .      A
C1039 C1044 1.356 1_545  A
C1040 C1041 1.373 1_554  A
C1041 C1040 1.373 1_556  A
C1041 C1042 1.376 .      A
C1042 C1043 1.382 1_546  A
C1043 C1042 1.382 1_564  A
C1043 C1044 1.358 .      A
C1044 C1039 1.356 1_565  A
C1044 N348  1.341 .      A
C1047 N350  1.385 .      A
C1047 N351  1.403 .      A
N350  C1048 1.345 .      A
C1048 C1049 1.375 .      A
C1048 C1053 1.364 .      A
C1049 C1050 1.379 .      A
C1050 C1051 1.381 .      A
C1051 C1052 1.381 .      A
C1052 C1053 1.369 .      A
C1053 N351  1.358 .      A
C1056 N353  1.372 .      A
C1056 N354  1.364 .      A
N353  C1057 1.360 .      A
C1057 C1058 1.377 .      A
C1057 C1062 1.366 .      A
C1058 C1059 1.381 .      A
C1059 C1060 1.380 .      A
C1060 C1061 1.380 .      A
C1061 C1062 1.378 .      A
C1062 N354  1.346 .      A
C1065 N356  1.387 .      A
C1065 N357  1.385 .      A
N356  C1066 1.352 .      A
C1066 C1067 1.359 .      A
C1066 C1071 1.361 .      A
C1067 C1068 1.379 .      A
C1068 C1069 1.377 .      A
C1069 C1070 1.379 .      A
C1070 C1071 1.379 .      A
C1071 N357  1.348 .      A
C1074 N359  1.381 .      A
C1074 N360  1.390 .      A
N359  C1075 1.350 .      A
C1075 C1076 1.376 .      A
C1075 C1080 1.367 .      A
C1076 C1077 1.377 .      A
C1077 C1078 1.376 .      A
C1078 C1079 1.375 .      A
C1079 C1080 1.374 .      A
C1080 N360  1.350 .      A
C1083 N362  1.366 .      A
C1083 N363  1.361 .      A
N362  C1084 1.354 .      A
C1084 C1085 1.377 .      A
C1084 C1089 1.359 .      A
C1085 C1086 1.378 .      A
C1086 C1087 1.376 .      A
C1087 C1088 1.379 .      A
C1088 C1089 1.385 .      A
C1089 N363  1.359 .      A
C1092 N365  1.404 .      A
C1092 N366  1.396 .      A
N365  C1093 1.349 .      A
C1093 C1094 1.362 .      A
C1093 C1098 1.356 .      A
C1094 C1095 1.381 .      A
C1095 C1096 1.381 .      A
C1096 C1097 1.381 .      A
C1097 C1098 1.365 .      A
C1098 N366  1.341 .      A
C1101 N368  1.392 .      A
C1101 N369  1.386 .      A
N368  C1102 1.343 .      A
C1102 C1103 1.368 .      A
C1102 C1107 1.365 .      A
C1103 C1104 1.384 .      A
C1104 C1105 1.386 .      A
C1105 C1106 1.381 .      A
C1106 C1107 1.367 .      A
C1107 N369  1.350 .      A
C1110 N371  1.377 .      A
C1110 N372  1.392 .      A
N371  C1111 1.337 .      A
C1111 C1112 1.376 .      A
C1111 C1116 1.359 .      A
C1112 C1113 1.382 .      A
C1113 C1114 1.387 .      A
C1114 C1115 1.388 .      A
C1115 C1116 1.375 .      A
C1116 N372  1.358 .      A
C1119 N374  1.383 1_554  A
C1119 N375  1.385 .      A
N374  C1119 1.383 1_556  A
N374  C1120 1.346 .      A
C1120 C1121 1.369 .      A
C1120 C1125 1.367 1_556  A
C1121 C1122 1.382 .      A
C1122 C1123 1.387 .      A
C1123 C1124 1.384 1_556  A
C1124 C1123 1.384 1_554  A
C1124 C1125 1.367 .      A
C1125 C1120 1.367 1_554  A
C1125 N375  1.350 .      A
C1128 N377  1.383 .      A
C1128 N378  1.364 .      A
N377  C1129 1.345 .      A
C1129 C1130 1.373 .      A
C1129 C1134 1.362 .      A
C1130 C1131 1.385 .      A
C1131 C1132 1.390 .      A
C1132 C1133 1.385 .      A
C1133 C1134 1.375 .      A
C1134 N378  1.353 .      A
C1137 N380  1.394 .      A
C1137 N381  1.384 .      A
N380  C1138 1.350 .      A
C1138 C1139 1.370 .      A
C1138 C1143 1.343 .      A
C1139 C1140 1.366 .      A
C1140 C1141 1.352 .      A
C1141 C1142 1.366 .      A
C1142 C1143 1.364 .      A
C1143 N381  1.349 .      A
C1146 N383  1.397 .      A
C1146 N384  1.391 .      A
N383  C1147 1.370 .      A
C1147 C1148 1.382 .      A
C1147 C1152 1.376 .      A
C1148 C1149 1.383 .      A
C1149 C1150 1.381 .      A
C1150 C1151 1.377 .      A
C1151 C1152 1.371 .      A
C1152 N384  1.340 .      A
C1155 N386  1.386 .      A
C1155 N387  1.404 .      A
N386  C1156 1.355 .      A
C1156 C1157 1.362 .      A
C1156 C1161 1.358 .      A
C1157 C1158 1.385 .      A
C1158 C1159 1.374 .      A
C1159 C1160 1.372 .      A
C1160 C1161 1.372 .      A
C1161 N387  1.339 .      A
C1164 N389  1.382 .      A
C1164 N390  1.373 .      A
N389  C1165 1.343 .      A
C1165 C1166 1.371 .      A
C1165 C1170 1.366 .      A
C1166 C1167 1.383 .      A
C1167 C1168 1.389 .      A
C1168 C1169 1.386 .      A
C1169 C1170 1.362 .      A
C1170 N390  1.348 .      A
C1173 N392  1.375 .      A
C1173 N393  1.372 .      A
N392  C1174 1.340 .      A
C1174 C1175 1.366 1_554  A
C1174 C1179 1.351 .      A
C1175 C1174 1.366 1_556  A
C1175 C1176 1.376 .      A
C1176 C1177 1.379 .      A
C1177 C1178 1.387 .      A
C1178 C1179 1.355 1_556  A
C1179 C1178 1.355 1_554  A
C1179 N393  1.341 .      A
C1182 N395  1.358 .      A
C1182 N396  1.378 .      A
N395  C1183 1.341 .      A
C1183 C1184 1.371 .      A
C1183 C1188 1.358 .      A
C1184 C1185 1.380 .      A
C1185 C1186 1.386 .      A
C1186 C1187 1.381 .      A
C1187 C1188 1.366 .      A
C1188 N396  1.353 .      A
C1191 N398  1.395 .      A
C1191 N399  1.372 .      A
N398  C1192 1.346 .      A
C1192 C1193 1.364 .      A
C1192 C1197 1.358 .      A
C1193 C1194 1.383 .      A
C1194 C1195 1.376 .      A
C1195 C1196 1.374 .      A
C1196 C1197 1.380 .      A
C1197 N399  1.350 .      A
C1200 N401  1.385 .      A
C1200 N402  1.378 .      A
N401  C1201 1.353 .      A
C1201 C1202 1.378 .      A
C1201 C1206 1.351 .      A
C1202 C1203 1.375 .      A
C1203 C1204 1.366 .      A
C1204 C1205 1.371 .      A
C1205 C1206 1.370 .      A
C1206 N402  1.343 .      A
C1209 N404  1.375 .      A
C1209 N405  1.384 .      A
N404  C1210 1.332 .      A
C1210 C1211 1.376 .      A
C1210 C1215 1.334 .      A
C1211 C1212 1.380 .      A
C1212 C1213 1.383 .      A
C1213 C1214 1.365 .      A
C1214 C1215 1.361 .      A
C1215 N405  1.349 .      A
C1218 N407  1.369 .      A
C1218 N408  1.366 .      A
N407  C1219 1.344 .      A
C1219 C1220 1.368 .      A
C1219 C1224 1.352 .      A
C1220 C1221 1.382 .      A
C1221 C1222 1.387 .      A
C1222 C1223 1.384 .      A
C1223 C1224 1.372 .      A
C1224 N408  1.345 .      A
C1227 N410  1.376 .      A
C1227 N411  1.359 .      A
N410  C1228 1.353 .      A
C1228 C1229 1.376 .      A
C1228 C1233 1.372 .      A
C1229 C1230 1.381 .      A
C1230 C1231 1.382 .      A
C1231 C1232 1.380 .      A
C1232 C1233 1.376 .      A
C1233 N411  1.356 .      A
C1236 N413  1.395 .      A
C1236 N414  1.386 .      A
N413  C1237 1.352 .      A
C1237 C1238 1.372 .      A
C1237 C1242 1.359 .      A
C1238 C1239 1.386 .      A
C1239 C1240 1.388 .      A
C1240 C1241 1.383 .      A
C1241 C1242 1.367 .      A
C1242 N414  1.338 .      A
C1245 N416  1.390 .      A
C1245 N417  1.391 .      A
N416  C1246 1.354 .      A
C1246 C1247 1.369 .      A
C1246 C1251 1.329 .      A
C1247 C1248 1.374 .      A
C1248 C1249 1.364 .      A
C1249 C1250 1.357 .      A
C1250 C1251 1.350 .      A
C1251 N417  1.326 .      A
C1254 N419  1.377 .      A
C1254 N420  1.377 .      A
N419  C1255 1.336 .      A
C1255 C1256 1.352 .      A
C1255 C1260 1.356 .      A
C1256 C1257 1.380 .      A
C1257 C1258 1.381 .      A
C1258 C1259 1.382 .      A
C1259 C1260 1.382 .      A
C1260 N420  1.359 .      A
C1263 N422  1.381 .      A
C1263 N423  1.385 .      A
N422  C1264 1.356 .      A
C1264 C1265 1.373 .      A
C1264 C1269 1.359 .      A
C1265 C1266 1.383 .      A
C1266 C1267 1.385 .      A
C1267 C1268 1.381 .      A
C1268 C1269 1.360 .      A
C1269 N423  1.338 .      A
C1272 N425  1.380 .      A
C1272 N426  1.379 1_554  A
N425  C1273 1.348 .      A
C1273 C1274 1.369 .      A
C1273 C1278 1.361 .      A
C1274 C1275 1.372 .      A
C1275 C1276 1.376 .      A
C1276 C1277 1.386 .      A
C1277 C1278 1.372 .      A
C1278 N426  1.347 1_554  A
N426  C1272 1.379 1_556  A
N426  C1278 1.347 1_556  A
C1281 N428  1.383 .      A
C1281 N429  1.384 .      A
N428  C1282 1.343 .      A
C1282 C1283 1.368 .      A
C1282 C1287 1.366 .      A
C1283 C1284 1.379 .      A
C1284 C1285 1.373 .      A
C1285 C1286 1.377 .      A
C1286 C1287 1.394 .      A
C1287 N429  1.370 .      A
C1290 N431  1.386 .      A
C1290 N432  1.368 .      A
N431  C1291 1.356 .      A
C1291 C1292 1.374 .      A
C1291 C1296 1.358 .      A
C1292 C1293 1.383 .      A
C1293 C1294 1.384 .      A
C1294 C1295 1.381 .      A
C1295 C1296 1.377 .      A
C1296 N432  1.347 .      A
C1299 N434  1.382 .      A
C1299 N435  1.387 .      A
N434  C1300 1.343 .      A
C1300 C1301 1.362 .      A
C1300 C1305 1.369 .      A
C1301 C1302 1.379 .      A
C1302 C1303 1.381 .      A
C1303 C1304 1.386 .      A
C1304 C1305 1.374 .      A
C1305 N435  1.352 .      A
C1308 N437  1.389 .      A
C1308 N438  1.378 .      A
N437  C1309 1.378 .      A
C1309 C1310 1.388 .      A
C1309 C1314 1.362 .      A
C1310 C1311 1.381 .      A
C1311 C1312 1.375 .      A
C1312 C1313 1.372 .      A
C1313 C1314 1.376 .      A
C1314 N438  1.338 .      A
C1317 N440  1.390 .      A
C1317 N441  1.374 .      A
N440  C1318 1.361 .      A
C1318 C1319 1.387 .      A
C1318 C1323 1.344 .      A
C1319 C1320 1.379 .      A
C1320 C1321 1.385 .      A
C1321 C1322 1.380 .      A
C1322 C1323 1.358 .      A
C1323 N441  1.327 .      A
C1326 N443  1.398 .      A
C1326 N444  1.380 .      A
N443  C1327 1.341 .      A
C1327 C1328 1.370 .      A
C1327 C1332 1.361 .      A
C1328 C1329 1.381 .      A
C1329 C1330 1.385 .      A
C1330 C1331 1.386 .      A
C1331 C1332 1.349 .      A
C1332 N444  1.347 .      A
C1335 N446  1.400 .      A
C1335 N447  1.373 .      A
N446  C1336 1.350 .      A
C1336 C1337 1.372 .      A
C1336 C1341 1.364 .      A
C1337 C1338 1.382 .      A
C1338 C1339 1.387 .      A
C1339 C1340 1.381 .      A
C1340 C1341 1.357 .      A
C1341 N447  1.344 .      A
C1344 N449  1.383 .      A
C1344 N450  1.390 .      A
N449  C1345 1.368 .      A
C1345 C1346 1.379 1_655  A
C1345 C1350 1.361 .      A
C1346 C1345 1.379 1_455  A
C1346 C1347 1.387 .      A
C1347 C1348 1.374 .      A
C1348 C1349 1.369 .      A
C1349 C1350 1.380 1_455  A
C1350 C1349 1.380 1_655  A
C1350 N450  1.338 .      A
C1353 N452  1.375 .      A
C1353 N453  1.386 .      A
N452  C1354 1.341 .      A
C1354 C1355 1.357 .      A
C1354 C1359 1.347 .      A
C1355 C1356 1.382 1_655  A
C1356 C1355 1.382 1_455  A
C1356 C1357 1.382 .      A
C1357 C1358 1.380 1_455  A
C1358 C1357 1.380 1_655  A
C1358 C1359 1.372 .      A
C1359 N453  1.344 .      A
C1362 N455  1.383 .      A
C1362 N456  1.382 .      A
N455  C1363 1.344 .      A
C1363 C1364 1.370 .      A
C1363 C1368 1.341 .      A
C1364 C1365 1.389 .      A
C1365 C1366 1.375 .      A
C1366 C1367 1.355 .      A
C1367 C1368 1.366 .      A
C1368 N456  1.332 .      A
C1371 N458  1.403 .      A
C1371 N459  1.375 .      A
N458  C1372 1.342 .      A
C1372 C1373 1.370 .      A
C1372 C1377 1.340 .      A
C1373 C1374 1.375 .      A
C1374 C1375 1.377 .      A
C1375 C1376 1.377 .      A
C1376 C1377 1.359 .      A
C1377 N459  1.348 .      A
C1380 N461  1.390 .      A
C1380 N462  1.390 1_554  A
N461  C1381 1.350 .      A
C1381 C1382 1.369 .      A
C1381 C1386 1.365 .      A
C1382 C1383 1.379 .      A
C1383 C1384 1.383 .      A
C1384 C1385 1.381 .      A
C1385 C1386 1.362 .      A
C1386 N462  1.342 1_554  A
N462  C1380 1.390 1_556  A
N462  C1386 1.342 1_556  A
C1389 N464  1.393 .      A
C1389 N465  1.389 .      A
N464  C1390 1.343 .      A
C1390 C1391 1.363 .      A
C1390 C1395 1.355 .      A
C1391 C1392 1.377 .      A
C1392 C1393 1.375 .      A
C1393 C1394 1.377 .      A
C1394 C1395 1.358 .      A
C1395 N465  1.345 .      A
C1398 N467  1.357 1_554  A
C1398 N468  1.370 .      A
N467  C1398 1.357 1_556  A
N467  C1399 1.361 1_556  A
C1399 N467  1.361 1_554  A
C1399 C1400 1.377 .      A
C1399 C1404 1.361 .      A
C1400 C1401 1.384 .      A
C1401 C1402 1.385 .      A
C1402 C1403 1.375 .      A
C1403 C1404 1.372 .      A
C1404 N468  1.338 .      A
C1407 N470  1.377 .      A
C1407 N471  1.370 .      A
N470  C1408 1.363 .      A
C1408 C1409 1.377 .      A
C1408 C1413 1.359 .      A
C1409 C1410 1.385 .      A
C1410 C1411 1.384 .      A
C1411 C1412 1.378 .      A
C1412 C1413 1.374 .      A
C1413 N471  1.336 .      A
C1416 N473  1.387 1_556  A
C1416 N474  1.370 .      A
N473  C1416 1.387 1_554  A
N473  C1417 1.370 1_554  A
C1417 N473  1.370 1_556  A
C1417 C1418 1.380 .      A
C1417 C1422 1.353 .      A
C1418 C1419 1.383 .      A
C1419 C1420 1.377 .      A
C1420 C1421 1.369 .      A
C1421 C1422 1.375 .      A
C1422 N474  1.328 .      A
C1425 N476  1.388 .      A
C1425 N477  1.378 .      A
N476  C1426 1.344 .      A
C1426 C1427 1.359 .      A
C1426 C1431 1.357 .      A
C1427 C1428 1.378 .      A
C1428 C1429 1.382 .      A
C1429 C1430 1.380 .      A
C1430 C1431 1.377 .      A
C1431 N477  1.353 .      A
C1434 N479  1.378 .      A
C1434 N480  1.378 .      A
N479  C1435 1.341 .      A
C1435 C1436 1.371 .      A
C1435 C1440 1.365 .      A
C1436 C1437 1.376 .      A
C1437 C1438 1.381 .      A
C1438 C1439 1.382 .      A
C1439 C1440 1.366 .      A
C1440 N480  1.351 .      A
C1443 N482  1.376 .      A
C1443 N483  1.387 .      A
N482  C1444 1.329 .      A
C1444 C1445 1.372 .      A
C1444 C1449 1.334 .      A
C1445 C1446 1.371 .      A
C1446 C1447 1.381 .      A
C1447 C1448 1.381 .      A
C1448 C1449 1.346 .      A
C1449 N483  1.339 .      A
C1452 N485  1.382 .      A
C1452 N486  1.390 .      A
N485  C1453 1.353 .      A
C1453 C1454 1.370 .      A
C1453 C1458 1.358 .      A
C1454 C1455 1.382 .      A
C1455 C1456 1.381 .      A
C1456 C1457 1.378 .      A
C1457 C1458 1.367 .      A
C1458 N486  1.342 .      A
C1461 N488  1.357 .      A
C1461 N489  1.382 .      A
N488  C1462 1.341 .      A
C1462 C1463 1.373 .      A
C1462 C1467 1.352 .      A
C1463 C1464 1.373 .      A
C1464 C1465 1.378 .      A
C1465 C1466 1.372 .      A
C1466 C1467 1.375 .      A
C1467 N489  1.358 .      A
C1470 N491  1.384 .      A
C1470 N492  1.388 .      A
N491  C1471 1.345 .      A
C1471 C1472 1.370 .      A
C1471 C1476 1.366 .      A
C1472 C1473 1.384 .      A
C1473 C1474 1.390 .      A
C1474 C1475 1.385 .      A
C1475 C1476 1.364 .      A
C1476 N492  1.347 .      A
C1479 N494  1.396 .      A
C1479 N495  1.364 1_554  A
N494  C1480 1.369 1_554  A
C1480 N494  1.369 1_556  A
C1480 C1481 1.382 .      A
C1480 C1485 1.349 .      A
C1481 C1482 1.376 .      A
C1482 C1483 1.372 .      A
C1483 C1484 1.372 .      A
C1484 C1485 1.378 .      A
C1485 N495  1.337 .      A
N495  C1479 1.364 1_556  A
C1488 N497  1.363 .      A
C1488 N498  1.373 .      A
N497  C1489 1.354 .      A
C1489 C1490 1.373 .      A
C1489 C1494 1.353 .      A
C1490 C1491 1.384 .      A
C1491 C1492 1.379 .      A
C1492 C1493 1.377 .      A
C1493 C1494 1.373 .      A
C1494 N498  1.341 .      A
C1497 N500  1.390 .      A
C1497 N501  1.392 .      A
N500  C1498 1.351 .      A
C1498 C1499 1.373 .      A
C1498 C1503 1.361 .      A
C1499 C1500 1.379 .      A
C1500 C1501 1.376 .      A
C1501 C1502 1.378 .      A
C1502 C1503 1.369 .      A
C1503 N501  1.350 .      A
C1506 N503  1.376 .      A
C1506 N504  1.373 .      A
N503  C1507 1.347 .      A
C1507 C1508 1.362 .      A
C1507 C1512 1.362 .      A
C1508 C1509 1.382 .      A
C1509 C1510 1.385 .      A
C1510 C1511 1.382 .      A
C1511 C1512 1.372 .      A
C1512 N504  1.347 .      A
C1515 N506  1.378 .      A
C1515 N507  1.384 .      A
N506  C1516 1.346 .      A
C1516 C1517 1.367 .      A
C1516 C1521 1.364 .      A
C1517 C1518 1.382 .      A
C1518 C1519 1.386 .      A
C1519 C1520 1.384 .      A
C1520 C1521 1.375 .      A
C1521 N507  1.345 .      A
C1524 N509  1.388 .      A
C1524 N510  1.392 .      A
N509  C1525 1.345 .      A
C1525 C1526 1.369 .      A
C1525 C1530 1.365 .      A
C1526 C1527 1.382 .      A
C1527 C1528 1.387 .      A
C1528 C1529 1.381 .      A
C1529 C1530 1.376 .      A
C1530 N510  1.350 .      A
C1533 N512  1.383 .      A
C1533 N513  1.388 .      A
N512  C1534 1.343 .      A
C1534 C1535 1.369 1_655  A
C1534 C1539 1.346 .      A
C1535 C1534 1.369 1_455  A
C1535 C1536 1.370 .      A
C1536 C1537 1.371 .      A
C1537 C1538 1.380 .      A
C1538 C1539 1.376 1_455  A
C1539 C1538 1.376 1_655  A
C1539 N513  1.356 .      A
C1542 N515  1.370 .      A
C1542 N516  1.380 .      A
N515  C1543 1.352 .      A
C1543 C1544 1.368 .      A
C1543 C1548 1.360 .      A
C1544 C1545 1.380 1_655  A
C1545 C1544 1.380 1_455  A
C1545 C1546 1.367 .      A
C1546 C1547 1.372 .      A
C1547 C1548 1.375 1_455  A
C1548 C1547 1.375 1_655  A
C1548 N516  1.353 .      A
C1551 N518  1.382 .      A
C1551 N519  1.379 .      A
N518  C1552 1.351 .      A
C1552 C1553 1.373 .      A
C1552 C1557 1.365 .      A
C1553 C1554 1.376 .      A
C1554 C1555 1.375 .      A
C1555 C1556 1.379 .      A
C1556 C1557 1.373 .      A
C1557 N519  1.355 .      A
C1560 N521  1.379 .      A
C1560 N522  1.379 .      A
N521  C1561 1.351 .      A
C1561 C1562 1.359 .      A
C1561 C1566 1.365 .      A
C1562 C1563 1.386 .      A
C1563 C1564 1.378 .      A
C1564 C1565 1.374 .      A
C1565 C1566 1.374 .      A
C1566 N522  1.346 .      A
C1569 N524  1.365 .      A
C1569 N525  1.370 .      A
N524  C1570 1.339 .      A
C1570 C1571 1.371 .      A
C1570 C1575 1.356 .      A
C1571 C1572 1.382 .      A
C1572 C1573 1.387 .      A
C1573 C1574 1.384 .      A
C1574 C1575 1.370 .      A
C1575 N525  1.351 .      A
C1578 N527  1.373 .      A
C1578 N528  1.373 .      A
N527  C1579 1.344 .      A
C1579 C1580 1.376 .      A
C1579 C1584 1.361 .      A
C1580 C1581 1.376 .      A
C1581 C1582 1.381 .      A
C1582 C1583 1.383 .      A
C1583 C1584 1.377 .      A
C1584 N528  1.358 .      A
C1587 N530  1.376 .      A
C1587 N531  1.375 .      A
N530  C1588 1.358 .      A
C1588 C1589 1.377 .      A
C1588 C1593 1.362 .      A
C1589 C1590 1.383 .      A
C1590 C1591 1.381 .      A
C1591 C1592 1.378 .      A
C1592 C1593 1.376 .      A
C1593 N531  1.345 .      A
C1596 N533  1.371 .      A
C1596 N534  1.390 .      A
N533  C1597 1.350 .      A
C1597 C1598 1.372 .      A
C1597 C1602 1.369 .      A
C1598 C1599 1.384 .      A
C1599 C1600 1.389 .      A
C1600 C1601 1.383 .      A
C1601 C1602 1.372 .      A
C1602 N534  1.345 .      A
C1605 N536  1.399 .      A
C1605 N537  1.381 .      A
N536  C1606 1.366 .      A
C1606 C1607 1.375 .      A
C1606 C1611 1.369 .      A
C1607 C1608 1.380 .      A
C1608 C1609 1.376 .      A
C1609 C1610 1.376 .      A
C1610 C1611 1.377 .      A
C1611 N537  1.344 .      A
C1614 N539  1.378 .      A
C1614 N540  1.375 .      A
N539  C1615 1.334 .      A
C1615 C1616 1.371 .      A
C1615 C1620 1.363 .      A
C1616 C1617 1.370 .      A
C1617 C1618 1.373 .      A
C1618 C1619 1.380 .      A
C1619 C1620 1.392 .      A
C1620 N540  1.379 .      A
C1623 N542  1.389 .      A
C1623 N543  1.381 .      A
N542  C1624 1.357 .      A
C1624 C1625 1.376 .      A
C1624 C1629 1.360 .      A
C1625 C1626 1.378 .      A
C1626 C1627 1.376 .      A
C1627 C1628 1.378 .      A
C1628 C1629 1.374 .      A
C1629 N543  1.351 .      A
C1632 N545  1.402 .      A
C1632 N546  1.386 .      A
N545  C1633 1.363 .      A
C1633 C1634 1.380 .      A
C1633 C1638 1.372 .      A
C1634 C1635 1.385 .      A
C1635 C1636 1.381 .      A
C1636 C1637 1.379 .      A
C1637 C1638 1.376 .      A
C1638 N546  1.350 .      A
C1641 N548  1.395 .      A
C1641 N549  1.386 .      A
N548  C1642 1.357 .      A
C1642 C1643 1.377 1_554  A
C1642 C1647 1.369 .      A
C1643 C1642 1.377 1_556  A
C1643 C1644 1.384 .      A
C1644 C1645 1.387 .      A
C1645 C1646 1.379 1_556  A
C1646 C1645 1.379 1_554  A
C1646 C1647 1.357 .      A
C1647 N549  1.340 .      A
C1650 N551  1.381 1_556  A
C1650 N552  1.377 .      A
N551  C1650 1.381 1_554  A
N551  C1651 1.345 .      A
C1651 C1652 1.365 .      A
C1651 C1656 1.360 .      A
C1652 C1653 1.383 .      A
C1653 C1654 1.384 .      A
C1654 C1655 1.371 .      A
C1655 C1656 1.368 .      A
C1656 N552  1.345 1_554  A
N552  C1656 1.345 1_556  A
C1659 N554  1.380 .      A
C1659 N555  1.388 .      A
N554  C1660 1.339 .      A
C1660 C1661 1.377 .      A
C1660 C1665 1.366 .      A
C1661 C1662 1.375 .      A
C1662 C1663 1.380 .      A
C1663 C1664 1.383 .      A
C1664 C1665 1.387 .      A
C1665 N555  1.370 .      A
C1668 N557  1.411 .      A
C1668 N558  1.388 .      A
N557  C1669 1.348 1_655  A
C1669 N557  1.348 1_455  A
C1669 C1670 1.372 .      A
C1669 C1674 1.342 1_455  A
C1670 C1671 1.385 .      A
C1671 C1672 1.378 .      A
C1672 C1673 1.380 1_455  A
C1673 C1672 1.380 1_655  A
C1673 C1674 1.353 .      A
C1674 C1669 1.342 1_655  A
C1674 N558  1.335 .      A
C1677 N560  1.380 .      A
C1677 N561  1.382 .      A
N560  C1678 1.354 .      A
C1678 C1679 1.373 .      A
C1678 C1683 1.360 .      A
C1679 C1680 1.385 .      A
C1680 C1681 1.387 .      A
C1681 C1682 1.383 .      A
C1682 C1683 1.367 .      A
C1683 N561  1.342 .      A
C1686 N563  1.375 .      A
C1686 N564  1.369 .      A
N563  C1687 1.350 .      A
C1687 C1688 1.374 .      A
C1687 C1692 1.378 .      A
C1688 C1689 1.384 .      A
C1689 C1690 1.390 .      A
C1690 C1691 1.386 .      A
C1691 C1692 1.371 .      A
C1692 N564  1.355 .      A
C1695 N566  1.376 .      A
C1695 N567  1.378 .      A
N566  C1696 1.346 .      A
C1696 C1697 1.376 .      A
C1696 C1701 1.362 .      A
C1697 C1698 1.381 .      A
C1698 C1699 1.384 .      A
C1699 C1700 1.383 .      A
C1700 C1701 1.375 .      A
C1701 N567  1.356 .      A
C1704 N569  1.376 .      A
C1704 N570  1.378 .      A
N569  C1705 1.359 .      A
C1705 C1706 1.378 .      A
C1705 C1710 1.367 .      A
C1706 C1707 1.381 .      A
C1707 C1708 1.381 .      A
C1708 C1709 1.378 .      A
C1709 C1710 1.375 .      A
C1710 N570  1.348 .      A
C1713 N572  1.373 .      A
C1713 N573  1.386 .      A
N572  C1714 1.358 .      A
C1714 C1715 1.377 .      A
C1714 C1719 1.359 .      A
C1715 C1716 1.380 .      A
C1716 C1717 1.380 .      A
C1717 C1718 1.379 .      A
C1718 C1719 1.379 .      A
C1719 N573  1.350 .      A
C1722 N575  1.366 .      A
C1722 N576  1.389 .      A
N575  C1723 1.336 .      A
C1723 C1724 1.367 .      A
C1723 C1728 1.350 .      A
C1724 C1725 1.380 .      A
C1725 C1726 1.384 .      A
C1726 C1727 1.380 .      A
C1727 C1728 1.362 .      A
C1728 N576  1.352 .      A
C1731 N578  1.375 .      A
C1731 N579  1.397 1_565  A
N578  C1732 1.347 1_565  A
C1732 N578  1.347 1_545  A
C1732 C1733 1.372 .      A
C1732 C1737 1.351 .      A
C1733 C1734 1.383 .      A
C1734 C1735 1.387 .      A
C1735 C1736 1.385 .      A
C1736 C1737 1.370 .      A
C1737 N579  1.349 .      A
N579  C1731 1.397 1_545  A
C1740 N581  1.387 1_545  A
C1740 N582  1.391 .      A
N581  C1740 1.387 1_565  A
N581  C1741 1.357 1_565  A
C1741 N581  1.357 1_545  A
C1741 C1742 1.373 .      A
C1741 C1746 1.372 .      A
C1742 C1743 1.379 .      A
C1743 C1744 1.380 .      A
C1744 C1745 1.380 .      A
C1745 C1746 1.383 .      A
C1746 N582  1.357 .      A
C1749 N584  1.370 .      A
C1749 N585  1.368 .      A
N584  C1750 1.336 .      A
C1750 C1751 1.371 .      A
C1750 C1755 1.355 .      A
C1751 C1752 1.380 .      A
C1752 C1753 1.386 .      A
C1753 C1754 1.385 .      A
C1754 C1755 1.374 .      A
C1755 N585  1.358 .      A
C1758 N587  1.370 1_556  A
C1758 N588  1.373 .      A
N587  C1758 1.370 1_554  A
N587  C1759 1.351 .      A
C1759 C1760 1.377 .      A
C1759 C1764 1.355 .      A
C1760 C1761 1.381 .      A
C1761 C1762 1.383 .      A
C1762 C1763 1.380 .      A
C1763 C1764 1.375 .      A
C1764 N588  1.349 1_554  A
N588  C1764 1.349 1_556  A
C1767 N590  1.375 .      A
C1767 N591  1.380 .      A
N590  C1768 1.348 .      A
C1768 C1769 1.374 .      A
C1768 C1773 1.361 .      A
C1769 C1770 1.378 .      A
C1770 C1771 1.378 .      A
C1771 C1772 1.379 .      A
C1772 C1773 1.375 .      A
C1773 N591  1.353 .      A
C1776 N593  1.385 .      A
C1776 N594  1.395 .      A
N593  C1777 1.342 .      A
C1777 C1778 1.375 .      A
C1777 C1782 1.358 .      A
C1778 C1779 1.373 .      A
C1779 C1780 1.379 .      A
C1780 C1781 1.382 .      A
C1781 C1782 1.377 .      A
C1782 N594  1.359 .      A
C1785 N596  1.370 .      A
C1785 N597  1.373 .      A
N596  C1786 1.341 .      A
C1786 C1787 1.371 .      A
C1786 C1791 1.354 .      A
C1787 C1788 1.383 .      A
C1788 C1789 1.387 .      A
C1789 C1790 1.381 .      A
C1790 C1791 1.367 .      A
C1791 N597  1.346 .      A
C1794 N599  1.361 .      A
C1794 N600  1.362 .      A
N599  C1795 1.349 .      A
C1795 C1796 1.375 .      A
C1795 C1800 1.350 .      A
C1796 C1797 1.388 .      A
C1797 C1798 1.389 .      A
C1798 C1799 1.384 .      A
C1799 C1800 1.378 .      A
C1800 N600  1.347 .      A
C1803 N602  1.387 .      A
C1803 N603  1.379 .      A
N602  C1804 1.336 .      A
C1804 C1805 1.366 .      A
C1804 C1809 1.354 .      A
C1805 C1806 1.371 .      A
C1806 C1807 1.379 .      A
C1807 C1808 1.386 .      A
C1808 C1809 1.362 .      A
C1809 N603  1.347 .      A
C1812 N605  1.375 .      A
C1812 N606  1.363 .      A
N605  C1813 1.337 .      A
C1813 C1814 1.367 .      A
C1813 C1818 1.354 .      A
C1814 C1815 1.375 .      A
C1815 C1816 1.379 .      A
C1816 C1817 1.379 .      A
C1817 C1818 1.390 .      A
C1818 N606  1.372 .      A
C1821 N608  1.376 .      A
C1821 N609  1.389 .      A
N608  C1822 1.354 .      A
C1822 C1823 1.376 .      A
C1822 C1827 1.356 .      A
C1823 C1824 1.382 1_655  A
C1824 C1823 1.382 1_455  A
C1824 C1825 1.387 .      A
C1825 C1826 1.378 1_455  A
C1826 C1825 1.378 1_655  A
C1826 C1827 1.369 .      A
C1827 N609  1.338 .      A
C1830 N611  1.362 .      A
C1830 N612  1.361 .      A
N611  C1831 1.361 .      A
C1831 C1832 1.380 .      A
C1831 C1836 1.366 .      A
C1832 C1833 1.378 .      A
C1833 C1834 1.376 .      A
C1834 C1835 1.373 .      A
C1835 C1836 1.368 .      A
C1836 N612  1.350 .      A
C1839 N614  1.386 .      A
C1839 N615  1.396 .      A
N614  C1840 1.342 .      A
C1840 C1841 1.374 .      A
C1840 C1845 1.361 .      A
C1841 C1842 1.378 .      A
C1842 C1843 1.383 1_556  A
C1843 C1842 1.383 1_554  A
C1843 C1844 1.383 .      A
C1844 C1845 1.372 1_554  A
C1845 C1844 1.372 1_556  A
C1845 N615  1.352 .      A
C1848 N617  1.384 1_554  A
C1848 N618  1.390 .      A
N617  C1848 1.384 1_556  A
N617  C1849 1.382 .      A
C1849 C1850 1.367 .      A
C1849 C1854 1.326 1_556  A
C1850 C1851 1.370 .      A
C1851 C1852 1.344 .      A
C1852 C1853 1.357 1_556  A
C1853 C1852 1.357 1_554  A
C1853 C1854 1.391 .      A
C1854 C1849 1.326 1_554  A
C1854 N618  1.327 .      A
C1857 N620  1.373 1_545  A
C1857 N621  1.380 .      A
N620  C1857 1.373 1_565  A
N620  C1858 1.350 .      A
C1858 C1859 1.371 .      A
C1858 C1863 1.358 1_565  A
C1859 C1860 1.381 1_565  A
C1860 C1859 1.381 1_545  A
C1860 C1861 1.386 .      A
C1861 C1862 1.381 .      A
C1862 C1863 1.372 .      A
C1863 C1858 1.358 1_545  A
C1863 N621  1.343 .      A
C1866 N623  1.385 .      A
C1866 N624  1.369 .      A
N623  C1867 1.340 .      A
C1867 C1868 1.360 .      A
C1867 C1872 1.355 .      A
C1868 C1869 1.371 .      A
C1869 C1870 1.382 .      A
C1870 C1871 1.384 .      A
C1871 C1872 1.368 .      A
C1872 N624  1.346 .      A
C1875 N626  1.380 .      A
C1875 N627  1.380 .      A
N626  C1876 1.346 .      A
C1876 C1877 1.374 .      A
C1876 C1881 1.362 .      A
C1877 C1878 1.377 .      A
C1878 C1879 1.382 .      A
C1879 C1880 1.382 .      A
C1880 C1881 1.363 .      A
C1881 N627  1.349 .      A
C1884 N629  1.382 .      A
C1884 N630  1.365 .      A
N629  C1885 1.348 .      A
C1885 C1886 1.371 .      A
C1885 C1890 1.368 .      A
C1886 C1887 1.384 .      A
C1887 C1888 1.388 .      A
C1888 C1889 1.384 .      A
C1889 C1890 1.372 .      A
C1890 N630  1.347 .      A
C1893 N632  1.381 .      A
C1893 N633  1.406 .      A
N632  C1894 1.335 .      A
C1894 C1895 1.365 .      A
C1894 C1899 1.346 .      A
C1895 C1896 1.375 .      A
C1896 C1897 1.381 .      A
C1897 C1898 1.379 .      A
C1898 C1899 1.370 .      A
C1899 N633  1.353 .      A
C1902 N635  1.415 .      A
C1902 N636  1.398 .      A
N635  C1903 1.345 .      A
C1903 C1904 1.354 .      A
C1903 C1908 1.334 .      A
C1904 C1905 1.377 .      A
C1905 C1906 1.371 .      A
C1906 C1907 1.374 .      A
C1907 C1908 1.354 .      A
C1908 N636  1.336 .      A
C1911 N638  1.390 1_545  A
C1911 N639  1.376 .      A
N638  C1911 1.390 1_565  A
N638  C1912 1.339 1_565  A
C1912 N638  1.339 1_545  A
C1912 C1913 1.359 1_545  A
C1912 C1917 1.363 .      A
C1913 C1912 1.359 1_565  A
C1913 C1914 1.377 1_564  A
C1914 C1913 1.377 1_546  A
C1914 C1915 1.385 .      A
C1915 C1916 1.378 .      A
C1916 C1917 1.366 1_556  A
C1917 C1916 1.366 1_554  A
C1917 N639  1.349 .      A
C1920 N641  1.376 .      A
C1920 N642  1.372 .      A
N641  C1921 1.356 .      A
C1921 C1922 1.380 .      A
C1921 C1926 1.364 .      A
C1922 C1923 1.388 .      A
C1923 C1924 1.391 .      A
C1924 C1925 1.383 .      A
C1925 C1926 1.374 .      A
C1926 N642  1.346 .      A
C1929 N644  1.379 .      A
C1929 N645  1.374 .      A
N644  C1930 1.357 .      A
C1930 C1931 1.378 .      A
C1930 C1935 1.359 .      A
C1931 C1932 1.382 .      A
C1932 C1933 1.378 .      A
C1933 C1934 1.378 .      A
C1934 C1935 1.366 .      A
C1935 N645  1.341 .      A
C1938 N647  1.386 .      A
C1938 N648  1.394 .      A
N647  C1939 1.354 .      A
C1939 C1940 1.371 .      A
C1939 C1944 1.371 .      A
C1940 C1941 1.382 .      A
C1941 C1942 1.381 .      A
C1942 C1943 1.378 .      A
C1943 C1944 1.358 .      A
C1944 N648  1.341 .      A
