data_str_m1_o12004_WEI
_audit_creation_date              2015-10-01T06:34:06-0700
_symmetry_space_group_name_H-M    P1
_symmetry_Int_Tables_number       1
_space_group_crystal_system       triclinic
loop_
_symmetry_equiv_pos_as_xyz
  x,y,z
_cell_length_a                    16.6320059
_cell_length_b                    16.8764161
_cell_length_c                    20.8540486
_cell_angle_alpha                 82.8691722
_cell_angle_beta                  97.1530942
_cell_angle_gamma                 109.329978
_cell_volume                      5458.99707889

loop_
_atom_site_label
_atom_site_type_symbol
_atom_site_description
_atom_site_fract_x
_atom_site_fract_y
_atom_site_fract_z
_atom_type_partial_charge
Zn1   Zn    Zn3+2 0.558842 0.745392 0.090387 0.000000
Zn2   Zn    Zn3+2 0.530688 0.723781 0.592961 0.000000
Zn3   Zn    Zn3+2 0.426651 0.031229 0.478131 0.000000
Zn4   Zn    Zn3+2 0.835473 0.611434 0.720219 0.000000
Zn5   Zn    Zn3+2 0.592413 0.414935 0.517569 0.000000
Zn6   Zn    Zn3+2 0.232581 0.797720 0.692300 0.000000
Zn7   Zn    Zn3+2 0.492384 0.046237 0.191944 0.000000
Zn8   Zn    Zn3+2 0.866052 0.673302 0.015001 0.000000
Zn9   Zn    Zn3+2 0.648721 0.439218 0.217844 0.000000
Zn10  Zn    Zn3+2 0.254921 0.855863 0.985406 0.000000
C1    C     C_3   0.299608 0.796134 0.385916 0.000000
N1    N     N_3   0.338479 0.832550 0.446554 0.000000
C2    C     C_3   0.425989 0.832066 0.455922 0.000000
C3    C     C_R   0.475964 0.871900 0.513681 0.000000
N2    N     N_R   0.503700 0.958532 0.507398 0.000000
C4    C     C_R   0.588469 0.977523 0.521189 0.000000
C5    C     C_R   0.648648 0.052026 0.505885 0.000000
C6    C     C_R   0.734119 0.058750 0.516285 0.000000
C7    C     C_R   0.756993 0.988074 0.538261 0.000000
C8    C     C_R   0.694403 0.911272 0.548484 0.000000
C9    C     C_R   0.609888 0.907250 0.540760 0.000000
N3    N     N_R   0.539106 0.838671 0.541025 0.000000
H1    H     H_    0.229106 0.776891 0.384768 0.000000
H2    H     H_    0.320785 0.843361 0.344457 0.000000
H3    H     H_    0.316404 0.739027 0.381588 0.000000
H4    H     H_    0.304487 0.793745 0.483237 0.000000
H5    H     H_    0.429960 0.768585 0.460201 0.000000
H6    H     H_    0.459246 0.868408 0.413898 0.000000
H7    H     H_    0.627443 0.101119 0.481623 0.000000
H8    H     H_    0.782895 0.118047 0.504852 0.000000
H9    H     H_    0.823680 0.992054 0.544553 0.000000
H10   H     H_    0.713317 0.857066 0.561084 0.000000
C10   C     C_3   0.776467 0.775689 0.488924 0.000000
N4    N     N_3   0.699668 0.725825 0.520186 0.000000
C11   C     C_3   0.722810 0.669022 0.571655 0.000000
C12   C     C_R   0.704094 0.684011 0.636236 0.000000
N5    N     N_R   0.771071 0.695272 0.683616 0.000000
C13   C     C_R   0.773860 0.766741 0.706834 0.000000
C14   C     C_R   0.839340 0.816073 0.744984 0.000000
C15   C     C_R   0.837396 0.895015 0.754027 0.000000
C16   C     C_R   0.767430 0.920127 0.728851 0.000000
C17   C     C_R   0.700098 0.867605 0.692314 0.000000
C18   C     C_R   0.705807 0.791215 0.680426 0.000000
N6    N     N_R   0.654803 0.735008 0.639214 0.000000
H11   H     H_    0.759441 0.818564 0.448812 0.000000
H12   H     H_    0.824400 0.814464 0.524168 0.000000
H13   H     H_    0.804287 0.734094 0.468565 0.000000
H14   H     H_    0.657878 0.689027 0.485651 0.000000
H15   H     H_    0.690179 0.604326 0.559738 0.000000
H16   H     H_    0.792725 0.681561 0.575171 0.000000
H17   H     H_    0.893390 0.795825 0.762923 0.000000
H18   H     H_    0.891293 0.937668 0.780078 0.000000
H19   H     H_    0.766017 0.981621 0.737109 0.000000
H20   H     H_    0.646284 0.887814 0.672423 0.000000
C19   C     C_3   0.458824 0.464604 0.723520 0.000000
N7    N     N_3   0.470081 0.462839 0.655765 0.000000
C20   C     C_3   0.541143 0.536677 0.637749 0.000000
C21   C     C_R   0.534373 0.557386 0.566114 0.000000
N8    N     N_R   0.529457 0.500589 0.522405 0.000000
C22   C     C_R   0.471838 0.516073 0.475939 0.000000
C23   C     C_R   0.424194 0.461318 0.431637 0.000000
C24   C     C_R   0.349967 0.473383 0.401964 0.000000
C25   C     C_R   0.328883 0.542954 0.412564 0.000000
C26   C     C_R   0.379508 0.599086 0.455598 0.000000
C27   C     C_R   0.451449 0.584714 0.487835 0.000000
N9    N     N_R   0.497592 0.617617 0.542308 0.000000
H21   H     H_    0.418192 0.401523 0.742324 0.000000
H22   H     H_    0.521743 0.481368 0.752454 0.000000
H23   H     H_    0.426737 0.511536 0.727978 0.000000
H24   H     H_    0.414943 0.469748 0.629220 0.000000
H25   H     H_    0.536739 0.590251 0.661101 0.000000
H26   H     H_    0.602057 0.526759 0.654955 0.000000
H27   H     H_    0.439576 0.405807 0.424763 0.000000
H28   H     H_    0.305614 0.425789 0.373515 0.000000
H29   H     H_    0.269341 0.550534 0.390220 0.000000
H30   H     H_    0.354577 0.644539 0.468363 0.000000
C28   C     C_3   0.195572 0.559214 0.547808 0.000000
N10   N     N_3   0.267492 0.587991 0.596057 0.000000
C29   C     C_3   0.298107 0.679590 0.588747 0.000000
C30   C     C_R   0.355632 0.712237 0.645877 0.000000
N11   N     N_R   0.333330 0.752019 0.691581 0.000000
C31   C     C_R   0.406187 0.774175 0.731280 0.000000
C32   C     C_R   0.434122 0.837866 0.771919 0.000000
C33   C     C_R   0.517393 0.858460 0.799422 0.000000
C34   C     C_R   0.567865 0.810855 0.791489 0.000000
C35   C     C_R   0.540180 0.750540 0.748188 0.000000
C36   C     C_R   0.464053 0.742250 0.713406 0.000000
N12   N     N_R   0.438542 0.710275 0.656123 0.000000
H31   H     H_    0.181663 0.490961 0.543833 0.000000
H32   H     H_    0.138200 0.569450 0.562514 0.000000
H33   H     H_    0.210803 0.594319 0.499971 0.000000
H34   H     H_    0.316421 0.566991 0.585699 0.000000
H35   H     H_    0.336848 0.700865 0.547694 0.000000
H36   H     H_    0.243419 0.704094 0.582889 0.000000
H37   H     H_    0.396246 0.875344 0.779627 0.000000
H38   H     H_    0.543528 0.911716 0.827500 0.000000
H39   H     H_    0.631663 0.825141 0.814973 0.000000
H40   H     H_    0.577551 0.711965 0.740942 0.000000
C37   C     C_3   0.691448 0.168977 0.630989 0.000000
N13   N     N_3   0.608711 0.151857 0.593399 0.000000
C38   C     C_3   0.614476 0.220766 0.543077 0.000000
C39   C     C_R   0.528606 0.223098 0.515438 0.000000
N14   N     N_R   0.456758 0.153173 0.506351 0.000000
C40   C     C_R   0.392746 0.184882 0.512174 0.000000
C41   C     C_R   0.306006 0.144080 0.513995 0.000000
C42   C     C_R   0.253983 0.188323 0.526677 0.000000
C43   C     C_R   0.288564 0.271642 0.539829 0.000000
C44   C     C_R   0.375194 0.311821 0.538210 0.000000
C45   C     C_R   0.425011 0.268237 0.521508 0.000000
N15   N     N_R   0.510133 0.295329 0.519869 0.000000
H41   H     H_    0.695732 0.110007 0.659052 0.000000
H42   H     H_    0.743727 0.192895 0.598354 0.000000
H43   H     H_    0.698394 0.216519 0.665320 0.000000
H44   H     H_    0.566299 0.154439 0.625122 0.000000
H45   H     H_    0.645161 0.279464 0.566483 0.000000
H46   H     H_    0.654407 0.220974 0.504954 0.000000
H47   H     H_    0.276439 0.079475 0.506385 0.000000
H48   H     H_    0.186059 0.156680 0.528318 0.000000
H49   H     H_    0.247987 0.304859 0.552356 0.000000
H50   H     H_    0.402519 0.374628 0.552292 0.000000
C46   C     C_3   0.381160 0.083967 0.670083 0.000000
N16   N     N_3   0.400183 0.005432 0.687272 0.000000
C47   C     C_3   0.409385 0.969577 0.629807 0.000000
C48   C     C_R   0.326415 0.937667 0.589363 0.000000
N17   N     N_R   0.253115 0.877342 0.610013 0.000000
C49   C     C_R   0.201207 0.864229 0.554412 0.000000
C50   C     C_R   0.127968 0.797932 0.542493 0.000000
C51   C     C_R   0.086053 0.793628 0.481052 0.000000
C52   C     C_R   0.122293 0.849859 0.430794 0.000000
C53   C     C_R   0.202258 0.907834 0.441648 0.000000
C54   C     C_R   0.240315 0.915453 0.503975 0.000000
N18   N     N_R   0.321440 0.960190 0.523931 0.000000
H51   H     H_    0.375530 0.109718 0.715109 0.000000
H52   H     H_    0.432980 0.130967 0.644532 0.000000
H53   H     H_    0.319945 0.073166 0.639530 0.000000
H54   H     H_    0.348349 0.962857 0.708675 0.000000
H55   H     H_    0.455368 0.018395 0.600270 0.000000
H56   H     H_    0.435794 0.917328 0.644412 0.000000
H57   H     H_    0.104604 0.747207 0.578084 0.000000
H58   H     H_    0.027301 0.743271 0.471412 0.000000
H59   H     H_    0.092093 0.842844 0.381912 0.000000
H60   H     H_    0.235963 0.938328 0.401003 0.000000
C55   C     C_3   0.694981 0.149710 0.362731 0.000000
N19   N     N_3   0.603555 0.132041 0.364885 0.000000
C56   C     C_3   0.559129 0.046300 0.348339 0.000000
C57   C     C_R   0.466367 0.034414 0.334178 0.000000
N20   N     N_R   0.413683 0.040748 0.378012 0.000000
C58   C     C_R   0.347153 0.052872 0.338287 0.000000
C59   C     C_R   0.284911 0.083341 0.352375 0.000000
C60   C     C_R   0.223324 0.092258 0.303674 0.000000
C61   C     C_R   0.226321 0.073399 0.241456 0.000000
C62   C     C_R   0.293253 0.049428 0.226742 0.000000
C63   C     C_R   0.354598 0.042505 0.275877 0.000000
N21   N     N_R   0.430488 0.032287 0.271438 0.000000
H61   H     H_    0.710604 0.090650 0.363132 0.000000
H62   H     H_    0.716707 0.191987 0.319193 0.000000
H63   H     H_    0.729554 0.182788 0.405467 0.000000
H64   H     H_    0.584151 0.173096 0.329699 0.000000
H65   H     H_    0.583259 0.036540 0.303796 0.000000
H66   H     H_    0.569839 0.999863 0.387691 0.000000
H67   H     H_    0.282294 0.098077 0.400031 0.000000
H68   H     H_    0.172421 0.113832 0.314260 0.000000
H69   H     H_    0.177787 0.080574 0.203829 0.000000
H70   H     H_    0.297144 0.038929 0.177644 0.000000
C64   C     C_3   0.881476 0.586863 0.473696 0.000000
N22   N     N_3   0.809641 0.571300 0.512117 0.000000
C65   C     C_3   0.827888 0.528007 0.573739 0.000000
C66   C     C_R   0.752953 0.493973 0.614168 0.000000
N23   N     N_R   0.764984 0.505708 0.679013 0.000000
C67   C     C_R   0.701903 0.441125 0.704670 0.000000
C68   C     C_R   0.681309 0.424148 0.767963 0.000000
C69   C     C_R   0.610818 0.355722 0.782761 0.000000
C70   C     C_R   0.559438 0.309172 0.734302 0.000000
C71   C     C_R   0.577805 0.330602 0.670525 0.000000
C72   C     C_R   0.651037 0.395806 0.656703 0.000000
N24   N     N_R   0.678689 0.430180 0.597969 0.000000
H71   H     H_    0.942036 0.598488 0.505534 0.000000
H72   H     H_    0.872198 0.532007 0.446256 0.000000
H73   H     H_    0.886065 0.643101 0.438982 0.000000
H74   H     H_    0.755185 0.532549 0.488431 0.000000
H75   H     H_    0.851741 0.476321 0.565986 0.000000
H76   H     H_    0.879148 0.573767 0.601388 0.000000
H77   H     H_    0.717698 0.461745 0.805784 0.000000
H78   H     H_    0.594095 0.339292 0.832083 0.000000
H79   H     H_    0.503310 0.256997 0.746255 0.000000
H80   H     H_    0.535310 0.294812 0.634341 0.000000
C73   C     C_3   0.027441 0.934319 0.623931 0.000000
N25   N     N_3   0.047363 0.872611 0.672950 0.000000
C74   C     C_3   0.996683 0.790337 0.653569 0.000000
C75   C     C_R   0.024917 0.720137 0.689269 0.000000
N26   N     N_R   0.106816 0.713460 0.691165 0.000000
C76   C     C_R   0.090526 0.629209 0.699100 0.000000
C77   C     C_R   0.147498 0.585321 0.702849 0.000000
C78   C     C_R   0.116003 0.498320 0.705426 0.000000
C79   C     C_R   0.028717 0.457067 0.703037 0.000000
C80   C     C_R   0.972555 0.502195 0.701228 0.000000
C81   C     C_R   0.005424 0.588332 0.702576 0.000000
N27   N     N_R   0.962347 0.643949 0.700255 0.000000
H81   H     H_    0.051271 0.997396 0.642567 0.000000
H82   H     H_    0.058721 0.936940 0.579408 0.000000
H83   H     H_    0.957231 0.917389 0.612261 0.000000
H84   H     H_    0.025236 0.879961 0.715714 0.000000
H85   H     H_    0.929726 0.778261 0.662086 0.000000
H86   H     H_    0.995832 0.788947 0.600801 0.000000
H87   H     H_    0.214997 0.616655 0.705187 0.000000
H88   H     H_    0.159615 0.462441 0.708012 0.000000
H89   H     H_    0.004384 0.389266 0.702517 0.000000
H90   H     H_    0.904905 0.469872 0.696107 0.000000
C82   C     C_3   0.599544 0.636967 0.881078 0.000000
N28   N     N_3   0.677371 0.615207 0.896879 0.000000
C83   C     C_3   0.738934 0.663446 0.851354 0.000000
C84   C     C_R   0.816347 0.636783 0.865293 0.000000
N29   N     N_R   0.847885 0.620244 0.928315 0.000000
C85   C     C_R   0.880091 0.558302 0.922761 0.000000
C86   C     C_R   0.914501 0.513556 0.971769 0.000000
C87   C     C_R   0.939927 0.449103 0.955341 0.000000
C88   C     C_R   0.927844 0.429226 0.891477 0.000000
C89   C     C_R   0.893366 0.475635 0.843113 0.000000
C90   C     C_R   0.873126 0.542411 0.859580 0.000000
N30   N     N_R   0.837209 0.594440 0.820878 0.000000
H91   H     H_    0.614594 0.705408 0.880884 0.000000
H92   H     H_    0.568367 0.614159 0.833757 0.000000
H93   H     H_    0.554912 0.607181 0.918548 0.000000
H94   H     H_    0.661582 0.552147 0.887965 0.000000
H95   H     H_    0.710397 0.647587 0.801951 0.000000
H96   H     H_    0.754822 0.731559 0.854469 0.000000
H97   H     H_    0.922334 0.528271 0.021464 0.000000
H98   H     H_    0.966957 0.412445 0.992679 0.000000
H99   H     H_    0.943849 0.376002 0.879630 0.000000
H100  H     H_    0.876126 0.455102 0.795469 0.000000
C91   C     C_3   0.716033 0.653951 0.350737 0.000000
N31   N     N_3   0.645011 0.599825 0.312410 0.000000
C92   C     C_3   0.593796 0.533114 0.355989 0.000000
C93   C     C_R   0.623911 0.458324 0.366451 0.000000
N32   N     N_R   0.662190 0.435499 0.319595 0.000000
C94   C     C_R   0.714396 0.397880 0.356100 0.000000
C95   C     C_R   0.781661 0.380342 0.336391 0.000000
C96   C     C_R   0.836207 0.353159 0.382572 0.000000
C97   C     C_R   0.823598 0.345700 0.447735 0.000000
C98   C     C_R   0.757632 0.367338 0.467008 0.000000
C99   C     C_R   0.703372 0.392873 0.420211 0.000000
N33   N     N_R   0.643857 0.427732 0.428901 0.000000
H101  H     H_    0.765297 0.692601 0.318847 0.000000
H102  H     H_    0.693301 0.696435 0.374724 0.000000
H103  H     H_    0.744835 0.615509 0.387000 0.000000
H104  H     H_    0.669010 0.576157 0.278049 0.000000
H105  H     H_    0.600106 0.558175 0.403456 0.000000
H106  H     H_    0.526361 0.515563 0.337593 0.000000
H107  H     H_    0.796889 0.395910 0.287417 0.000000
H108  H     H_    0.890600 0.340533 0.367984 0.000000
H109  H     H_    0.867749 0.326531 0.483782 0.000000
H110  H     H_    0.752415 0.368035 0.517613 0.000000
C100  C     C_3   0.203680 0.590558 0.865648 0.000000
N34   N     N_3   0.206226 0.669547 0.827537 0.000000
C101  C     C_3   0.269710 0.736795 0.860464 0.000000
C102  C     C_R   0.254675 0.819411 0.841098 0.000000
N35   N     N_R   0.241667 0.850332 0.777581 0.000000
C103  C     C_R   0.221606 0.919924 0.784476 0.000000
C104  C     C_R   0.201865 0.976145 0.736949 0.000000
C105  C     C_R   0.178605 0.040980 0.755503 0.000000
C106  C     C_R   0.172358 0.046665 0.820401 0.000000
C107  C     C_R   0.192857 0.989651 0.867647 0.000000
C108  C     C_R   0.221433 0.929203 0.848311 0.000000
N36   N     N_R   0.245709 0.868718 0.885976 0.000000
H111  H     H_    0.173663 0.585738 0.911147 0.000000
H112  H     H_    0.164606 0.536805 0.837966 0.000000
H113  H     H_    0.269386 0.586890 0.876934 0.000000
H114  H     H_    0.146988 0.677543 0.828568 0.000000
H115  H     H_    0.263975 0.722251 0.912273 0.000000
H116  H     H_    0.334236 0.738750 0.851675 0.000000
H117  H     H_    0.204153 0.970181 0.686423 0.000000
H118  H     H_    0.163399 0.086535 0.719066 0.000000
H119  H     H_    0.151928 0.096225 0.834108 0.000000
H120  H     H_    0.188272 0.993694 0.918271 0.000000
C109  C     C_3   0.392807 0.278306 0.122767 0.000000
N37   N     N_3   0.401698 0.214981 0.174428 0.000000
C110  C     C_3   0.475713 0.250522 0.219087 0.000000
C111  C     C_R   0.555755 0.244173 0.199409 0.000000
N38   N     N_R   0.570834 0.169353 0.193692 0.000000
C112  C     C_R   0.655781 0.194745 0.190670 0.000000
C113  C     C_R   0.707058 0.144627 0.197366 0.000000
C114  C     C_R   0.794259 0.182834 0.196048 0.000000
C115  C     C_R   0.828288 0.269810 0.189217 0.000000
C116  C     C_R   0.776173 0.319202 0.187605 0.000000
C117  C     C_R   0.689347 0.280223 0.190746 0.000000
N39   N     N_R   0.627539 0.314319 0.197380 0.000000
H121  H     H_    0.338144 0.249091 0.087762 0.000000
H122  H     H_    0.379989 0.330484 0.142581 0.000000
H123  H     H_    0.451455 0.301964 0.097124 0.000000
H124  H     H_    0.412474 0.167256 0.153693 0.000000
H125  H     H_    0.487685 0.318084 0.219239 0.000000
H126  H     H_    0.464377 0.219321 0.268586 0.000000
H127  H     H_    0.680794 0.077499 0.207332 0.000000
H128  H     H_    0.836156 0.144856 0.201042 0.000000
H129  H     H_    0.896568 0.299363 0.187864 0.000000
H130  H     H_    0.805173 0.386291 0.185108 0.000000
C118  C     C_3   0.231766 0.761844 0.185710 0.000000
N40   N     N_3   0.244862 0.838282 0.142006 0.000000
C119  C     C_3   0.336193 0.881446 0.142400 0.000000
C120  C     C_R   0.354702 0.957961 0.095079 0.000000
N41   N     N_R   0.326882 0.958327 0.030116 0.000000
C121  C     C_R   0.368664 0.038045 0.006646 0.000000
C122  C     C_R   0.373453 0.071910 0.943276 0.000000
C123  C     C_R   0.424515 0.154050 0.929994 0.000000
C124  C     C_R   0.475789 0.198818 0.979321 0.000000
C125  C     C_R   0.477368 0.161170 0.041901 0.000000
C126  C     C_R   0.420524 0.081787 0.054933 0.000000
N42   N     N_R   0.413742 0.032344 0.111297 0.000000
H131  H     H_    0.162531 0.726212 0.184247 0.000000
H132  H     H_    0.265511 0.721479 0.170664 0.000000
H133  H     H_    0.255755 0.778254 0.235943 0.000000
H134  H     H_    0.218754 0.876931 0.162038 0.000000
H135  H     H_    0.361328 0.901549 0.191450 0.000000
H136  H     H_    0.369102 0.838527 0.131052 0.000000
H137  H     H_    0.347236 0.034280 0.903919 0.000000
H138  H     H_    0.428557 0.181557 0.880367 0.000000
H139  H     H_    0.517548 0.262012 0.968180 0.000000
H140  H     H_    0.522006 0.194814 0.078483 0.000000
C127  C     C_3   0.772443 0.060014 0.059596 0.000000
N43   N     N_3   0.720280 0.993713 0.102728 0.000000
C128  C     C_3   0.632497 0.994731 0.091754 0.000000
C129  C     C_R   0.578104 0.927800 0.137204 0.000000
N44   N     N_R   0.584208 0.846975 0.147199 0.000000
C130  C     C_R   0.566086 0.825039 0.208707 0.000000
C131  C     C_R   0.576967 0.757132 0.246949 0.000000
C132  C     C_R   0.539005 0.735700 0.304163 0.000000
C133  C     C_R   0.491634 0.782182 0.320145 0.000000
C134  C     C_R   0.491947 0.857454 0.284993 0.000000
C135  C     C_R   0.535862 0.881079 0.230754 0.000000
N45   N     N_R   0.544357 0.949460 0.187524 0.000000
H141  H     H_    0.764923 0.121440 0.065610 0.000000
H142  H     H_    0.840601 0.064500 0.071396 0.000000
H143  H     H_    0.753292 0.045081 0.008517 0.000000
H144  H     H_    0.743247 0.006367 0.150458 0.000000
H145  H     H_    0.628842 0.056620 0.100203 0.000000
H146  H     H_    0.612273 0.987951 0.040380 0.000000
H147  H     H_    0.613447 0.721516 0.232433 0.000000
H148  H     H_    0.540279 0.679438 0.334341 0.000000
H149  H     H_    0.454281 0.757726 0.360458 0.000000
H150  H     H_    0.453509 0.891650 0.297528 0.000000
C136  C     C_3   0.683692 0.397421 0.968772 0.000000
N46   N     N_3   0.695542 0.467079 0.007342 0.000000
C137  C     C_3   0.735035 0.448204 0.070276 0.000000
C138  C     C_R   0.769840 0.522770 0.109612 0.000000
N47   N     N_R   0.843601 0.587067 0.095269 0.000000
C139  C     C_R   0.880810 0.608860 0.154629 0.000000
C140  C     C_R   0.959010 0.667029 0.170095 0.000000
C141  C     C_R   0.982037 0.683198 0.234388 0.000000
C142  C     C_R   0.926967 0.642075 0.281535 0.000000
C143  C     C_R   0.848860 0.583121 0.265177 0.000000
C144  C     C_R   0.827829 0.566608 0.201272 0.000000
N48   N     N_R   0.755985 0.512370 0.174455 0.000000
H151  H     H_    0.633690 0.397994 0.928683 0.000000
H152  H     H_    0.743967 0.403718 0.948322 0.000000
H153  H     H_    0.663366 0.336732 0.999168 0.000000
H154  H     H_    0.737482 0.520805 0.986263 0.000000
H155  H     H_    0.686098 0.399187 0.096535 0.000000
H156  H     H_    0.787718 0.423939 0.064363 0.000000
H157  H     H_    0.003403 0.696627 0.134441 0.000000
H158  H     H_    0.043315 0.728330 0.248066 0.000000
H159  H     H_    0.945496 0.655979 0.331460 0.000000
H160  H     H_    0.806548 0.552246 0.301986 0.000000
C145  C     C_3   0.025950 0.803980 0.863302 0.000000
N49   N     N_3   0.008465 0.716498 0.888719 0.000000
C146  C     C_3   0.066718 0.706194 0.944757 0.000000
C147  C     C_R   0.063546 0.756086 0.997367 0.000000
N50   N     N_R   0.133555 0.823497 0.012774 0.000000
C148  C     C_R   0.099697 0.871110 0.041452 0.000000
C149  C     C_R   0.137078 0.953519 0.056155 0.000000
C150  C     C_R   0.088060 0.992697 0.080555 0.000000
C151  C     C_R   0.002883 0.950284 0.088934 0.000000
C152  C     C_R   0.965338 0.869090 0.071228 0.000000
C153  C     C_R   0.014686 0.830741 0.046809 0.000000
N51   N     N_R   0.989140 0.756282 0.020134 0.000000
H161  H     H_    0.966316 0.820106 0.858531 0.000000
H162  H     H_    0.072294 0.847720 0.895057 0.000000
H163  H     H_    0.050327 0.812236 0.815195 0.000000
H164  H     H_    0.018124 0.684685 0.852097 0.000000
H165  H     H_    0.052044 0.639229 0.962468 0.000000
H166  H     H_    0.132295 0.728358 0.930300 0.000000
H167  H     H_    0.201319 0.989530 0.047032 0.000000
H168  H     H_    0.115910 0.057546 0.091709 0.000000
H169  H     H_    0.964763 0.981974 0.107196 0.000000
H170  H     H_    0.898637 0.839559 0.074647 0.000000
C154  C     C_3   0.812784 0.828382 0.209823 0.000000
N52   N     N_3   0.749680 0.804957 0.154781 0.000000
C155  C     C_3   0.754795 0.728728 0.132136 0.000000
C156  C     C_R   0.722625 0.724726 0.061958 0.000000
N53   N     N_R   0.660666 0.760788 0.038435 0.000000
C157  C     C_R   0.692639 0.806105 0.983655 0.000000
C158  C     C_R   0.667330 0.866725 0.945265 0.000000
C159  C     C_R   0.724885 0.923523 0.905566 0.000000
C160  C     C_R   0.804477 0.915709 0.902371 0.000000
C161  C     C_R   0.824172 0.846929 0.934353 0.000000
C162  C     C_R   0.765892 0.792290 0.973650 0.000000
N54   N     N_R   0.780761 0.733665 0.018181 0.000000
H171  H     H_    0.787356 0.856929 0.244450 0.000000
H172  H     H_    0.828053 0.772687 0.234674 0.000000
H173  H     H_    0.872131 0.875269 0.192742 0.000000
H174  H     H_    0.768800 0.853764 0.118369 0.000000
H175  H     H_    0.822453 0.733115 0.135754 0.000000
H176  H     H_    0.721234 0.673352 0.163491 0.000000
H177  H     H_    0.604678 0.869296 0.944203 0.000000
H178  H     H_    0.707932 0.974647 0.877132 0.000000
H179  H     H_    0.850794 0.963348 0.874513 0.000000
H180  H     H_    0.886059 0.840245 0.932792 0.000000
C163  C     C_3   0.485717 0.454246 0.992271 0.000000
N55   N     N_3   0.520931 0.464788 0.059246 0.000000
C164  C     C_3   0.575962 0.551285 0.065964 0.000000
C165  C     C_R   0.579076 0.569240 0.134260 0.000000
N56   N     N_R   0.543757 0.629765 0.142856 0.000000
C166  C     C_R   0.486590 0.589299 0.185965 0.000000
C167  C     C_R   0.419248 0.612719 0.199617 0.000000
C168  C     C_R   0.354392 0.552840 0.230875 0.000000
C169  C     C_R   0.359384 0.472707 0.248868 0.000000
C170  C     C_R   0.431640 0.453034 0.240826 0.000000
C171  C     C_R   0.494950 0.512322 0.207668 0.000000
N57   N     N_R   0.559589 0.501027 0.180097 0.000000
H181  H     H_    0.446162 0.387520 0.987983 0.000000
H182  H     H_    0.444413 0.494227 0.976980 0.000000
H183  H     H_    0.537941 0.470122 0.960209 0.000000
H184  H     H_    0.557918 0.425203 0.071782 0.000000
H185  H     H_    0.639843 0.562014 0.051637 0.000000
H186  H     H_    0.548275 0.595109 0.034316 0.000000
H187  H     H_    0.413149 0.673472 0.181622 0.000000
H188  H     H_    0.297904 0.567301 0.238701 0.000000
H189  H     H_    0.305617 0.424402 0.268743 0.000000
H190  H     H_    0.434346 0.391869 0.259072 0.000000
C172  C     C_3   0.509648 0.992497 0.920222 0.000000
N58   N     N_3   0.444396 0.912510 0.937031 0.000000
C173  C     C_3   0.465127 0.882854 0.003279 0.000000
C174  C     C_R   0.408554 0.797860 0.020067 0.000000
N59   N     N_R   0.321272 0.775862 0.016441 0.000000
C175  C     C_R   0.297721 0.692837 0.035327 0.000000
C176  C     C_R   0.217258 0.638771 0.045208 0.000000
C177  C     C_R   0.207237 0.554214 0.060694 0.000000
C178  C     C_R   0.277233 0.525833 0.065597 0.000000
C179  C     C_R   0.358532 0.582286 0.059063 0.000000
C180  C     C_R   0.367827 0.666597 0.046633 0.000000
N60   N     N_R   0.440296 0.733300 0.041567 0.000000
H191  H     H_    0.489103 0.021175 0.872953 0.000000
H192  H     H_    0.520434 0.036160 0.958094 0.000000
H193  H     H_    0.571489 0.983778 0.916353 0.000000
H194  H     H_    0.446634 0.868096 0.907488 0.000000
H195  H     H_    0.528005 0.875551 0.009405 0.000000
H196  H     H_    0.463584 0.926658 0.036950 0.000000
H197  H     H_    0.163998 0.661413 0.043609 0.000000
H198  H     H_    0.144490 0.509940 0.068374 0.000000
H199  H     H_    0.268533 0.459324 0.076179 0.000000
H200  H     H_    0.411883 0.559492 0.063085 0.000000

loop_
_geom_bond_atom_site_label_1
_geom_bond_atom_site_label_2
_geom_bond_distance
_geom_bond_site_symmetry_2
_ccdc_geom_bond_type
Zn1   N44   2.103 .      S
Zn1   N53   2.051 .      S
Zn1   N56   2.069 .      S
Zn1   N60   2.062 .      S
Zn2   N3    2.071 .      S
Zn2   N6    2.126 .      S
Zn2   N9    2.074 .      S
Zn2   N12   2.081 .      S
Zn3   N2    2.045 1_545  S
Zn3   N14   2.092 .      S
Zn3   N18   2.038 1_545  S
Zn3   N20   2.064 .      S
Zn4   N5    2.065 .      S
Zn4   N23   2.010 .      S
Zn4   N27   2.079 .      S
Zn4   N30   2.081 .      S
Zn5   N8    2.064 .      S
Zn5   N15   2.028 .      S
Zn5   N24   2.049 .      S
Zn5   N33   2.091 .      S
Zn6   N11   2.066 .      S
Zn6   N17   2.034 .      S
Zn6   N26   2.104 .      S
Zn6   N35   2.052 .      S
Zn7   N21   2.008 .      S
Zn7   N38   2.057 .      S
Zn7   N42   1.985 .      S
Zn7   N45   2.101 1_545  S
Zn8   N29   2.061 1_554  S
Zn8   N47   2.062 .      S
Zn8   N51   2.061 .      S
Zn8   N54   2.013 .      S
Zn9   N32   2.101 .      S
Zn9   N39   2.108 .      S
Zn9   N48   2.047 .      S
Zn9   N57   2.106 .      S
Zn10  N36   2.050 .      S
Zn10  N41   2.011 1_556  S
Zn10  N50   2.044 1_556  S
Zn10  N59   2.013 1_556  S
C1    N1    1.456 .      S
C1    H1    1.106 .      S
C1    H2    1.107 .      S
C1    H3    1.105 .      S
N1    C2    1.447 .      S
N1    H4    1.035 .      S
C2    C3    1.475 .      S
C2    H5    1.087 .      S
C2    H6    1.101 .      S
N2    Zn3   2.045 1_565  S
C5    H7    1.054 .      S
C6    H8    1.081 .      S
C7    H9    1.081 .      S
C8    H10   1.056 .      S
C10   N4    1.458 .      S
C10   H11   1.109 .      S
C10   H12   1.110 .      S
C10   H13   1.107 .      S
N4    C11   1.451 .      S
N4    H14   1.043 .      S
C11   C12   1.489 .      S
C11   H15   1.091 .      S
C11   H16   1.105 .      S
C14   H17   1.074 .      S
C15   H18   1.080 .      S
C16   H19   1.081 .      S
C17   H20   1.079 .      S
C19   N7    1.453 .      S
C19   H21   1.109 .      S
C19   H22   1.108 .      S
C19   H23   1.110 .      S
N7    C20   1.453 .      S
N7    H24   1.044 .      S
C20   C21   1.490 .      S
C20   H25   1.105 .      S
C20   H26   1.091 .      S
C23   H27   1.079 .      S
C24   H28   1.076 .      S
C25   H29   1.081 .      S
C26   H30   1.058 .      S
C28   N10   1.455 .      S
C28   H31   1.109 .      S
C28   H32   1.109 .      S
C28   H33   1.108 .      S
N10   C29   1.453 .      S
N10   H34   1.043 .      S
C29   C30   1.473 .      S
C29   H35   1.089 .      S
C29   H36   1.105 .      S
C32   H37   1.066 .      S
C33   H38   1.072 .      S
C34   H39   1.074 .      S
C35   H40   1.072 .      S
C37   N13   1.455 .      S
C37   H41   1.109 .      S
C37   H42   1.109 .      S
C37   H43   1.109 .      S
N13   C38   1.453 .      S
N13   H44   1.040 .      S
C38   C39   1.483 .      S
C38   H45   1.097 .      S
C38   H46   1.097 .      S
C41   H47   1.060 .      S
C42   H48   1.081 .      S
C43   H49   1.081 .      S
C44   H50   1.068 .      S
C46   N16   1.455 .      S
C46   H51   1.109 .      S
C46   H52   1.101 .      S
C46   H53   1.105 .      S
N16   C47   1.454 1_545  S
N16   H54   1.032 1_545  S
C47   N16   1.454 1_565  S
C47   C48   1.496 .      S
C47   H55   1.103 1_565  S
C47   H56   1.104 .      S
C50   H57   1.062 .      S
C51   H58   1.078 .      S
C52   H59   1.081 .      S
C53   H60   1.057 .      S
N18   Zn3   2.038 1_565  S
H54   N16   1.032 1_565  S
H55   C47   1.103 1_545  S
C55   N19   1.455 .      S
C55   H61   1.109 .      S
C55   H62   1.102 .      S
C55   H63   1.104 .      S
N19   C56   1.453 .      S
N19   H64   1.042 .      S
C56   C57   1.485 .      S
C56   H65   1.107 .      S
C56   H66   1.103 1_545  S
C59   H67   1.063 .      S
C60   H68   1.081 .      S
C61   H69   1.080 .      S
C62   H70   1.074 .      S
H66   C56   1.103 1_565  S
C64   N22   1.455 .      S
C64   H71   1.109 .      S
C64   H72   1.106 .      S
C64   H73   1.107 .      S
N22   C65   1.447 .      S
N22   H74   1.034 .      S
C65   C66   1.504 .      S
C65   H75   1.107 .      S
C65   H76   1.099 .      S
C68   H77   1.069 .      S
C69   H78   1.078 .      S
C70   H79   1.081 .      S
C71   H80   1.064 .      S
C73   N25   1.456 .      S
C73   H81   1.107 .      S
C73   H82   1.109 .      S
C73   H83   1.109 1_455  S
N25   C74   1.443 1_455  S
N25   H84   1.042 .      S
C74   N25   1.443 1_655  S
C74   C75   1.497 1_655  S
C74   H85   1.097 .      S
C74   H86   1.102 .      S
C75   C74   1.497 1_455  S
C77   H87   1.069 .      S
C78   H88   1.081 .      S
C79   H89   1.081 .      S
C80   H90   1.074 .      S
H83   C73   1.109 1_655  S
C82   N28   1.448 .      S
C82   H91   1.097 .      S
C82   H92   1.107 .      S
C82   H93   1.102 .      S
N28   C83   1.453 .      S
N28   H94   1.043 .      S
C83   C84   1.484 .      S
C83   H95   1.105 .      S
C83   H96   1.099 .      S
N29   Zn8   2.061 1_556  S
C86   H97   1.078 1_556  S
C87   H98   1.081 .      S
C88   H99   1.081 .      S
C89   H100  1.067 .      S
H97   C86   1.078 1_554  S
C91   N31   1.449 .      S
C91   H101  1.101 .      S
C91   H102  1.106 .      S
C91   H103  1.103 .      S
N31   C92   1.457 .      S
N31   H104  1.039 .      S
C92   C93   1.488 .      S
C92   H105  1.104 .      S
C92   H106  1.093 .      S
C95   H107  1.063 .      S
C96   H108  1.081 .      S
C97   H109  1.081 .      S
C98   H110  1.071 .      S
C100  N34   1.456 .      S
C100  H111  1.108 .      S
C100  H112  1.107 .      S
C100  H113  1.109 .      S
N34   C101  1.447 .      S
N34   H114  1.041 .      S
C101  C102  1.495 .      S
C101  H115  1.087 .      S
C101  H116  1.100 .      S
C104  H117  1.077 .      S
C105  H118  1.081 .      S
C106  H119  1.081 .      S
C107  H120  1.080 .      S
C109  N37   1.450 .      S
C109  H121  1.109 .      S
C109  H122  1.108 .      S
C109  H123  1.103 .      S
N37   C110  1.452 .      S
N37   H124  1.034 .      S
C110  C111  1.481 .      S
C110  H125  1.091 .      S
C110  H126  1.107 .      S
C113  H127  1.074 .      S
C114  H128  1.081 .      S
C115  H129  1.081 .      S
C116  H130  1.071 .      S
C118  N40   1.454 .      S
C118  H131  1.107 .      S
C118  H132  1.108 .      S
C118  H133  1.108 .      S
N40   C119  1.451 .      S
N40   H134  1.043 .      S
C119  C120  1.494 .      S
C119  H135  1.105 .      S
C119  H136  1.103 .      S
N41   Zn10  2.011 1_554  S
C122  H137  1.060 .      S
C123  H138  1.081 .      S
C124  H139  1.078 .      S
C125  H140  1.069 .      S
C127  N43   1.455 1_545  S
C127  H141  1.108 .      S
C127  H142  1.109 .      S
C127  H143  1.108 .      S
N43   C127  1.455 1_565  S
N43   C128  1.455 .      S
N43   H144  1.042 1_565  S
C128  C129  1.505 .      S
C128  H145  1.103 1_565  S
C128  H146  1.091 .      S
C131  H147  1.074 .      S
C132  H148  1.077 .      S
C133  H149  1.066 .      S
C134  H150  1.065 .      S
N45   Zn7   2.101 1_565  S
H144  N43   1.042 1_545  S
H145  C128  1.103 1_545  S
C136  N46   1.452 1_556  S
C136  H151  1.105 .      S
C136  H152  1.106 .      S
C136  H153  1.108 .      S
N46   C136  1.452 1_554  S
N46   C137  1.441 .      S
N46   H154  1.030 1_554  S
C137  C138  1.499 .      S
C137  H155  1.095 .      S
C137  H156  1.108 .      S
C140  H157  1.071 1_655  S
C141  H158  1.081 1_655  S
C142  H159  1.080 .      S
C143  H160  1.072 .      S
H154  N46   1.030 1_556  S
H157  C140  1.071 1_455  S
H158  C141  1.081 1_455  S
C145  N49   1.451 .      S
C145  H161  1.102 1_455  S
C145  H162  1.093 .      S
C145  H163  1.104 .      S
N49   C146  1.454 .      S
N49   H164  1.042 .      S
C146  C147  1.479 .      S
C146  H165  1.100 .      S
C146  H166  1.097 .      S
N50   Zn10  2.044 1_554  S
C149  H167  1.067 .      S
C150  H168  1.080 1_565  S
C151  H169  1.081 1_455  S
C152  H170  1.063 .      S
H161  C145  1.102 1_655  S
H168  C150  1.080 1_545  S
H169  C151  1.081 1_655  S
C154  N52   1.454 .      S
C154  H171  1.109 .      S
C154  H172  1.105 .      S
C154  H173  1.108 .      S
N52   C155  1.456 .      S
N52   H174  1.043 .      S
C155  C156  1.496 .      S
C155  H175  1.097 .      S
C155  H176  1.098 .      S
C158  H177  1.055 .      S
C159  H178  1.081 .      S
C160  H179  1.078 .      S
C161  H180  1.077 .      S
C163  N55   1.454 1_556  S
C163  H181  1.109 .      S
C163  H182  1.108 .      S
C163  H183  1.104 .      S
N55   C163  1.454 1_554  S
N55   C164  1.457 .      S
N55   H184  1.040 .      S
C164  C165  1.484 .      S
C164  H185  1.090 .      S
C164  H186  1.106 .      S
C167  H187  1.080 .      S
C168  H188  1.081 .      S
C169  H189  1.078 .      S
C170  H190  1.068 .      S
C172  N58   1.460 .      S
C172  H191  1.109 1_565  S
C172  H192  1.105 1_565  S
C172  H193  1.100 .      S
N58   C173  1.450 1_556  S
N58   H194  1.040 .      S
C173  N58   1.450 1_554  S
C173  C174  1.459 .      S
C173  H195  1.083 .      S
C173  H196  1.089 .      S
N59   Zn10  2.013 1_554  S
C176  H197  1.070 .      S
C177  H198  1.081 .      S
C178  H199  1.081 .      S
C179  H200  1.069 .      S
H191  C172  1.109 1_545  S
H192  C172  1.105 1_545  S
C3    N2    1.374 .      A
C3    N3    1.380 .      A
N2    C4    1.340 .      A
C4    C5    1.353 1_565  A
C4    C9    1.350 .      A
C5    C4    1.353 1_545  A
C5    C6    1.380 .      A
C6    C7    1.378 1_545  A
C7    C6    1.378 1_565  A
C7    C8    1.379 .      A
C8    C9    1.375 .      A
C9    N3    1.350 .      A
C12   N5    1.373 .      A
C12   N6    1.382 .      A
N5    C13   1.339 .      A
C13   C14   1.364 .      A
C13   C18   1.361 .      A
C14   C15   1.380 .      A
C15   C16   1.389 .      A
C16   C17   1.385 .      A
C17   C18   1.378 .      A
C18   N6    1.359 .      A
C21   N8    1.379 .      A
C21   N9    1.366 .      A
N8    C22   1.341 .      A
C22   C23   1.371 .      A
C22   C27   1.368 .      A
C23   C24   1.376 .      A
C24   C25   1.381 .      A
C25   C26   1.381 .      A
C26   C27   1.376 .      A
C27   N9    1.358 .      A
C30   N11   1.382 .      A
C30   N12   1.380 .      A
N11   C31   1.349 .      A
C31   C32   1.374 .      A
C31   C36   1.356 .      A
C32   C33   1.379 .      A
C33   C34   1.375 .      A
C34   C35   1.370 .      A
C35   C36   1.352 .      A
C36   N12   1.334 .      A
C39   N14   1.386 .      A
C39   N15   1.368 .      A
N14   C40   1.364 .      A
C40   C41   1.381 .      A
C40   C45   1.359 .      A
C41   C42   1.382 .      A
C42   C43   1.380 .      A
C43   C44   1.377 .      A
C44   C45   1.374 .      A
C45   N15   1.339 .      A
C48   N17   1.381 .      A
C48   N18   1.370 .      A
N17   C49   1.352 .      A
C49   C50   1.374 .      A
C49   C54   1.360 .      A
C50   C51   1.378 .      A
C51   C52   1.376 .      A
C52   C53   1.377 .      A
C53   C54   1.375 .      A
C54   N18   1.352 .      A
C57   N20   1.379 .      A
C57   N21   1.368 .      A
N20   C58   1.354 .      A
C58   C59   1.374 .      A
C58   C63   1.360 .      A
C59   C60   1.381 .      A
C60   C61   1.384 .      A
C61   C62   1.382 .      A
C62   C63   1.376 .      A
C63   N21   1.345 .      A
C66   N23   1.371 .      A
C66   N24   1.380 .      A
N23   C67   1.346 .      A
C67   C68   1.377 .      A
C67   C72   1.361 .      A
C68   C69   1.382 .      A
C69   C70   1.381 .      A
C70   C71   1.379 .      A
C71   C72   1.378 .      A
C72   N24   1.355 .      A
C75   N26   1.399 .      A
C75   N27   1.374 1_455  A
N26   C76   1.349 .      A
C76   C77   1.373 .      A
C76   C81   1.361 .      A
C77   C78   1.383 .      A
C78   C79   1.384 .      A
C79   C80   1.382 1_455  A
C80   C79   1.382 1_655  A
C80   C81   1.376 1_655  A
C81   C80   1.376 1_455  A
C81   N27   1.350 1_455  A
N27   C75   1.374 1_655  A
N27   C81   1.350 1_655  A
C84   N29   1.384 .      A
C84   N30   1.377 .      A
N29   C85   1.345 .      A
C85   C86   1.375 .      A
C85   C90   1.360 .      A
C86   C87   1.383 .      A
C87   C88   1.388 .      A
C88   C89   1.384 .      A
C89   C90   1.370 .      A
C90   N30   1.353 .      A
C93   N32   1.385 .      A
C93   N33   1.383 .      A
N32   C94   1.348 .      A
C94   C95   1.368 .      A
C94   C99   1.361 .      A
C95   C96   1.382 .      A
C96   C97   1.385 .      A
C97   C98   1.382 .      A
C98   C99   1.373 .      A
C99   N33   1.347 .      A
C102  N35   1.380 .      A
C102  N36   1.379 .      A
N35   C103  1.351 .      A
C103  C104  1.372 .      A
C103  C108  1.360 .      A
C104  C105  1.385 1_565  A
C105  C104  1.385 1_545  A
C105  C106  1.388 .      A
C106  C107  1.382 1_545  A
C107  C106  1.382 1_565  A
C107  C108  1.378 .      A
C108  N36   1.348 .      A
C111  N38   1.388 .      A
C111  N39   1.376 .      A
N38   C112  1.341 .      A
C112  C113  1.371 .      A
C112  C117  1.364 .      A
C113  C114  1.381 .      A
C114  C115  1.383 .      A
C115  C116  1.383 .      A
C116  C117  1.381 .      A
C117  N39   1.362 .      A
C120  N41   1.376 .      A
C120  N42   1.364 1_565  A
N41   C121  1.355 1_565  A
C121  N41   1.355 1_545  A
C121  C122  1.374 1_554  A
C121  C126  1.360 .      A
C122  C121  1.374 1_556  A
C122  C123  1.380 .      A
C123  C124  1.380 .      A
C124  C125  1.380 1_556  A
C125  C124  1.380 1_554  A
C125  C126  1.378 .      A
C126  N42   1.348 .      A
N42   C120  1.364 1_545  A
C129  N44   1.389 .      A
C129  N45   1.388 .      A
N44   C130  1.333 .      A
C130  C131  1.363 .      A
C130  C135  1.356 .      A
C131  C132  1.372 .      A
C132  C133  1.374 .      A
C133  C134  1.384 .      A
C134  C135  1.369 .      A
C135  N45   1.353 .      A
C138  N47   1.379 .      A
C138  N48   1.380 .      A
N47   C139  1.350 .      A
C139  C140  1.374 .      A
C139  C144  1.362 .      A
C140  C141  1.383 .      A
C141  C142  1.386 .      A
C142  C143  1.383 .      A
C143  C144  1.374 .      A
C144  N48   1.347 .      A
C147  N50   1.369 1_556  A
C147  N51   1.381 1_456  A
N50   C147  1.369 1_554  A
N50   C148  1.350 .      A
C148  C149  1.379 .      A
C148  C153  1.363 .      A
C149  C150  1.380 .      A
C150  C151  1.382 .      A
C151  C152  1.380 1_455  A
C152  C151  1.380 1_655  A
C152  C153  1.375 1_655  A
C153  C152  1.375 1_455  A
C153  N51   1.353 1_455  A
N51   C147  1.381 1_654  A
N51   C153  1.353 1_655  A
C156  N53   1.374 .      A
C156  N54   1.371 .      A
N53   C157  1.356 1_554  A
C157  N53   1.356 1_556  A
C157  C158  1.365 .      A
C157  C162  1.359 .      A
C158  C159  1.383 .      A
C159  C160  1.383 .      A
C160  C161  1.380 .      A
C161  C162  1.371 .      A
C162  N54   1.334 1_556  A
N54   C162  1.334 1_554  A
C165  N56   1.375 .      A
C165  N57   1.379 .      A
N56   C166  1.345 .      A
C166  C167  1.376 .      A
C166  C171  1.367 .      A
C167  C168  1.378 .      A
C168  C169  1.385 .      A
C169  C170  1.382 .      A
C170  C171  1.378 .      A
C171  N57   1.356 .      A
C174  N59   1.369 .      A
C174  N60   1.367 .      A
N59   C175  1.345 .      A
C175  C176  1.371 .      A
C175  C180  1.363 .      A
C176  C177  1.382 .      A
C177  C178  1.387 .      A
C178  C179  1.384 .      A
C179  C180  1.374 .      A
C180  N60   1.355 .      A
