data_str_m1_o12038_OSI
_audit_creation_date              2015-10-01T06:42:24-0700
_symmetry_space_group_name_H-M    P1
_symmetry_Int_Tables_number       1
_space_group_crystal_system       triclinic
loop_
_symmetry_equiv_pos_as_xyz
  x,y,z
_cell_length_a                    10.8139005
_cell_length_b                    27.3914999
_cell_length_c                    27.8948145
_cell_angle_alpha                 88.5855255
_cell_angle_beta                  101.079494
_cell_angle_gamma                 101.030246
_cell_volume                      7958.26616422

loop_
_atom_site_label
_atom_site_type_symbol
_atom_site_description
_atom_site_fract_x
_atom_site_fract_y
_atom_site_fract_z
_atom_type_partial_charge
Zn1   Zn    Zn3+2 0.730361 0.879931 0.139200 0.000000
Zn2   Zn    Zn3+2 0.083649 0.880039 0.827834 0.000000
Zn3   Zn    Zn3+2 0.827149 0.629362 0.590142 0.000000
Zn4   Zn    Zn3+2 0.458063 0.974938 0.487110 0.000000
Zn5   Zn    Zn3+2 0.961646 0.875516 0.589901 0.000000
Zn6   Zn    Zn3+2 0.171494 0.633926 0.267329 0.000000
Zn7   Zn    Zn3+2 0.287526 0.873101 0.266776 0.000000
Zn8   Zn    Zn3+2 0.278658 0.314516 0.824603 0.000000
Zn9   Zn    Zn3+2 0.172144 0.329579 0.588587 0.000000
Zn10  Zn    Zn3+2 0.720000 0.182365 0.820426 0.000000
Zn11  Zn    Zn3+2 0.680261 0.974701 0.927781 0.000000
Zn12  Zn    Zn3+2 0.436605 0.536152 0.928245 0.000000
Zn13  Zn    Zn3+2 0.232925 0.545558 0.486435 0.000000
Zn14  Zn    Zn3+2 0.612851 0.199077 0.587574 0.000000
Zn15  Zn    Zn3+2 0.608555 0.639925 0.141704 0.000000
Zn16  Zn    Zn3+2 0.934457 0.635858 0.831237 0.000000
N1    N     N_2   0.309797 0.059042 0.082203 0.000000
C1    C     C_R   0.362334 0.023225 0.112364 0.000000
C2    C     C_R   0.315410 0.007966 0.153944 0.000000
C3    C     C_R   0.359056 0.970003 0.181442 0.000000
C4    C     C_R   0.452241 0.947858 0.167748 0.000000
C5    C     C_R   0.502431 0.964821 0.127663 0.000000
C6    C     C_R   0.455925 0.001476 0.099131 0.000000
C7    C     C_R   0.499137 0.906111 0.194230 0.000000
N2    N     N_R   0.444170 0.881422 0.231352 0.000000
C8    C     C_R   0.526319 0.850948 0.247099 0.000000
C9    C     C_R   0.534955 0.825054 0.289123 0.000000
C10   C     C_R   0.645775 0.807457 0.306314 0.000000
N3    N     N_2   0.663280 0.785340 0.352436 0.000000
C11   C     C_R   0.743415 0.814935 0.279897 0.000000
C12   C     C_R   0.724951 0.835291 0.233969 0.000000
C13   C     C_R   0.617613 0.854675 0.219800 0.000000
N4    N     N_R   0.601494 0.887051 0.183933 0.000000
H1    H     H_    0.223686 0.064596 0.089434 0.000000
H2    H     H_    0.311608 0.054400 0.045879 0.000000
H3    H     H_    0.239631 0.024048 0.163670 0.000000
H4    H     H_    0.310814 0.955255 0.210705 0.000000
H5    H     H_    0.568651 0.945266 0.116410 0.000000
H6    H     H_    0.488704 0.011108 0.065333 0.000000
H7    H     H_    0.466447 0.825013 0.310928 0.000000
H8    H     H_    0.757340 0.785881 0.368229 0.000000
H9    H     H_    0.603711 0.792940 0.374656 0.000000
H10   H     H_    0.836323 0.808845 0.297119 0.000000
H11   H     H_    0.796887 0.842065 0.211883 0.000000
N5    N     N_2   0.690861 0.895084 0.354247 0.000000
C14   C     C_R   0.780040 0.904238 0.322982 0.000000
C15   C     C_R   0.742413 0.919755 0.276503 0.000000
C16   C     C_R   0.821973 0.920104 0.243933 0.000000
C17   C     C_R   0.936335 0.904214 0.257439 0.000000
C18   C     C_R   0.988240 0.903655 0.305913 0.000000
C19   C     C_R   0.906591 0.900032 0.338971 0.000000
C20   C     C_R   0.994350 0.892400 0.217325 0.000000
N6    N     N_R   0.923874 0.895612 0.171177 0.000000
C21   C     C_R   0.014379 0.904048 0.143917 0.000000
C22   C     C_R   0.007662 0.926254 0.098892 0.000000
C23   C     C_R   0.119067 0.939340 0.080884 0.000000
N7    N     N_2   0.119103 0.966082 0.037142 0.000000
C24   C     C_R   0.228642 0.923729 0.104415 0.000000
C25   C     C_R   0.227983 0.897278 0.147474 0.000000
C26   C     C_R   0.127669 0.896424 0.170442 0.000000
N8    N     N_R   0.121611 0.888482 0.218229 0.000000
H12   H     H_    0.597296 0.895307 0.337919 0.000000
H13   H     H_    0.708704 0.869267 0.380789 0.000000
H14   H     H_    0.649207 0.929126 0.265040 0.000000
H15   H     H_    0.794622 0.931573 0.207071 0.000000
H16   H     H_    0.090330 0.908591 0.316665 0.000000
H17   H     H_    0.940139 0.893817 0.376867 0.000000
H18   H     H_    0.924482 0.938637 0.079786 0.000000
H19   H     H_    0.187765 0.960155 0.018176 0.000000
H20   H     H_    0.028920 0.966660 0.017170 0.000000
H21   H     H_    0.308586 0.927984 0.085963 0.000000
H22   H     H_    0.298709 0.876195 0.161546 0.000000
N9    N     N_2   0.645336 0.691154 0.679936 0.000000
C27   C     C_R   0.727871 0.737004 0.688195 0.000000
C28   C     C_R   0.703032 0.772085 0.716772 0.000000
C29   C     C_R   0.784051 0.817662 0.723374 0.000000
C30   C     C_R   0.892482 0.826164 0.703395 0.000000
C31   C     C_R   0.920353 0.789472 0.677329 0.000000
C32   C     C_R   0.837176 0.744948 0.669929 0.000000
C33   C     C_R   0.978978 0.873624 0.706918 0.000000
N10   N     N_R   0.062843 0.891242 0.749964 0.000000
C34   C     C_R   0.154779 0.922351 0.731945 0.000000
C35   C     C_R   0.282677 0.929058 0.751411 0.000000
C36   C     C_R   0.367327 0.958268 0.726873 0.000000
N11   N     N_2   0.498626 0.965794 0.747308 0.000000
C37   C     C_R   0.324797 0.975954 0.680710 0.000000
C38   C     C_R   0.199307 0.959046 0.656951 0.000000
C39   C     C_R   0.118840 0.929048 0.682949 0.000000
N12   N     N_R   0.013750 0.895208 0.664812 0.000000
H23   H     H_    0.572176 0.688449 0.698440 0.000000
H24   H     H_    0.696932 0.663217 0.685625 0.000000
H25   H     H_    0.613306 0.764589 0.729234 0.000000
H26   H     H_    0.760104 0.847117 0.741690 0.000000
H27   H     H_    0.010017 0.795518 0.664637 0.000000
H28   H     H_    0.858698 0.714543 0.652925 0.000000
H29   H     H_    0.315532 0.910490 0.784510 0.000000
H30   H     H_    0.544619 0.000909 0.741750 0.000000
H31   H     H_    0.516261 0.954046 0.782836 0.000000
H32   H     H_    0.393545 0.996133 0.660417 0.000000
H33   H     H_    0.170287 0.964954 0.618322 0.000000
N13   N     N_2   0.310559 0.716875 0.562209 0.000000
C40   C     C_R   0.444380 0.728321 0.571232 0.000000
C41   C     C_R   0.512415 0.693205 0.591595 0.000000
C42   C     C_R   0.642582 0.702546 0.595585 0.000000
C43   C     C_R   0.703976 0.746223 0.578400 0.000000
C44   C     C_R   0.635678 0.780496 0.556464 0.000000
C45   C     C_R   0.505457 0.772323 0.554624 0.000000
C46   C     C_R   0.837553 0.749795 0.576919 0.000000
N14   N     N_R   0.885211 0.706118 0.580004 0.000000
C47   C     C_R   0.009762 0.722753 0.589520 0.000000
C48   C     C_R   0.096974 0.693674 0.605595 0.000000
C49   C     C_R   0.214778 0.717114 0.629369 0.000000
N15   N     N_2   0.305757 0.688350 0.650584 0.000000
C50   C     C_R   0.244609 0.768683 0.630636 0.000000
C51   C     C_R   0.158155 0.797140 0.606493 0.000000
C52   C     C_R   0.037405 0.773308 0.589677 0.000000
N16   N     N_R   0.930722 0.793653 0.581867 0.000000
H34   H     H_    0.267454 0.680555 0.566644 0.000000
H35   H     H_    0.262261 0.745828 0.554366 0.000000
H36   H     H_    0.463502 0.657598 0.602295 0.000000
H37   H     H_    0.695418 0.673681 0.608345 0.000000
H38   H     H_    0.682084 0.809975 0.536243 0.000000
H39   H     H_    0.447589 0.795290 0.532428 0.000000
H40   H     H_    0.069444 0.653703 0.604752 0.000000
H41   H     H_    0.399218 0.705122 0.652006 0.000000
H42   H     H_    0.282672 0.651313 0.641559 0.000000
H43   H     H_    0.334860 0.785649 0.651532 0.000000
H44   H     H_    0.176055 0.836295 0.601401 0.000000
N17   N     N_2   0.665557 0.905996 0.704948 0.000000
C53   C     C_R   0.558645 0.915346 0.671675 0.000000
C54   C     C_R   0.439049 0.900343 0.682151 0.000000
C55   C     C_R   0.331018 0.900337 0.646595 0.000000
C56   C     C_R   0.344406 0.923664 0.602456 0.000000
C57   C     C_R   0.465281 0.945462 0.596586 0.000000
C58   C     C_R   0.572237 0.937473 0.628255 0.000000
C59   C     C_R   0.245042 0.926302 0.558646 0.000000
N18   N     N_R   0.112545 0.908779 0.553495 0.000000
C60   C     C_R   0.071710 0.920547 0.506521 0.000000
C61   C     C_R   0.947770 0.914547 0.481480 0.000000
C62   C     C_R   0.924547 0.942110 0.439863 0.000000
N19   N     N_2   0.797681 0.945045 0.418755 0.000000
C63   C     C_R   0.025005 0.966663 0.418803 0.000000
C64   C     C_R   0.149915 0.964574 0.440240 0.000000
C65   C     C_R   0.170677 0.943708 0.485419 0.000000
N20   N     N_R   0.283469 0.947105 0.516209 0.000000
H45   H     H_    0.657221 0.907640 0.740934 0.000000
H46   H     H_    0.753275 0.917311 0.695088 0.000000
H47   H     H_    0.432937 0.885799 0.717810 0.000000
H48   H     H_    0.242129 0.882746 0.656136 0.000000
H49   H     H_    0.477031 0.962900 0.562859 0.000000
H50   H     H_    0.664948 0.947987 0.618179 0.000000
H51   H     H_    0.869162 0.892221 0.494642 0.000000
H52   H     H_    0.784061 0.972970 0.394090 0.000000
H53   H     H_    0.727586 0.929250 0.437751 0.000000
H54   H     H_    0.005274 0.986326 0.384953 0.000000
H55   H     H_    0.228203 0.981689 0.423547 0.000000
N21   N     N_2   0.065147 0.078819 0.431840 0.000000
C66   C     C_R   0.984616 0.046091 0.457378 0.000000
C67   C     C_R   0.037233 0.018989 0.495602 0.000000
C68   C     C_R   0.958553 0.988805 0.522105 0.000000
C69   C     C_R   0.827840 0.980585 0.506181 0.000000
C70   C     C_R   0.775018 0.008485 0.469075 0.000000
C71   C     C_R   0.853308 0.042015 0.445042 0.000000
C72   C     C_R   0.745552 0.940782 0.527016 0.000000
N22   N     N_R   0.794782 0.906013 0.559117 0.000000
C73   C     C_R   0.688506 0.882092 0.572412 0.000000
C74   C     C_R   0.683513 0.849753 0.609611 0.000000
C75   C     C_R   0.566707 0.836087 0.622898 0.000000
N23   N     N_2   0.557849 0.809671 0.665355 0.000000
C76   C     C_R   0.458215 0.847970 0.594529 0.000000
C77   C     C_R   0.464371 0.874983 0.553726 0.000000
C78   C     C_R   0.582073 0.896842 0.546756 0.000000
N24   N     N_R   0.611658 0.935451 0.518165 0.000000
H56   H     H_    0.154659 0.091360 0.452591 0.000000
H57   H     H_    0.021204 0.105596 0.412975 0.000000
H58   H     H_    0.139588 0.020603 0.504168 0.000000
H59   H     H_    0.998356 0.969999 0.554119 0.000000
H60   H     H_    0.672347 0.001426 0.457601 0.000000
H61   H     H_    0.811914 0.063359 0.415226 0.000000
H62   H     H_    0.769224 0.839626 0.630368 0.000000
H63   H     H_    0.510330 0.824891 0.687936 0.000000
H64   H     H_    0.522976 0.772863 0.656892 0.000000
H65   H     H_    0.366159 0.836843 0.602439 0.000000
H66   H     H_    0.377930 0.882401 0.533741 0.000000
N25   N     N_2   0.942801 0.814194 0.462458 0.000000
C79   C     C_R   0.046127 0.836513 0.440727 0.000000
C80   C     C_R   0.042592 0.829206 0.391650 0.000000
C81   C     C_R   0.144490 0.850916 0.370707 0.000000
C82   C     C_R   0.241051 0.884415 0.398374 0.000000
C83   C     C_R   0.255543 0.884111 0.447390 0.000000
C84   C     C_R   0.160032 0.858625 0.469601 0.000000
C85   C     C_R   0.334100 0.920861 0.379196 0.000000
N26   N     N_R   0.351114 0.921056 0.330960 0.000000
C86   C     C_R   0.441577 0.962827 0.331320 0.000000
C87   C     C_R   0.500502 0.981656 0.293609 0.000000
C88   C     C_R   0.586885 0.026390 0.301129 0.000000
N27   N     N_2   0.647403 0.047132 0.262929 0.000000
C89   C     C_R   0.612584 0.051468 0.345693 0.000000
C90   C     C_R   0.557009 0.031144 0.384210 0.000000
C91   C     C_R   0.474800 0.985845 0.376539 0.000000
N28   N     N_R   0.413089 0.959182 0.409026 0.000000
H67   H     H_    0.855159 0.815686 0.440879 0.000000
H68   H     H_    0.953941 0.825064 0.498318 0.000000
H69   H     H_    0.958831 0.808579 0.369009 0.000000
H70   H     H_    0.145467 0.842692 0.333057 0.000000
H71   H     H_    0.347803 0.902799 0.465189 0.000000
H72   H     H_    0.174355 0.854744 0.508661 0.000000
H73   H     H_    0.482323 0.962285 0.259312 0.000000
H74   H     H_    0.680679 0.084907 0.266511 0.000000
H75   H     H_    0.599107 0.034287 0.228782 0.000000
H76   H     H_    0.676756 0.087209 0.350295 0.000000
H77   H     H_    0.573417 0.051918 0.418004 0.000000
N29   N     N_2   0.155381 0.837018 0.085042 0.000000
C92   C     C_R   0.169775 0.802653 0.121666 0.000000
C93   C     C_R   0.290356 0.794836 0.141766 0.000000
C94   C     C_R   0.306546 0.771779 0.185721 0.000000
C95   C     C_R   0.200038 0.752157 0.204746 0.000000
C96   C     C_R   0.079322 0.750287 0.178524 0.000000
C97   C     C_R   0.063725 0.780077 0.139158 0.000000
C98   C     C_R   0.213946 0.751986 0.256383 0.000000
N30   N     N_R   0.250395 0.795961 0.283105 0.000000
C99   C     C_R   0.283826 0.778877 0.328049 0.000000
C100  C     C_R   0.346358 0.807349 0.367036 0.000000
C101  C     C_R   0.416803 0.786166 0.404135 0.000000
N31   N     N_2   0.489907 0.817756 0.442485 0.000000
C102  C     C_R   0.433500 0.737612 0.397715 0.000000
C103  C     C_R   0.350749 0.706444 0.362574 0.000000
C104  C     C_R   0.273192 0.728405 0.327904 0.000000
N32   N     N_R   0.221828 0.709600 0.283241 0.000000
H78   H     H_    0.237050 0.851257 0.072524 0.000000
H79   H     H_    0.077319 0.853719 0.083869 0.000000
H80   H     H_    0.372849 0.813383 0.127393 0.000000
H81   H     H_    0.401721 0.773576 0.207327 0.000000
H82   H     H_    0.998895 0.729166 0.191971 0.000000
H83   H     H_    0.969925 0.786283 0.122627 0.000000
H84   H     H_    0.367693 0.846219 0.363681 0.000000
H85   H     H_    0.554392 0.845074 0.429569 0.000000
H86   H     H_    0.432536 0.834542 0.459550 0.000000
H87   H     H_    0.516372 0.724830 0.416874 0.000000
H88   H     H_    0.363295 0.668809 0.357565 0.000000
N33   N     N_2   0.338704 0.142930 0.630811 0.000000
C105  C     C_R   0.302837 0.185629 0.645950 0.000000
C106  C     C_R   0.385666 0.215864 0.681131 0.000000
C107  C     C_R   0.344211 0.253311 0.701978 0.000000
C108  C     C_R   0.222796 0.261158 0.686727 0.000000
C109  C     C_R   0.146116 0.234995 0.646710 0.000000
C110  C     C_R   0.184742 0.196233 0.627038 0.000000
C111  C     C_R   0.202731 0.309207 0.699897 0.000000
N34   N     N_R   0.242955 0.329549 0.746961 0.000000
C112  C     C_R   0.280116 0.376928 0.736323 0.000000
C113  C     C_R   0.364679 0.408724 0.767829 0.000000
C114  C     C_R   0.415336 0.452796 0.750887 0.000000
N35   N     N_2   0.508311 0.483516 0.783760 0.000000
C115  C     C_R   0.385746 0.464161 0.701571 0.000000
C116  C     C_R   0.301459 0.430203 0.669212 0.000000
C117  C     C_R   0.247904 0.386388 0.687928 0.000000
N36   N     N_R   0.196717 0.343715 0.663153 0.000000
H89   H     H_    0.410382 0.132750 0.656395 0.000000
H90   H     H_    0.261982 0.115068 0.617794 0.000000
H91   H     H_    0.480019 0.207908 0.692389 0.000000
H92   H     H_    0.403698 0.280184 0.728116 0.000000
H93   H     H_    0.055021 0.243827 0.631321 0.000000
H94   H     H_    0.125143 0.174912 0.596241 0.000000
H95   H     H_    0.402843 0.397587 0.803734 0.000000
H96   H     H_    0.552057 0.511681 0.765931 0.000000
H97   H     H_    0.565099 0.464974 0.808772 0.000000
H98   H     H_    0.438414 0.496533 0.687059 0.000000
H99   H     H_    0.292182 0.435016 0.630440 0.000000
N37   N     N_2   0.364572 0.101163 0.846625 0.000000
C118  C     C_R   0.273387 0.131765 0.843913 0.000000
C119  C     C_R   0.175300 0.128421 0.803924 0.000000
C120  C     C_R   0.085981 0.159167 0.800780 0.000000
C121  C     C_R   0.096594 0.192480 0.837624 0.000000
C122  C     C_R   0.195118 0.195519 0.877473 0.000000
C123  C     C_R   0.282726 0.164982 0.880869 0.000000
C124  C     C_R   0.031259 0.234166 0.831256 0.000000
N38   N     N_R   0.904218 0.231786 0.836217 0.000000
C125  C     C_R   0.912616 0.277256 0.855543 0.000000
C126  C     C_R   0.814933 0.298280 0.862385 0.000000
C127  C     C_R   0.840327 0.344280 0.885688 0.000000
N39   N     N_2   0.740894 0.368859 0.891066 0.000000
C128  C     C_R   0.965700 0.369003 0.899092 0.000000
C129  C     C_R   0.062998 0.350054 0.885431 0.000000
C130  C     C_R   0.032965 0.304289 0.862301 0.000000
N40   N     N_R   0.108977 0.279690 0.843682 0.000000
H100  H     H_    0.422049 0.101047 0.880517 0.000000
H101  H     H_    0.322739 0.066754 0.831972 0.000000
H102  H     H_    0.174939 0.102729 0.775183 0.000000
H103  H     H_    0.008556 0.159392 0.770327 0.000000
H104  H     H_    0.206499 0.223638 0.905317 0.000000
H105  H     H_    0.360315 0.168078 0.911762 0.000000
H106  H     H_    0.726183 0.279535 0.844588 0.000000
H107  H     H_    0.672097 0.367428 0.859879 0.000000
H108  H     H_    0.774718 0.404249 0.905174 0.000000
H109  H     H_    0.986898 0.404961 0.917093 0.000000
H110  H     H_    0.158051 0.370526 0.895573 0.000000
N41   N     N_2   0.769574 0.344928 0.030376 0.000000
C131  C     C_R   0.715739 0.323187 0.984091 0.000000
C132  C     C_R   0.620229 0.342057 0.953768 0.000000
C133  C     C_R   0.560141 0.317808 0.910525 0.000000
C134  C     C_R   0.597189 0.276728 0.896413 0.000000
C135  C     C_R   0.704716 0.261578 0.923694 0.000000
C136  C     C_R   0.760709 0.283824 0.968409 0.000000
C137  C     C_R   0.524282 0.254104 0.849722 0.000000
N42   N     N_R   0.405907 0.265665 0.829520 0.000000
C138  C     C_R   0.360665 0.230524 0.795136 0.000000
C139  C     C_R   0.241328 0.223429 0.766104 0.000000
C140  C     C_R   0.211099 0.184435 0.733313 0.000000
N43   N     N_2   0.090917 0.173751 0.702261 0.000000
C141  C     C_R   0.298103 0.154522 0.730572 0.000000
C142  C     C_R   0.419712 0.162973 0.759277 0.000000
C143  C     C_R   0.448549 0.201519 0.792253 0.000000
N44   N     N_R   0.559389 0.217201 0.824184 0.000000
H111  H     H_    0.707870 0.362532 0.044208 0.000000
H112  H     H_    0.816394 0.322043 0.054084 0.000000
H113  H     H_    0.594505 0.376127 0.963362 0.000000
H114  H     H_    0.492857 0.332313 0.883368 0.000000
H115  H     H_    0.746567 0.232602 0.911062 0.000000
H116  H     H_    0.840580 0.270706 0.990920 0.000000
H117  H     H_    0.173682 0.247045 0.769148 0.000000
H118  H     H_    0.049155 0.136936 0.704124 0.000000
H119  H     H_    0.032825 0.198711 0.704505 0.000000
H120  H     H_    0.267487 0.125753 0.703770 0.000000
H121  H     H_    0.487252 0.139863 0.755771 0.000000
N45   N     N_2   0.026045 0.521072 0.735267 0.000000
C144  C     C_R   0.077916 0.490628 0.771265 0.000000
C145  C     C_R   0.091894 0.503220 0.819249 0.000000
C146  C     C_R   0.179456 0.484099 0.853029 0.000000
C147  C     C_R   0.236137 0.448099 0.838166 0.000000
C148  C     C_R   0.182077 0.423866 0.795502 0.000000
C149  C     C_R   0.123585 0.450389 0.758468 0.000000
C150  C     C_R   0.334425 0.429863 0.871668 0.000000
N46   N     N_R   0.393427 0.457391 0.913598 0.000000
C151  C     C_R   0.422753 0.421071 0.944855 0.000000
C152  C     C_R   0.471048 0.425326 0.994216 0.000000
C153  C     C_R   0.470193 0.381693 0.020819 0.000000
N47   N     N_2   0.509709 0.383937 0.071954 0.000000
C154  C     C_R   0.427383 0.335463 0.997619 0.000000
C155  C     C_R   0.387163 0.331888 0.947418 0.000000
C156  C     C_R   0.386789 0.375364 0.921789 0.000000
N48   N     N_R   0.341659 0.379606 0.873523 0.000000
H122  H     H_    0.009607 0.553016 0.749487 0.000000
H123  H     H_    0.086025 0.527823 0.710674 0.000000
H124  H     H_    0.041443 0.530481 0.828389 0.000000
H125  H     H_    0.198322 0.493969 0.891216 0.000000
H126  H     H_    0.179149 0.384473 0.795329 0.000000
H127  H     H_    0.112698 0.440864 0.720358 0.000000
H128  H     H_    0.505957 0.461265 0.011940 0.000000
H129  H     H_    0.538873 0.352286 0.086779 0.000000
H130  H     H_    0.565414 0.417288 0.085133 0.000000
H131  H     H_    0.426524 0.301979 0.018992 0.000000
H132  H     H_    0.353163 0.296065 0.929291 0.000000
N49   N     N_2   0.963821 0.555982 0.645998 0.000000
C157  C     C_R   0.038076 0.526859 0.628212 0.000000
C158  C     C_R   0.993298 0.476679 0.623480 0.000000
C159  C     C_R   0.050177 0.447329 0.598997 0.000000
C160  C     C_R   0.148953 0.469942 0.577378 0.000000
C161  C     C_R   0.194477 0.520347 0.582038 0.000000
C162  C     C_R   0.137247 0.549008 0.606716 0.000000
C163  C     C_R   0.194953 0.443971 0.542778 0.000000
N50   N     N_R   0.204696 0.394031 0.544533 0.000000
C164  C     C_R   0.259908 0.390717 0.505380 0.000000
C165  C     C_R   0.294574 0.349549 0.488723 0.000000
C166  C     C_R   0.356911 0.355184 0.449322 0.000000
N51   N     N_2   0.396417 0.314052 0.431820 0.000000
C167  C     C_R   0.382999 0.401250 0.427446 0.000000
C168  C     C_R   0.346697 0.442401 0.444422 0.000000
C169  C     C_R   0.283818 0.435862 0.483096 0.000000
N52   N     N_R   0.239712 0.470390 0.504922 0.000000
H133  H     H_    0.017852 0.587361 0.664347 0.000000
H134  H     H_    0.900873 0.533292 0.663721 0.000000
H135  H     H_    0.905619 0.461991 0.634792 0.000000
H136  H     H_    0.010215 0.408183 0.592932 0.000000
H137  H     H_    0.270821 0.538072 0.564160 0.000000
H138  H     H_    0.163947 0.588723 0.606133 0.000000
H139  H     H_    0.275541 0.313939 0.505817 0.000000
H140  H     H_    0.466360 0.323691 0.411126 0.000000
H141  H     H_    0.411510 0.287447 0.457842 0.000000
H142  H     H_    0.432620 0.404984 0.397026 0.000000
H143  H     H_    0.367733 0.478425 0.427952 0.000000
N53   N     N_2   0.898712 0.436054 0.712076 0.000000
C170  C     C_R   0.892832 0.394530 0.682683 0.000000
C171  C     C_R   0.970821 0.360705 0.697273 0.000000
C172  C     C_R   0.951970 0.317317 0.671167 0.000000
C173  C     C_R   0.872098 0.311559 0.627165 0.000000
C174  C     C_R   0.789522 0.343815 0.612955 0.000000
C175  C     C_R   0.796874 0.384259 0.642085 0.000000
C176  C     C_R   0.885176 0.275215 0.592988 0.000000
N54   N     N_R   0.980665 0.289035 0.565896 0.000000
C177  C     C_R   0.919964 0.270726 0.521219 0.000000
C178  C     C_R   0.957877 0.280822 0.477010 0.000000
C179  C     C_R   0.878006 0.258032 0.435520 0.000000
N55   N     N_2   0.913856 0.266902 0.389695 0.000000
C180  C     C_R   0.762139 0.226862 0.438634 0.000000
C181  C     C_R   0.722761 0.219026 0.483050 0.000000
C182  C     C_R   0.802964 0.241967 0.523645 0.000000
N56   N     N_R   0.778459 0.242641 0.569073 0.000000
H144  H     H_    0.825934 0.454632 0.699091 0.000000
H145  H     H_    0.905838 0.427513 0.748260 0.000000
H146  H     H_    0.044273 0.367543 0.728988 0.000000
H147  H     H_    0.994707 0.286465 0.684134 0.000000
H148  H     H_    0.717881 0.336894 0.579838 0.000000
H149  H     H_    0.724765 0.406653 0.634862 0.000000
H150  H     H_    0.045725 0.306385 0.474204 0.000000
H151  H     H_    0.869096 0.239784 0.363896 0.000000
H152  H     H_    0.010948 0.278828 0.391759 0.000000
H153  H     H_    0.700698 0.209603 0.405859 0.000000
H154  H     H_    0.630783 0.196603 0.485425 0.000000
N57   N     N_2   0.927322 0.097397 0.511936 0.000000
C183  C     C_R   0.037449 0.135203 0.518145 0.000000
C184  C     C_R   0.024105 0.183893 0.512027 0.000000
C185  C     C_R   0.129605 0.221087 0.526026 0.000000
C186  C     C_R   0.248098 0.209901 0.540825 0.000000
C187  C     C_R   0.264361 0.161500 0.541718 0.000000
C188  C     C_R   0.157865 0.124060 0.533321 0.000000
C189  C     C_R   0.348747 0.248443 0.565309 0.000000
N58   N     N_R   0.321848 0.290376 0.585283 0.000000
C190  C     C_R   0.435166 0.307469 0.615051 0.000000
C191  C     C_R   0.463963 0.344680 0.649143 0.000000
C192  C     C_R   0.580816 0.350189 0.681329 0.000000
N59   N     N_2   0.610886 0.384935 0.719759 0.000000
C193  C     C_R   0.668185 0.320691 0.676900 0.000000
C194  C     C_R   0.637487 0.283704 0.642480 0.000000
C195  C     C_R   0.521341 0.278357 0.612403 0.000000
N60   N     N_R   0.472855 0.240811 0.581346 0.000000
H155  H     H_    0.843669 0.110721 0.509685 0.000000
H156  H     H_    0.936940 0.068709 0.535914 0.000000
H157  H     H_    0.929614 0.192021 0.499978 0.000000
H158  H     H_    0.123939 0.259249 0.529428 0.000000
H159  H     H_    0.358737 0.153044 0.553392 0.000000
H160  H     H_    0.169291 0.086545 0.541078 0.000000
H161  H     H_    0.398394 0.368551 0.650163 0.000000
H162  H     H_    0.704654 0.391618 0.737859 0.000000
H163  H     H_    0.537730 0.387294 0.737853 0.000000
H164  H     H_    0.761045 0.326507 0.699929 0.000000
H165  H     H_    0.700260 0.258382 0.640508 0.000000
N61   N     N_2   0.970165 0.989664 0.745654 0.000000
C196  C     C_R   0.919451 0.010847 0.781061 0.000000
C197  C     C_R   0.836739 0.981233 0.805886 0.000000
C198  C     C_R   0.765490 0.003147 0.831478 0.000000
C199  C     C_R   0.798273 0.053507 0.842262 0.000000
C200  C     C_R   0.888175 0.083040 0.820337 0.000000
C201  C     C_R   0.937067 0.061654 0.785528 0.000000
C202  C     C_R   0.733649 0.075391 0.874790 0.000000
N62   N     N_R   0.693251 0.048770 0.913276 0.000000
C203  C     C_R   0.638746 0.080452 0.933958 0.000000
C204  C     C_R   0.581462 0.072146 0.974156 0.000000
C205  C     C_R   0.539571 0.111561 0.991794 0.000000
N63   N     N_2   0.495792 0.107888 0.036328 0.000000
C206  C     C_R   0.540035 0.155001 0.965514 0.000000
C207  C     C_R   0.585042 0.160075 0.922156 0.000000
C208  C     C_R   0.643956 0.123850 0.908634 0.000000
N64   N     N_R   0.703801 0.122518 0.870033 0.000000
H166  H     H_    0.968827 0.010530 0.714466 0.000000
H167  H     H_    0.935273 0.952202 0.740182 0.000000
H168  H     H_    0.813347 0.941602 0.799144 0.000000
H169  H     H_    0.684094 0.979720 0.842210 0.000000
H170  H     H_    0.902380 0.122743 0.825327 0.000000
H171  H     H_    0.981970 0.083627 0.759285 0.000000
H172  H     H_    0.571641 0.036536 0.991999 0.000000
H173  H     H_    0.480974 0.141282 0.047972 0.000000
H174  H     H_    0.550135 0.089782 0.062574 0.000000
H175  H     H_    0.501786 0.184790 0.978506 0.000000
H176  H     H_    0.565441 0.189987 0.899258 0.000000
N65   N     N_2   0.887974 0.377772 0.813133 0.000000
C209  C     C_R   0.836151 0.335129 0.783513 0.000000
C210  C     C_R   0.705970 0.317467 0.773668 0.000000
C211  C     C_R   0.659039 0.273196 0.748922 0.000000
C212  C     C_R   0.736222 0.248853 0.728680 0.000000
C213  C     C_R   0.866201 0.264144 0.742454 0.000000
C214  C     C_R   0.916045 0.307414 0.768906 0.000000
C215  C     C_R   0.688083 0.198146 0.711766 0.000000
N66   N     N_R   0.693335 0.161608 0.746153 0.000000
C216  C     C_R   0.664435 0.120296 0.717327 0.000000
C217  C     C_R   0.681127 0.072445 0.727174 0.000000
C218  C     C_R   0.658368 0.039898 0.687830 0.000000
N67   N     N_2   0.698183 0.994167 0.693736 0.000000
C219  C     C_R   0.592065 0.051097 0.643168 0.000000
C220  C     C_R   0.570576 0.097832 0.634879 0.000000
C221  C     C_R   0.628193 0.132358 0.669836 0.000000
N68   N     N_R   0.647212 0.181089 0.663389 0.000000
H177  H     H_    0.826800 0.402039 0.814404 0.000000
H178  H     H_    0.983914 0.391675 0.814588 0.000000
H179  H     H_    0.641508 0.335446 0.788805 0.000000
H180  H     H_    0.564471 0.255569 0.749029 0.000000
H181  H     H_    0.928126 0.239296 0.737399 0.000000
H182  H     H_    0.017697 0.317605 0.780584 0.000000
H183  H     H_    0.718113 0.060118 0.762114 0.000000
H184  H     H_    0.771660 0.994442 0.675163 0.000000
H185  H     H_    0.726063 0.986972 0.729793 0.000000
H186  H     H_    0.557046 0.024185 0.614736 0.000000
H187  H     H_    0.500198 0.105670 0.604962 0.000000
N69   N     N_2   0.676856 0.721948 0.987449 0.000000
C222  C     C_R   0.700915 0.773596 0.995064 0.000000
C223  C     C_R   0.777524 0.792914 0.037730 0.000000
C224  C     C_R   0.791441 0.842460 0.047951 0.000000
C225  C     C_R   0.737152 0.873038 0.013679 0.000000
C226  C     C_R   0.672308 0.855031 0.968909 0.000000
C227  C     C_R   0.646039 0.804607 0.961147 0.000000
C228  C     C_R   0.720172 0.919962 0.030379 0.000000
N70   N     N_R   0.719945 0.927163 0.078971 0.000000
C229  C     C_R   0.739488 0.977275 0.082084 0.000000
C230  C     C_R   0.759507 0.006141 0.123441 0.000000
C231  C     C_R   0.788030 0.057307 0.118673 0.000000
N71   N     N_2   0.809493 0.088226 0.160195 0.000000
C232  C     C_R   0.799103 0.078349 0.073463 0.000000
C233  C     C_R   0.778565 0.048645 0.032169 0.000000
C234  C     C_R   0.744295 0.998127 0.037215 0.000000
N72   N     N_R   0.725235 0.962576 0.002621 0.000000
H188  H     H_    0.707363 0.702974 0.018229 0.000000
H189  H     H_    0.590125 0.707723 0.966091 0.000000
H190  H     H_    0.812371 0.768071 0.065300 0.000000
H191  H     H_    0.838794 0.856840 0.083881 0.000000
H192  H     H_    0.627941 0.879468 0.942901 0.000000
H193  H     H_    0.575035 0.790178 0.930383 0.000000
H194  H     H_    0.753786 0.989949 0.158665 0.000000
H195  H     H_    0.797389 0.124087 0.152202 0.000000
H196  H     H_    0.768728 0.071679 0.188418 0.000000
H197  H     H_    0.825558 0.118270 0.070632 0.000000
H198  H     H_    0.793596 0.064740 0.997656 0.000000
N73   N     N_2   0.378487 0.067175 0.706288 0.000000
C235  C     C_R   0.366540 0.046564 0.752032 0.000000
C236  C     C_R   0.252152 0.018361 0.758991 0.000000
C237  C     C_R   0.248476 0.989078 0.799877 0.000000
C238  C     C_R   0.364603 0.983181 0.828402 0.000000
C239  C     C_R   0.470062 0.018087 0.826068 0.000000
C240  C     C_R   0.471881 0.051180 0.788816 0.000000
C241  C     C_R   0.377319 0.941371 0.861809 0.000000
N74   N     N_R   0.271198 0.904616 0.864179 0.000000
C242  C     C_R   0.302042 0.887412 0.909192 0.000000
C243  C     C_R   0.222835 0.854579 0.932846 0.000000
C244  C     C_R   0.264217 0.847800 0.981931 0.000000
N75   N     N_2   0.207540 0.804919 0.004216 0.000000
C245  C     C_R   0.372851 0.879003 0.007020 0.000000
C246  C     C_R   0.450084 0.911988 0.982120 0.000000
C247  C     C_R   0.420156 0.911581 0.932066 0.000000
N76   N     N_R   0.479724 0.942143 0.901347 0.000000
H199  H     H_    0.299853 0.056513 0.678869 0.000000
H200  H     H_    0.466832 0.068166 0.697732 0.000000
H201  H     H_    0.169938 0.015858 0.730043 0.000000
H202  H     H_    0.160416 0.963678 0.802683 0.000000
H203  H     H_    0.551212 0.017003 0.852402 0.000000
H204  H     H_    0.559355 0.076498 0.786346 0.000000
H205  H     H_    0.133337 0.833409 0.913672 0.000000
H206  H     H_    0.272625 0.791979 0.030966 0.000000
H207  H     H_    0.155507 0.778491 0.978827 0.000000
H208  H     H_    0.399388 0.878244 0.046176 0.000000
H209  H     H_    0.522043 0.939820 0.002369 0.000000
N77   N     N_2   0.972785 0.765481 0.011523 0.000000
C248  C     C_R   0.941913 0.802466 0.978214 0.000000
C249  C     C_R   0.841382 0.790247 0.939636 0.000000
C250  C     C_R   0.799786 0.827109 0.909784 0.000000
C251  C     C_R   0.872194 0.873673 0.914806 0.000000
C252  C     C_R   0.976546 0.885200 0.951229 0.000000
C253  C     C_R   0.009200 0.850529 0.983930 0.000000
C254  C     C_R   0.862276 0.911674 0.879586 0.000000
N78   N     N_R   0.825461 0.952815 0.896432 0.000000
C255  C     C_R   0.928537 0.988687 0.895094 0.000000
C256  C     C_R   0.958915 0.032858 0.920893 0.000000
C257  C     C_R   0.081526 0.060237 0.925382 0.000000
N79   N     N_2   0.117019 0.104420 0.953534 0.000000
C258  C     C_R   0.173156 0.041416 0.907105 0.000000
C259  C     C_R   0.141764 0.996038 0.882818 0.000000
C260  C     C_R   0.016271 0.971381 0.874268 0.000000
N80   N     N_R   0.972458 0.923500 0.859631 0.000000
H210  H     H_    0.896970 0.736860 0.010619 0.000000
H211  H     H_    0.008836 0.778183 0.046356 0.000000
H212  H     H_    0.799383 0.751609 0.933668 0.000000
H213  H     H_    0.714060 0.821219 0.882678 0.000000
H214  H     H_    0.035256 0.921995 0.953255 0.000000
H215  H     H_    0.091199 0.862725 0.011196 0.000000
H216  H     H_    0.895264 0.043734 0.941891 0.000000
H217  H     H_    0.199112 0.127226 0.946934 0.000000
H218  H     H_    0.041279 0.121399 0.955850 0.000000
H219  H     H_    0.271960 0.060283 0.915597 0.000000
H220  H     H_    0.217378 0.978017 0.878030 0.000000
N81   N     N_2   0.957572 0.689783 0.949206 0.000000
C261  C     C_R   0.857068 0.664150 0.970667 0.000000
C262  C     C_R   0.879318 0.651903 0.019342 0.000000
C263  C     C_R   0.778394 0.630099 0.040745 0.000000
C264  C     C_R   0.656893 0.619044 0.012757 0.000000
C265  C     C_R   0.634950 0.630837 0.964341 0.000000
C266  C     C_R   0.734994 0.654425 0.943513 0.000000
C267  C     C_R   0.554158 0.588998 0.031967 0.000000
N82   N     N_R   0.542382 0.590395 0.080470 0.000000
C268  C     C_R   0.452029 0.549082 0.082523 0.000000
C269  C     C_R   0.403663 0.529782 0.122548 0.000000
C270  C     C_R   0.321176 0.484078 0.117454 0.000000
N83   N     N_2   0.273528 0.462363 0.158155 0.000000
C271  C     C_R   0.285530 0.459329 0.072642 0.000000
C272  C     C_R   0.326197 0.481095 0.031619 0.000000
C273  C     C_R   0.411154 0.525777 0.037730 0.000000
N84   N     N_R   0.470032 0.551364 0.003928 0.000000
H221  H     H_    0.047711 0.686863 0.967340 0.000000
H222  H     H_    0.939700 0.684752 0.912103 0.000000
H223  H     H_    0.975393 0.658993 0.040576 0.000000
H224  H     H_    0.795299 0.620238 0.078768 0.000000
H225  H     H_    0.538651 0.622002 0.943309 0.000000
H226  H     H_    0.719712 0.663947 0.905630 0.000000
H227  H     H_    0.429201 0.548592 0.157260 0.000000
H228  H     H_    0.243033 0.424419 0.155005 0.000000
H229  H     H_    0.328759 0.475602 0.191177 0.000000
H230  H     H_    0.221294 0.423594 0.069344 0.000000
H231  H     H_    0.295425 0.462630 0.996344 0.000000
N85   N     N_2   0.859314 0.442185 0.004674 0.000000
C274  C     C_R   0.931279 0.476908 0.978018 0.000000
C275  C     C_R   0.060575 0.492218 0.995073 0.000000
C276  C     C_R   0.133961 0.524039 0.967988 0.000000
C277  C     C_R   0.077099 0.540792 0.924155 0.000000
C278  C     C_R   0.947096 0.525817 0.907177 0.000000
C279  C     C_R   0.873641 0.494249 0.934352 0.000000
C280  C     C_R   0.153417 0.574674 0.895464 0.000000
N86   N     N_R   0.282163 0.574224 0.894644 0.000000
C281  C     C_R   0.299743 0.606394 0.858360 0.000000
C282  C     C_R   0.409179 0.624247 0.842723 0.000000
C283  C     C_R   0.396723 0.647305 0.797828 0.000000
N87   N     N_2   0.480823 0.645806 0.766100 0.000000
C284  C     C_R   0.283330 0.659987 0.776975 0.000000
C285  C     C_R   0.182364 0.653353 0.800265 0.000000
C286  C     C_R   0.192730 0.624402 0.839725 0.000000
N88   N     N_R   0.097452 0.606369 0.861804 0.000000
H232  H     H_    0.910763 0.415964 0.020175 0.000000
H233  H     H_    0.769531 0.428010 0.985211 0.000000
H234  H     H_    0.102699 0.479449 0.029986 0.000000
H235  H     H_    0.235012 0.537063 0.981022 0.000000
H236  H     H_    0.902796 0.538312 0.872311 0.000000
H237  H     H_    0.771674 0.482722 0.921101 0.000000
H238  H     H_    0.494922 0.617677 0.864999 0.000000
H239  H     H_    0.435886 0.648051 0.730480 0.000000
H240  H     H_    0.566939 0.669219 0.773278 0.000000
H241  H     H_    0.275154 0.670404 0.740504 0.000000
H242  H     H_    0.092390 0.663617 0.785291 0.000000
N89   N     N_2   0.338599 0.563747 0.679538 0.000000
C287  C     C_R   0.421444 0.565126 0.725102 0.000000
C288  C     C_R   0.549935 0.584914 0.729096 0.000000
C289  C     C_R   0.625554 0.593474 0.775250 0.000000
C290  C     C_R   0.576811 0.576358 0.815587 0.000000
C291  C     C_R   0.450371 0.552950 0.811010 0.000000
C292  C     C_R   0.372124 0.549104 0.765808 0.000000
C293  C     C_R   0.659928 0.581338 0.863134 0.000000
N90   N     N_R   0.790534 0.600915 0.869960 0.000000
C294  C     C_R   0.828187 0.591485 0.917686 0.000000
C295  C     C_R   0.950615 0.601643 0.944784 0.000000
C296  C     C_R   0.969114 0.587957 0.993222 0.000000
N91   N     N_2   0.093054 0.598185 0.022278 0.000000
C297  C     C_R   0.866399 0.564331 0.013493 0.000000
C298  C     C_R   0.743316 0.554185 0.985846 0.000000
C299  C     C_R   0.726480 0.568646 0.937907 0.000000
N92   N     N_R   0.615385 0.563725 0.905139 0.000000
H243  H     H_    0.379864 0.584594 0.653520 0.000000
H244  H     H_    0.250645 0.570464 0.683224 0.000000
H245  H     H_    0.585478 0.596511 0.696545 0.000000
H246  H     H_    0.715867 0.617840 0.781775 0.000000
H247  H     H_    0.412134 0.538866 0.842809 0.000000
H248  H     H_    0.272152 0.533429 0.762079 0.000000
H249  H     H_    0.030659 0.619629 0.929442 0.000000
H250  H     H_    0.104717 0.575803 0.052348 0.000000
H251  H     H_    0.165482 0.603759 0.002487 0.000000
H252  H     H_    0.883750 0.553985 0.051297 0.000000
H253  H     H_    0.664609 0.534638 0.001512 0.000000
N93   N     N_2   0.642984 0.674619 0.397057 0.000000
C300  C     C_R   0.751824 0.658258 0.422958 0.000000
C301  C     C_R   0.854649 0.692089 0.446284 0.000000
C302  C     C_R   0.942717 0.675891 0.482505 0.000000
C303  C     C_R   0.953252 0.626221 0.484578 0.000000
C304  C     C_R   0.855829 0.592825 0.456470 0.000000
C305  C     C_R   0.749476 0.608579 0.430105 0.000000
C306  C     C_R   0.022064 0.603584 0.527127 0.000000
N94   N     N_R   0.080824 0.564994 0.516173 0.000000
C307  C     C_R   0.001234 0.525142 0.528083 0.000000
C308  C     C_R   0.985914 0.478075 0.509564 0.000000
C309  C     C_R   0.892235 0.442015 0.522755 0.000000
N95   N     N_2   0.872864 0.393289 0.504076 0.000000
C310  C     C_R   0.814687 0.454161 0.552900 0.000000
C311  C     C_R   0.823576 0.503134 0.567239 0.000000
C312  C     C_R   0.917146 0.538643 0.553205 0.000000
N96   N     N_R   0.939565 0.588651 0.559130 0.000000
H254  H     H_    0.570064 0.647260 0.380147 0.000000
H255  H     H_    0.663964 0.707044 0.378716 0.000000
H256  H     H_    0.853865 0.731215 0.442190 0.000000
H257  H     H_    0.993061 0.702313 0.510566 0.000000
H258  H     H_    0.852898 0.553444 0.461878 0.000000
H259  H     H_    0.662471 0.582368 0.416161 0.000000
H260  H     H_    0.034540 0.470274 0.481336 0.000000
H261  H     H_    0.827143 0.366577 0.524520 0.000000
H262  H     H_    0.951387 0.385165 0.492398 0.000000
H263  H     H_    0.745153 0.424964 0.563960 0.000000
H264  H     H_    0.759821 0.512262 0.588890 0.000000
N97   N     N_2   0.556659 0.365231 0.517494 0.000000
C313  C     C_R   0.541227 0.414812 0.521328 0.000000
C314  C     C_R   0.612388 0.451931 0.498243 0.000000
C315  C     C_R   0.611965 0.501057 0.507511 0.000000
C316  C     C_R   0.534920 0.513240 0.537606 0.000000
C317  C     C_R   0.456078 0.476017 0.557635 0.000000
C318  C     C_R   0.464782 0.426913 0.551703 0.000000
C319  C     C_R   0.527640 0.565420 0.542821 0.000000
N98   N     N_R   0.636663 0.602708 0.554564 0.000000
C320  C     C_R   0.594075 0.641404 0.533868 0.000000
C321  C     C_R   0.669642 0.680734 0.518013 0.000000
C322  C     C_R   0.614606 0.718166 0.496441 0.000000
N99   N     N_2   0.694534 0.756312 0.475933 0.000000
C323  C     C_R   0.482281 0.714292 0.492293 0.000000
C324  C     C_R   0.408543 0.669116 0.500760 0.000000
C325  C     C_R   0.467167 0.631592 0.517800 0.000000
N100  N     N_R   0.418328 0.582855 0.520773 0.000000
H265  H     H_    0.491626 0.339063 0.531403 0.000000
H266  H     H_    0.581591 0.356677 0.485358 0.000000
H267  H     H_    0.673750 0.442598 0.474908 0.000000
H268  H     H_    0.669752 0.530180 0.490193 0.000000
H269  H     H_    0.397419 0.485375 0.581875 0.000000
H270  H     H_    0.418358 0.398301 0.573204 0.000000
H271  H     H_    0.762718 0.677170 0.513257 0.000000
H272  H     H_    0.658975 0.785921 0.460774 0.000000
H273  H     H_    0.785642 0.764706 0.496179 0.000000
H274  H     H_    0.432862 0.743322 0.477407 0.000000
H275  H     H_    0.310926 0.663546 0.498548 0.000000
N101  N     N_2   0.175435 0.778551 0.447391 0.000000
C326  C     C_R   0.139173 0.730717 0.427110 0.000000
C327  C     C_R   0.140047 0.691312 0.457396 0.000000
C328  C     C_R   0.139525 0.645592 0.439366 0.000000
C329  C     C_R   0.147092 0.641242 0.392310 0.000000
C330  C     C_R   0.109959 0.676439 0.359824 0.000000
C331  C     C_R   0.111616 0.723056 0.377531 0.000000
C332  C     C_R   0.188047 0.597867 0.378083 0.000000
N102  N     N_R   0.199326 0.557485 0.408836 0.000000
C333  C     C_R   0.186864 0.520801 0.375870 0.000000
C334  C     C_R   0.160119 0.470559 0.383333 0.000000
C335  C     C_R   0.141676 0.439072 0.343388 0.000000
N103  N     N_2   0.113971 0.387214 0.349595 0.000000
C336  C     C_R   0.146227 0.458240 0.296949 0.000000
C337  C     C_R   0.163818 0.509072 0.289474 0.000000
C338  C     C_R   0.181908 0.539401 0.329604 0.000000
N104  N     N_R   0.188486 0.589017 0.329818 0.000000
H276  H     H_    0.210161 0.779195 0.484342 0.000000
H277  H     H_    0.233690 0.801531 0.428234 0.000000
H278  H     H_    0.161101 0.697779 0.495610 0.000000
H279  H     H_    0.155459 0.614970 0.462374 0.000000
H280  H     H_    0.081705 0.667286 0.321684 0.000000
H281  H     H_    0.095426 0.753548 0.353666 0.000000
H282  H     H_    0.142725 0.456180 0.418142 0.000000
H283  H     H_    0.133728 0.367172 0.322211 0.000000
H284  H     H_    0.143705 0.376171 0.384769 0.000000
H285  H     H_    0.130433 0.433154 0.266124 0.000000
H286  H     H_    0.160666 0.524236 0.253206 0.000000
N105  N     N_2   0.056677 0.052722 0.640915 0.000000
C339  C     C_R   0.934481 0.061511 0.619301 0.000000
C340  C     C_R   0.907928 0.108990 0.616878 0.000000
C341  C     C_R   0.789494 0.117438 0.594339 0.000000
C342  C     C_R   0.698367 0.078413 0.572833 0.000000
C343  C     C_R   0.725624 0.032004 0.575056 0.000000
C344  C     C_R   0.841566 0.022591 0.598829 0.000000
C345  C     C_R   0.582902 0.087798 0.540860 0.000000
N106  N     N_R   0.554821 0.135321 0.538638 0.000000
C346  C     C_R   0.467304 0.132367 0.496872 0.000000
C347  C     C_R   0.409214 0.169877 0.475254 0.000000
C348  C     C_R   0.329633 0.160067 0.429955 0.000000
N107  N     N_2   0.268253 0.197371 0.406151 0.000000
C349  C     C_R   0.312831 0.114067 0.407100 0.000000
C350  C     C_R   0.369193 0.076242 0.430241 0.000000
C351  C     C_R   0.442699 0.085685 0.476113 0.000000
N108  N     N_R   0.508655 0.054647 0.504166 0.000000
H287  H     H_    0.101088 0.076278 0.669602 0.000000
H288  H     H_    0.058339 0.015706 0.647407 0.000000
H289  H     H_    0.979770 0.140361 0.630351 0.000000
H290  H     H_    0.771483 0.154941 0.590870 0.000000
H291  H     H_    0.653617 0.003944 0.557405 0.000000
H292  H     H_    0.860508 0.985208 0.600150 0.000000
H293  H     H_    0.427135 0.206143 0.492450 0.000000
H294  H     H_    0.190998 0.183857 0.379060 0.000000
H295  H     H_    0.253808 0.223156 0.429668 0.000000
H296  H     H_    0.254964 0.107731 0.370840 0.000000
H297  H     H_    0.362983 0.041992 0.411141 0.000000
N109  N     N_2   0.886630 0.706544 0.339344 0.000000
C352  C     C_R   0.838723 0.725883 0.293731 0.000000
C353  C     C_R   0.920500 0.751790 0.265330 0.000000
C354  C     C_R   0.870113 0.770669 0.221071 0.000000
C355  C     C_R   0.741354 0.757191 0.201833 0.000000
C356  C     C_R   0.660020 0.732224 0.230537 0.000000
C357  C     C_R   0.708307 0.719623 0.277562 0.000000
C358  C     C_R   0.694486 0.759307 0.149276 0.000000
N110  N     N_R   0.681262 0.802690 0.123039 0.000000
C359  C     C_R   0.608595 0.783764 0.080238 0.000000
C360  C     C_R   0.548005 0.808537 0.042086 0.000000
C361  C     C_R   0.465705 0.779823 0.004179 0.000000
N111  N     N_2   0.402828 0.801220 0.962745 0.000000
C362  C     C_R   0.446651 0.728947 0.005331 0.000000
C363  C     C_R   0.518601 0.705418 0.040637 0.000000
C364  C     C_R   0.589765 0.732982 0.079759 0.000000
N112  N     N_R   0.640032 0.715702 0.123000 0.000000
H298  H     H_    0.900946 0.732203 0.366909 0.000000
H299  H     H_    0.823275 0.676256 0.347959 0.000000
H300  H     H_    0.022767 0.759191 0.278041 0.000000
H301  H     H_    0.932224 0.793636 0.199846 0.000000
H302  H     H_    0.558408 0.721876 0.215887 0.000000
H303  H     H_    0.643761 0.701121 0.300297 0.000000
H304  H     H_    0.558014 0.848201 0.043383 0.000000
H305  H     H_    0.361963 0.776511 0.934382 0.000000
H306  H     H_    0.452043 0.834503 0.953576 0.000000
H307  H     H_    0.381728 0.707660 0.976220 0.000000
H308  H     H_    0.516080 0.666338 0.037537 0.000000
N113  N     N_2   0.605425 0.459003 0.327841 0.000000
C365  C     C_R   0.558564 0.497684 0.300367 0.000000
C366  C     C_R   0.610326 0.516154 0.260636 0.000000
C367  C     C_R   0.563825 0.553846 0.233552 0.000000
C368  C     C_R   0.463949 0.572665 0.245891 0.000000
C369  C     C_R   0.417392 0.555687 0.286532 0.000000
C370  C     C_R   0.463511 0.518203 0.313969 0.000000
C371  C     C_R   0.404311 0.609428 0.215404 0.000000
N114  N     N_R   0.452414 0.630214 0.175600 0.000000
C372  C     C_R   0.361153 0.654836 0.154966 0.000000
C373  C     C_R   0.340229 0.669898 0.108218 0.000000
C374  C     C_R   0.235098 0.691207 0.091592 0.000000
N115  N     N_2   0.213728 0.708677 0.043714 0.000000
C375  C     C_R   0.146814 0.692913 0.121084 0.000000
C376  C     C_R   0.165143 0.673248 0.167286 0.000000
C377  C     C_R   0.272574 0.653949 0.182818 0.000000
N116  N     N_R   0.295647 0.626194 0.222379 0.000000
H309  H     H_    0.696412 0.455839 0.324111 0.000000
H310  H     H_    0.587305 0.456772 0.362797 0.000000
H311  H     H_    0.687523 0.501130 0.250717 0.000000
H312  H     H_    0.607856 0.568769 0.203323 0.000000
H313  H     H_    0.350176 0.574638 0.297340 0.000000
H314  H     H_    0.425979 0.505224 0.346197 0.000000
H315  H     H_    0.393176 0.658051 0.084337 0.000000
H316  H     H_    0.129427 0.721480 0.035192 0.000000
H317  H     H_    0.232235 0.685524 0.018656 0.000000
H318  H     H_    0.058347 0.705068 0.106261 0.000000
H319  H     H_    0.094520 0.669611 0.189359 0.000000
N117  N     N_2   0.911564 0.445687 0.095141 0.000000
C378  C     C_R   0.910525 0.493349 0.112330 0.000000
C379  C     C_R   0.023503 0.523159 0.134292 0.000000
C380  C     C_R   0.020906 0.567523 0.155794 0.000000
C381  C     C_R   0.906687 0.583406 0.153610 0.000000
C382  C     C_R   0.794151 0.553870 0.130620 0.000000
C383  C     C_R   0.795777 0.508846 0.110188 0.000000
C384  C     C_R   0.897842 0.620418 0.188641 0.000000
N118  N     N_R   0.977334 0.621699 0.234220 0.000000
C385  C     C_R   0.896071 0.623539 0.264320 0.000000
C386  C     C_R   0.905181 0.603690 0.310140 0.000000
C387  C     C_R   0.795952 0.592733 0.329567 0.000000
N119  N     N_2   0.793865 0.560811 0.369802 0.000000
C388  C     C_R   0.686659 0.609784 0.307180 0.000000
C389  C     C_R   0.682428 0.631854 0.261931 0.000000
C390  C     C_R   0.781872 0.631429 0.238996 0.000000
N120  N     N_R   0.777401 0.630035 0.190467 0.000000
H320  H     H_    0.993855 0.432667 0.109657 0.000000
H321  H     H_    0.826720 0.421129 0.094977 0.000000
H322  H     H_    0.113173 0.510310 0.137431 0.000000
H323  H     H_    0.106909 0.587655 0.177705 0.000000
H324  H     H_    0.703708 0.563928 0.132695 0.000000
H325  H     H_    0.706896 0.485292 0.093624 0.000000
H326  H     H_    0.985731 0.588276 0.327004 0.000000
H327  H     H_    0.875262 0.545717 0.378959 0.000000
H328  H     H_    0.709961 0.534955 0.366232 0.000000
H329  H     H_    0.604060 0.603909 0.324136 0.000000
H330  H     H_    0.602740 0.646152 0.243294 0.000000
N121  N     N_2   0.561703 0.718951 0.886539 0.000000
C391  C     C_R   0.439888 0.731469 0.878533 0.000000
C392  C     C_R   0.420119 0.776642 0.858765 0.000000
C393  C     C_R   0.297298 0.786250 0.847572 0.000000
C394  C     C_R   0.196972 0.750664 0.857288 0.000000
C395  C     C_R   0.219775 0.708290 0.881728 0.000000
C396  C     C_R   0.341482 0.698698 0.892395 0.000000
C397  C     C_R   0.065131 0.756925 0.844970 0.000000
N122  N     N_R   0.027042 0.802888 0.839162 0.000000
C398  C     C_R   0.900139 0.789060 0.831557 0.000000
C399  C     C_R   0.815682 0.819897 0.818273 0.000000
C400  C     C_R   0.688621 0.798590 0.804300 0.000000
N123  N     N_2   0.598933 0.828726 0.786138 0.000000
C401  C     C_R   0.648621 0.747654 0.807931 0.000000
C402  C     C_R   0.737522 0.716944 0.823573 0.000000
C403  C     C_R   0.863362 0.738768 0.832726 0.000000
N124  N     N_R   0.964934 0.715950 0.839513 0.000000
H331  H     H_    0.633429 0.748245 0.885178 0.000000
H332  H     H_    0.565479 0.691709 0.863180 0.000000
H333  H     H_    0.500398 0.804311 0.852430 0.000000
H334  H     H_    0.279791 0.820860 0.830698 0.000000
H335  H     H_    0.141671 0.683613 0.893664 0.000000
H336  H     H_    0.362543 0.666917 0.913613 0.000000
H337  H     H_    0.848484 0.859179 0.815252 0.000000
H338  H     H_    0.506198 0.809531 0.777996 0.000000
H339  H     H_    0.614274 0.861952 0.804783 0.000000
H340  H     H_    0.546063 0.734289 0.799678 0.000000
H341  H     H_    0.714954 0.677520 0.829261 0.000000
N125  N     N_2   0.272339 0.820798 0.741782 0.000000
C404  C     C_R   0.179378 0.777768 0.734908 0.000000
C405  C     C_R   0.202769 0.738480 0.712004 0.000000
C406  C     C_R   0.106460 0.697820 0.699051 0.000000
C407  C     C_R   0.995945 0.694613 0.716152 0.000000
C408  C     C_R   0.975293 0.733122 0.742247 0.000000
C409  C     C_R   0.064579 0.776384 0.748339 0.000000
C410  C     C_R   0.909668 0.647471 0.712279 0.000000
N126  N     N_R   0.847846 0.623733 0.668005 0.000000
C411  C     C_R   0.780825 0.582936 0.684185 0.000000
C412  C     C_R   0.694975 0.547768 0.655994 0.000000
C413  C     C_R   0.653827 0.504094 0.677412 0.000000
N127  N     N_2   0.571458 0.466455 0.647524 0.000000
C414  C     C_R   0.697074 0.497353 0.726901 0.000000
C415  C     C_R   0.770173 0.536241 0.756447 0.000000
C416  C     C_R   0.812045 0.579026 0.733639 0.000000
N128  N     N_R   0.889129 0.620704 0.753785 0.000000
H342  H     H_    0.344887 0.815823 0.724903 0.000000
H343  H     H_    0.230153 0.849629 0.727805 0.000000
H344  H     H_    0.300520 0.739337 0.708848 0.000000
H345  H     H_    0.122456 0.664643 0.683111 0.000000
H346  H     H_    0.885882 0.730261 0.754515 0.000000
H347  H     H_    0.048304 0.809233 0.763664 0.000000
H348  H     H_    0.656974 0.554245 0.618691 0.000000
H349  H     H_    0.535044 0.435985 0.665570 0.000000
H350  H     H_    0.610979 0.459468 0.618521 0.000000
H351  H     H_    0.664390 0.463460 0.744256 0.000000
H352  H     H_    0.797207 0.532152 0.795427 0.000000

loop_
_geom_bond_atom_site_label_1
_geom_bond_atom_site_label_2
_geom_bond_distance
_geom_bond_site_symmetry_2
_ccdc_geom_bond_type
Zn1   N4    2.079 .      S
Zn1   N6    2.078 .      S
Zn1   N70   2.094 .      S
Zn1   N110  2.118 .      S
Zn2   N10   2.161 .      S
Zn2   N74   2.077 .      S
Zn2   N80   2.159 1_455  S
Zn2   N122  2.118 .      S
Zn3   N14   2.104 .      S
Zn3   N96   2.107 .      S
Zn3   N98   2.106 .      S
Zn3   N126  2.145 .      S
Zn4   N20   2.194 .      S
Zn4   N24   2.183 .      S
Zn4   N28   2.174 .      S
Zn4   N108  2.188 1_565  S
Zn5   N12   2.112 1_655  S
Zn5   N16   2.213 .      S
Zn5   N18   2.132 1_655  S
Zn5   N22   2.153 .      S
Zn6   N32   2.076 .      S
Zn6   N104  2.108 .      S
Zn6   N116  2.047 .      S
Zn6   N118  2.092 1_455  S
Zn7   N2    2.093 .      S
Zn7   N8    2.135 .      S
Zn7   N26   2.168 .      S
Zn7   N30   2.129 .      S
Zn8   N34   2.169 .      S
Zn8   N40   2.059 .      S
Zn8   N42   2.080 .      S
Zn8   N48   2.192 .      S
Zn9   N36   2.082 .      S
Zn9   N50   2.138 .      S
Zn9   N54   2.138 1_455  S
Zn9   N58   2.124 .      S
Zn10  N38   2.158 .      S
Zn10  N44   2.156 .      S
Zn10  N64   2.122 .      S
Zn10  N66   2.113 .      S
Zn11  N62   2.043 1_565  S
Zn11  N72   2.084 1_556  S
Zn11  N76   2.172 .      S
Zn11  N78   2.122 .      S
Zn12  N46   2.150 .      S
Zn12  N84   2.110 1_556  S
Zn12  N86   2.184 .      S
Zn12  N92   2.149 .      S
Zn13  N52   2.122 .      S
Zn13  N94   2.135 .      S
Zn13  N100  2.123 .      S
Zn13  N102  2.152 .      S
Zn14  N56   2.099 .      S
Zn14  N60   2.045 .      S
Zn14  N68   2.138 .      S
Zn14  N106  2.162 .      S
Zn15  N82   2.132 .      S
Zn15  N112  2.107 .      S
Zn15  N114  2.060 .      S
Zn15  N120  2.115 .      S
Zn16  N88   2.102 1_655  S
Zn16  N90   2.128 .      S
Zn16  N124  2.167 .      S
Zn16  N128  2.154 .      S
N1    C1    1.408 .      S
N1    H1    1.029 .      S
N1    H2    1.029 .      S
C2    H3    1.081 .      S
C3    H4    1.081 .      S
C4    C7    1.465 .      S
C5    H5    1.068 .      S
C6    H6    1.079 .      S
C9    H7    1.045 .      S
C10   N3    1.404 .      S
N3    H8    1.025 .      S
N3    H9    1.026 .      S
C11   H10   1.069 .      S
C12   H11   1.069 .      S
N5    C14   1.405 .      S
N5    H12   1.028 .      S
N5    H13   1.028 .      S
C15   H14   1.075 .      S
C16   H15   1.071 .      S
C17   C20   1.455 .      S
C18   H16   1.070 1_655  S
C19   H17   1.070 .      S
C22   H18   1.064 1_455  S
C23   N7    1.408 .      S
N7    H19   1.029 .      S
N7    H20   1.029 .      S
C24   H21   1.075 .      S
C25   H22   1.056 .      S
H16   C18   1.070 1_455  S
H18   C22   1.064 1_655  S
N9    C27   1.390 .      S
N9    H23   1.015 .      S
N9    H24   1.022 .      S
C28   H25   1.074 .      S
C29   H26   1.063 .      S
C30   C33   1.442 .      S
C31   H27   1.077 1_655  S
C32   H28   1.053 .      S
C35   H29   1.076 .      S
C36   N11   1.402 .      S
N11   H30   1.018 1_565  S
N11   H31   1.028 .      S
C37   H32   1.081 .      S
C38   H33   1.080 .      S
N12   Zn5   2.112 1_455  S
H27   C31   1.077 1_455  S
H30   N11   1.018 1_545  S
N13   C40   1.395 .      S
N13   H34   1.030 .      S
N13   H35   1.027 .      S
C41   H36   1.081 .      S
C42   H37   1.077 .      S
C43   C46   1.438 .      S
C44   H38   1.074 .      S
C45   H39   1.074 .      S
C48   H40   1.078 .      S
C49   N15   1.410 .      S
N15   H41   1.021 .      S
N15   H42   1.023 .      S
C50   H43   1.063 .      S
C51   H44   1.064 .      S
N17   C53   1.397 .      S
N17   H45   1.028 .      S
N17   H46   1.027 .      S
C54   H47   1.072 .      S
C55   H48   1.069 .      S
C56   C59   1.474 .      S
C57   H49   1.063 .      S
C58   H50   1.077 .      S
N18   Zn5   2.132 1_455  S
C61   H51   1.068 .      S
C62   N19   1.402 .      S
N19   H52   1.029 .      S
N19   H53   1.030 .      S
C63   H54   1.081 .      S
C64   H55   1.069 .      S
N21   C66   1.406 1_455  S
N21   H56   1.028 .      S
N21   H57   1.029 .      S
C66   N21   1.406 1_655  S
C67   H58   1.079 .      S
C68   H59   1.078 .      S
C69   C72   1.454 .      S
C70   H60   1.076 .      S
C71   H61   1.080 .      S
C74   H62   1.075 .      S
C75   N23   1.382 .      S
N23   H63   1.027 .      S
N23   H64   1.023 .      S
C76   H65   1.048 .      S
C77   H66   1.045 .      S
N25   C79   1.404 1_655  S
N25   H67   1.028 .      S
N25   H68   1.029 .      S
C79   N25   1.404 1_455  S
C80   H69   1.068 1_455  S
C81   H70   1.082 .      S
C82   C85   1.446 .      S
C83   H71   1.063 .      S
C84   H72   1.076 .      S
C87   H73   1.072 .      S
C88   N27   1.408 .      S
N27   H74   1.029 .      S
N27   H75   1.029 .      S
C89   H76   1.081 .      S
C90   H77   1.080 .      S
H69   C80   1.068 1_655  S
N29   C92   1.379 .      S
N29   H78   1.017 .      S
N29   H79   1.029 .      S
C93   H80   1.081 .      S
C94   H81   1.081 .      S
C95   C98   1.419 .      S
C96   H82   1.074 1_455  S
C97   H83   1.074 1_455  S
C100  H84   1.051 .      S
C101  N31   1.406 .      S
N31   H85   1.029 .      S
N31   H86   1.028 .      S
C102  H87   1.067 .      S
C103  H88   1.081 .      S
H82   C96   1.074 1_655  S
H83   C97   1.074 1_655  S
N33   C105  1.399 .      S
N33   H89   1.024 .      S
N33   H90   1.029 .      S
C106  H91   1.070 .      S
C107  H92   1.073 .      S
C108  C111  1.442 .      S
C109  H93   1.066 .      S
C110  H94   1.078 .      S
C113  H95   1.068 .      S
C114  N35   1.386 .      S
N35   H96   0.999 .      S
N35   H97   1.029 .      S
C115  H98   1.073 .      S
C116  H99   1.074 .      S
N37   C118  1.402 .      S
N37   H100  1.027 .      S
N37   H101  1.022 .      S
C119  H102  1.079 .      S
C120  H103  1.073 .      S
C121  C124  1.444 .      S
C122  H104  1.081 .      S
C123  H105  1.073 .      S
C126  H106  1.035 .      S
C127  N39   1.406 .      S
N39   H107  1.026 .      S
N39   H108  1.028 .      S
C128  H109  1.081 .      S
C129  H110  1.061 .      S
N41   C131  1.406 1_554  S
N41   H111  1.029 .      S
N41   H112  1.029 .      S
C131  N41   1.406 1_556  S
C132  H113  1.077 .      S
C133  H114  1.070 .      S
C134  C137  1.470 .      S
C135  H115  1.082 .      S
C136  H116  1.081 .      S
C139  H117  1.081 .      S
C140  N43   1.400 .      S
N43   H118  1.027 .      S
N43   H119  1.024 .      S
C141  H120  1.060 .      S
C142  H121  1.073 .      S
N45   C144  1.393 .      S
N45   H122  1.029 .      S
N45   H123  1.022 .      S
C145  H124  1.067 .      S
C146  H125  1.077 .      S
C147  C150  1.432 .      S
C148  H126  1.074 .      S
C149  H127  1.080 .      S
C152  H128  1.080 1_556  S
C153  N47   1.408 .      S
N47   H129  1.029 .      S
N47   H130  1.026 .      S
C154  H131  1.081 1_556  S
C155  H132  1.081 .      S
H128  C152  1.080 1_554  S
H131  C154  1.081 1_554  S
N49   C157  1.395 1_655  S
N49   H133  1.028 1_655  S
N49   H134  1.023 .      S
C157  N49   1.395 1_455  S
C158  H135  1.060 .      S
C159  H136  1.081 .      S
C160  C163  1.428 .      S
C161  H137  1.077 .      S
C162  H138  1.071 .      S
C165  H139  1.077 .      S
C166  N51   1.408 .      S
N51   H140  1.029 .      S
N51   H141  1.029 .      S
C167  H142  1.081 .      S
C168  H143  1.081 .      S
H133  N49   1.028 1_455  S
N53   C170  1.403 .      S
N53   H144  1.022 .      S
N53   H145  1.022 .      S
C171  H146  1.063 1_655  S
C172  H147  1.062 .      S
C173  C176  1.440 .      S
C174  H148  1.080 .      S
C175  H149  1.068 .      S
N54   Zn9   2.138 1_655  S
C178  H150  1.082 1_655  S
C179  N55   1.408 .      S
N55   H151  1.029 .      S
N55   H152  1.029 1_655  S
C180  H153  1.081 .      S
C181  H154  1.077 .      S
H146  C171  1.063 1_455  S
H150  C178  1.082 1_455  S
H152  N55   1.029 1_455  S
N57   C183  1.407 1_655  S
N57   H155  1.029 .      S
N57   H156  1.027 .      S
C183  N57   1.407 1_455  S
C184  H157  1.076 1_455  S
C185  H158  1.066 .      S
C186  C189  1.441 .      S
C187  H159  1.077 .      S
C188  H160  1.070 .      S
C191  H161  1.057 .      S
C192  N59   1.400 .      S
N59   H162  1.026 .      S
N59   H163  1.029 .      S
C193  H164  1.069 .      S
C194  H165  1.068 .      S
H157  C184  1.076 1_655  S
N61   C196  1.404 1_565  S
N61   H166  1.028 1_565  S
N61   H167  1.028 .      S
C196  N61   1.404 1_545  S
C197  H168  1.079 .      S
C198  H169  1.073 1_545  S
C199  C202  1.450 .      S
C200  H170  1.077 .      S
C201  H171  1.066 .      S
N62   Zn11  2.043 1_545  S
C204  H172  1.080 .      S
C205  N63   1.407 1_556  S
N63   C205  1.407 1_554  S
N63   H173  1.029 .      S
N63   H174  1.027 .      S
C206  H175  1.081 .      S
C207  H176  1.055 .      S
H166  N61   1.028 1_545  S
H169  C198  1.073 1_565  S
N65   C209  1.407 .      S
N65   H177  1.029 .      S
N65   H178  1.028 .      S
C210  H179  1.078 .      S
C211  H180  1.045 .      S
C212  C215  1.444 .      S
C213  H181  1.071 .      S
C214  H182  1.069 1_655  S
C217  H183  1.053 .      S
C218  N67   1.397 1_545  S
N67   C218  1.397 1_565  S
N67   H184  1.027 .      S
N67   H185  1.019 .      S
C219  H186  1.059 .      S
C220  H187  1.064 .      S
H182  C214  1.069 1_455  S
N69   C222  1.402 .      S
N69   H188  1.025 1_556  S
N69   H189  1.021 .      S
C223  H190  1.076 .      S
C224  H191  1.080 .      S
C225  C228  1.434 .      S
C226  H192  1.082 .      S
C227  H193  1.063 .      S
C230  H194  1.076 1_545  S
C231  N71   1.408 .      S
N71   H195  1.029 .      S
N71   H196  1.029 .      S
C232  H197  1.081 .      S
C233  H198  1.077 1_554  S
N72   Zn11  2.084 1_554  S
H188  N69   1.025 1_554  S
H194  C230  1.076 1_565  S
H198  C233  1.077 1_556  S
N73   C235  1.401 .      S
N73   H199  1.029 .      S
N73   H200  1.024 .      S
C236  H201  1.073 .      S
C237  H202  1.081 .      S
C238  C241  1.469 .      S
C239  H203  1.035 .      S
C240  H204  1.073 .      S
C243  H205  1.077 .      S
C244  N75   1.406 1_556  S
N75   C244  1.406 1_554  S
N75   H206  1.029 .      S
N75   H207  1.029 1_554  S
C245  H208  1.075 .      S
C246  H209  1.064 1_556  S
H207  N75   1.029 1_556  S
H209  C246  1.064 1_554  S
N77   C248  1.402 1_554  S
N77   H210  1.017 .      S
N77   H211  1.018 1_655  S
C248  N77   1.402 1_556  S
C249  H212  1.072 .      S
C250  H213  1.066 .      S
C251  C254  1.418 .      S
C252  H214  1.080 1_655  S
C253  H215  1.057 1_556  S
C256  H216  1.071 .      S
C257  N79   1.408 .      S
N79   H217  1.028 .      S
N79   H218  1.029 .      S
C258  H219  1.078 .      S
C259  H220  1.063 .      S
N80   Zn2   2.159 1_655  S
H211  N77   1.018 1_455  S
H214  C252  1.080 1_455  S
H215  C253  1.057 1_554  S
N81   C261  1.404 .      S
N81   H221  1.025 1_655  S
N81   H222  1.023 .      S
C262  H223  1.077 .      S
C263  H224  1.078 .      S
C264  C267  1.434 .      S
C265  H225  1.078 .      S
C266  H226  1.071 .      S
C269  H227  1.071 .      S
C270  N83   1.408 .      S
N83   H228  1.029 .      S
N83   H229  1.029 .      S
C271  H230  1.081 .      S
C272  H231  1.081 1_554  S
N84   Zn12  2.110 1_554  S
H221  N81   1.025 1_455  S
H231  C272  1.081 1_556  S
N85   C274  1.403 1_554  S
N85   H232  1.028 .      S
N85   H233  1.026 1_554  S
C274  N85   1.403 1_556  S
C275  H234  1.073 1_556  S
C276  H235  1.076 .      S
C277  C280  1.452 .      S
C278  H236  1.077 .      S
C279  H237  1.081 .      S
C282  H238  1.056 .      S
C283  N87   1.392 .      S
N87   H239  1.025 .      S
N87   H240  1.012 .      S
C284  H241  1.042 .      S
C285  H242  1.069 .      S
N88   Zn16  2.102 1_455  S
H233  N85   1.026 1_556  S
H234  C275  1.073 1_554  S
N89   C287  1.404 .      S
N89   H243  1.029 .      S
N89   H244  1.027 .      S
C288  H245  1.071 .      S
C289  H246  1.059 .      S
C290  C293  1.445 .      S
C291  H247  1.081 .      S
C292  H248  1.070 .      S
C295  H249  1.070 1_655  S
C296  N91   1.408 1_656  S
N91   C296  1.408 1_454  S
N91   H250  1.029 .      S
N91   H251  1.028 .      S
C297  H252  1.076 .      S
C298  H253  1.077 1_556  S
H249  C295  1.070 1_455  S
H253  C298  1.077 1_554  S
N93   C300  1.403 .      S
N93   H254  1.027 .      S
N93   H255  1.023 .      S
C301  H256  1.076 .      S
C302  H257  1.071 .      S
C303  C306  1.466 1_655  S
C304  H258  1.081 .      S
C305  H259  1.080 .      S
C306  C303  1.466 1_455  S
C308  H260  1.074 1_655  S
C309  N95   1.408 .      S
N95   H261  1.027 .      S
N95   H262  1.029 .      S
C310  H263  1.071 .      S
C311  H264  1.066 .      S
H260  C308  1.074 1_455  S
N97   C313  1.409 .      S
N97   H265  1.028 .      S
N97   H266  1.029 .      S
C314  H267  1.081 .      S
C315  H268  1.080 .      S
C316  C319  1.459 .      S
C317  H269  1.077 .      S
C318  H270  1.081 .      S
C321  H271  1.063 .      S
C322  N99   1.407 .      S
N99   H272  1.012 .      S
N99   H273  1.024 .      S
C323  H274  1.073 .      S
C324  H275  1.027 .      S
N101  C326  1.395 .      S
N101  H276  1.026 .      S
N101  H277  1.020 .      S
C327  H278  1.058 .      S
C328  H279  1.064 .      S
C329  C332  1.434 .      S
C330  H280  1.071 .      S
C331  H281  1.075 .      S
C334  H282  1.075 .      S
C335  N103  1.408 .      S
N103  H283  1.029 .      S
N103  H284  1.029 .      S
C336  H285  1.081 .      S
C337  H286  1.081 .      S
N105  C339  1.406 1_455  S
N105  H287  1.023 .      S
N105  H288  1.029 .      S
C339  N105  1.406 1_655  S
C340  H289  1.064 .      S
C341  H290  1.080 .      S
C342  C345  1.451 .      S
C343  H291  1.040 .      S
C344  H292  1.080 1_545  S
C347  H293  1.081 .      S
C348  N107  1.408 .      S
N107  H294  1.029 .      S
N107  H295  1.029 .      S
C349  H296  1.081 .      S
C350  H297  1.075 .      S
N108  Zn4   2.188 1_545  S
H292  C344  1.080 1_565  S
N109  C352  1.409 .      S
N109  H298  1.024 .      S
N109  H299  1.025 .      S
C353  H300  1.076 1_655  S
C354  H301  1.082 .      S
C355  C358  1.460 .      S
C356  H302  1.081 .      S
C357  H303  1.079 .      S
C360  H304  1.072 .      S
C361  N111  1.400 1_554  S
N111  C361  1.400 1_556  S
N111  H305  1.028 .      S
N111  H306  1.017 .      S
C362  H307  1.068 1_554  S
C363  H308  1.071 .      S
H300  C353  1.076 1_455  S
H307  C362  1.068 1_556  S
N113  C365  1.408 .      S
N113  H309  1.029 .      S
N113  H310  1.029 .      S
C366  H311  1.081 .      S
C367  H312  1.081 .      S
C368  C371  1.466 .      S
C369  H313  1.061 .      S
C370  H314  1.081 .      S
C373  H315  1.051 .      S
C374  N115  1.399 .      S
N115  H316  1.022 .      S
N115  H317  1.027 .      S
C375  H318  1.077 .      S
C376  H319  1.059 .      S
N117  C378  1.405 .      S
N117  H320  1.029 .      S
N117  H321  1.028 .      S
C379  H322  1.081 .      S
C380  H323  1.070 .      S
C381  C384  1.454 .      S
C382  H324  1.078 .      S
C383  H325  1.077 .      S
N118  Zn6   2.092 1_655  S
C386  H326  1.064 .      S
C387  N119  1.407 .      S
N119  H327  1.029 .      S
N119  H328  1.028 .      S
C388  H329  1.073 .      S
C389  H330  1.055 .      S
N121  C391  1.400 .      S
N121  H331  1.009 .      S
N121  H332  1.014 .      S
C392  H333  1.077 .      S
C393  H334  1.081 .      S
C394  C397  1.443 .      S
C395  H335  1.077 .      S
C396  H336  1.076 .      S
C399  H337  1.073 .      S
C400  N123  1.406 .      S
N123  H338  1.025 .      S
N123  H339  1.029 .      S
C401  H340  1.081 .      S
C402  H341  1.075 .      S
N125  C404  1.386 .      S
N125  H342  1.021 .      S
N125  H343  1.019 .      S
C405  H344  1.073 .      S
C406  H345  1.078 .      S
C407  C410  1.434 .      S
C408  H346  1.075 .      S
C409  H347  1.064 .      S
C412  H348  1.067 .      S
C413  N127  1.399 .      S
N127  H349  1.017 .      S
N127  H350  1.023 .      S
C414  H351  1.067 .      S
C415  H352  1.079 .      S
C1    C2    1.378 .      A
C1    C6    1.379 .      A
C2    C3    1.379 1_545  A
C3    C2    1.379 1_565  A
C3    C4    1.387 .      A
C4    C5    1.368 .      A
C5    C6    1.376 1_565  A
C6    C5    1.376 1_545  A
C7    N2    1.390 .      A
C7    N4    1.390 .      A
N2    C8    1.340 .      A
C8    C9    1.352 .      A
C8    C13   1.346 .      A
C9    C10   1.374 .      A
C10   C11   1.382 .      A
C11   C12   1.379 .      A
C12   C13   1.354 .      A
C13   N4    1.329 .      A
C14   C15   1.365 .      A
C14   C19   1.381 .      A
C15   C16   1.365 .      A
C16   C17   1.371 .      A
C17   C18   1.362 .      A
C18   C19   1.384 .      A
C20   N6    1.374 .      A
C20   N8    1.396 1_655  A
N6    C21   1.334 1_655  A
C21   N6    1.334 1_455  A
C21   C22   1.377 .      A
C21   C26   1.354 .      A
C22   C23   1.375 .      A
C23   C24   1.378 .      A
C24   C25   1.388 .      A
C25   C26   1.358 .      A
C26   N8    1.357 .      A
N8    C20   1.396 1_455  A
C27   C28   1.360 .      A
C27   C32   1.353 .      A
C28   C29   1.375 .      A
C29   C30   1.371 .      A
C30   C31   1.366 .      A
C31   C32   1.364 .      A
C33   N10   1.393 1_655  A
C33   N12   1.386 1_655  A
N10   C33   1.393 1_455  A
N10   C34   1.347 .      A
C34   C35   1.364 .      A
C34   C39   1.365 .      A
C35   C36   1.371 .      A
C36   C37   1.390 .      A
C37   C38   1.387 .      A
C38   C39   1.378 .      A
C39   N12   1.344 .      A
N12   C33   1.386 1_455  A
C40   C41   1.368 .      A
C40   C45   1.374 .      A
C41   C42   1.365 .      A
C42   C43   1.375 .      A
C43   C44   1.365 .      A
C44   C45   1.374 .      A
C46   N14   1.385 .      A
C46   N16   1.403 .      A
N14   C47   1.314 1_655  A
C47   N14   1.314 1_455  A
C47   C48   1.354 .      A
C47   C52   1.360 .      A
C48   C49   1.363 .      A
C49   C50   1.387 .      A
C50   C51   1.395 .      A
C51   C52   1.343 .      A
C52   N16   1.354 1_455  A
N16   C52   1.354 1_655  A
C53   C54   1.365 .      A
C53   C58   1.362 .      A
C54   C55   1.380 .      A
C55   C56   1.393 .      A
C56   C57   1.368 .      A
C57   C58   1.364 .      A
C59   N18   1.402 .      A
C59   N20   1.401 .      A
N18   C60   1.352 .      A
C60   C61   1.369 1_455  A
C60   C65   1.363 .      A
C61   C60   1.369 1_655  A
C61   C62   1.378 .      A
C62   C63   1.387 1_655  A
C63   C62   1.387 1_455  A
C63   C64   1.379 .      A
C64   C65   1.368 .      A
C65   N20   1.339 .      A
C66   C67   1.379 1_655  A
C66   C71   1.379 .      A
C67   C66   1.379 1_455  A
C67   C68   1.377 1_445  A
C68   C67   1.377 1_665  A
C68   C69   1.374 .      A
C69   C70   1.372 1_565  A
C70   C69   1.372 1_545  A
C70   C71   1.378 .      A
C72   N22   1.400 .      A
C72   N24   1.401 .      A
N22   C73   1.323 .      A
C73   C74   1.350 .      A
C73   C78   1.359 .      A
C74   C75   1.366 .      A
C75   C76   1.373 .      A
C76   C77   1.348 .      A
C77   C78   1.347 .      A
C78   N24   1.336 .      A
C79   C80   1.381 .      A
C79   C84   1.375 .      A
C80   C81   1.374 .      A
C81   C82   1.374 .      A
C82   C83   1.346 .      A
C83   C84   1.374 .      A
C85   N26   1.392 .      A
C85   N28   1.397 .      A
N26   C86   1.355 .      A
C86   C87   1.372 .      A
C86   C91   1.377 .      A
C87   C88   1.385 1_565  A
C88   C87   1.385 1_545  A
C88   C89   1.390 .      A
C89   C90   1.384 .      A
C90   C91   1.376 1_545  A
C91   C90   1.376 1_565  A
C91   N28   1.347 .      A
C92   C93   1.371 .      A
C92   C97   1.365 .      A
C93   C94   1.362 .      A
C94   C95   1.372 .      A
C95   C96   1.361 .      A
C96   C97   1.355 .      A
C98   N30   1.383 .      A
C98   N32   1.374 .      A
N30   C99   1.335 .      A
C99   C100  1.344 .      A
C99   C104  1.365 .      A
C100  C101  1.351 .      A
C101  C102  1.396 .      A
C102  C103  1.379 .      A
C103  C104  1.361 .      A
C104  N32   1.335 .      A
C105  C106  1.367 .      A
C105  C110  1.367 .      A
C106  C107  1.377 .      A
C107  C108  1.356 .      A
C108  C109  1.380 .      A
C109  C110  1.375 .      A
C111  N34   1.395 .      A
C111  N36   1.378 .      A
N34   C112  1.327 .      A
C112  C113  1.338 .      A
C112  C117  1.359 .      A
C113  C114  1.341 .      A
C114  C115  1.393 .      A
C115  C116  1.383 .      A
C116  C117  1.367 .      A
C117  N36   1.340 .      A
C118  C119  1.375 .      A
C118  C123  1.368 .      A
C119  C120  1.387 .      A
C120  C121  1.365 .      A
C121  C122  1.376 .      A
C122  C123  1.368 .      A
C124  N38   1.396 1_455  A
C124  N40   1.375 .      A
N38   C124  1.396 1_655  A
N38   C125  1.350 .      A
C125  C126  1.341 .      A
C125  C130  1.350 1_655  A
C126  C127  1.387 .      A
C127  C128  1.379 .      A
C128  C129  1.376 1_655  A
C129  C128  1.376 1_455  A
C129  C130  1.377 .      A
C130  C125  1.350 1_455  A
C130  N40   1.339 .      A
C131  C132  1.377 .      A
C131  C136  1.377 .      A
C132  C133  1.375 .      A
C133  C134  1.355 .      A
C134  C135  1.390 .      A
C135  C136  1.378 .      A
C137  N42   1.388 .      A
C137  N44   1.400 .      A
N42   C138  1.331 .      A
C138  C139  1.367 .      A
C138  C143  1.365 .      A
C139  C140  1.373 .      A
C140  C141  1.374 .      A
C141  C142  1.383 .      A
C142  C143  1.367 .      A
C143  N44   1.351 .      A
C144  C145  1.363 .      A
C144  C149  1.372 .      A
C145  C146  1.372 .      A
C146  C147  1.367 .      A
C147  C148  1.350 .      A
C148  C149  1.372 .      A
C150  N46   1.384 .      A
C150  N48   1.393 .      A
N46   C151  1.350 .      A
C151  C152  1.375 .      A
C151  C156  1.375 .      A
C152  C153  1.391 1_556  A
C153  C152  1.391 1_554  A
C153  C154  1.392 1_554  A
C154  C153  1.392 1_556  A
C154  C155  1.384 .      A
C155  C156  1.374 .      A
C156  N48   1.351 .      A
C157  C158  1.368 1_455  A
C157  C162  1.363 .      A
C158  C157  1.368 1_655  A
C158  C159  1.367 1_655  A
C159  C158  1.367 1_455  A
C159  C160  1.365 .      A
C160  C161  1.375 .      A
C161  C162  1.360 .      A
C163  N50   1.391 .      A
C163  N52   1.378 .      A
N50   C164  1.354 .      A
C164  C165  1.372 .      A
C164  C169  1.373 .      A
C165  C166  1.387 .      A
C166  C167  1.391 .      A
C167  C168  1.384 .      A
C168  C169  1.373 .      A
C169  N52   1.344 .      A
C170  C171  1.373 .      A
C170  C175  1.375 .      A
C171  C172  1.370 .      A
C172  C173  1.352 .      A
C173  C174  1.372 .      A
C174  C175  1.371 .      A
C176  N54   1.385 .      A
C176  N56   1.383 .      A
N54   C177  1.351 .      A
C177  C178  1.378 .      A
C177  C182  1.369 .      A
C178  C179  1.386 .      A
C179  C180  1.391 .      A
C180  C181  1.385 .      A
C181  C182  1.371 .      A
C182  N56   1.345 .      A
C183  C184  1.372 .      A
C183  C188  1.379 .      A
C184  C185  1.377 .      A
C185  C186  1.359 .      A
C186  C187  1.369 .      A
C187  C188  1.374 .      A
C189  N58   1.391 .      A
C189  N60   1.385 .      A
N58   C190  1.349 .      A
C190  C191  1.361 .      A
C190  C195  1.350 .      A
C191  C192  1.387 .      A
C192  C193  1.379 .      A
C193  C194  1.362 .      A
C194  C195  1.354 .      A
C195  N60   1.321 .      A
C196  C197  1.368 1_545  A
C196  C201  1.374 .      A
C197  C196  1.368 1_565  A
C197  C198  1.369 1_565  A
C198  C197  1.369 1_545  A
C198  C199  1.383 .      A
C199  C200  1.370 .      A
C200  C201  1.382 .      A
C202  N62   1.377 .      A
C202  N64   1.387 .      A
N62   C203  1.336 .      A
C203  C204  1.376 .      A
C203  C208  1.365 .      A
C204  C205  1.383 .      A
C205  C206  1.382 .      A
C206  C207  1.382 .      A
C207  C208  1.373 .      A
C208  N64   1.363 .      A
C209  C210  1.374 .      A
C209  C214  1.375 .      A
C210  C211  1.370 .      A
C211  C212  1.368 .      A
C212  C213  1.369 .      A
C213  C214  1.373 .      A
C215  N66   1.371 .      A
C215  N68   1.399 .      A
N66   C216  1.356 .      A
C216  C217  1.371 .      A
C216  C221  1.359 .      A
C217  C218  1.386 .      A
C218  C219  1.372 .      A
C219  C220  1.351 .      A
C220  C221  1.349 .      A
C221  N68   1.324 .      A
C222  C223  1.366 1_556  A
C222  C227  1.381 .      A
C223  C222  1.366 1_554  A
C223  C224  1.368 .      A
C224  C225  1.376 .      A
C225  C226  1.362 1_554  A
C226  C225  1.362 1_556  A
C226  C227  1.370 .      A
C228  N70   1.375 .      A
C228  N72   1.383 .      A
N70   C229  1.351 .      A
C229  C230  1.373 1_565  A
C229  C234  1.369 .      A
C230  C229  1.373 1_545  A
C230  C231  1.385 .      A
C231  C232  1.390 .      A
C232  C233  1.385 .      A
C233  C234  1.373 1_545  A
C234  C233  1.373 1_565  A
C234  N72   1.347 .      A
C235  C236  1.373 .      A
C235  C240  1.367 .      A
C236  C237  1.380 1_545  A
C237  C236  1.380 1_565  A
C237  C238  1.387 .      A
C238  C239  1.352 1_565  A
C239  C238  1.352 1_545  A
C239  C240  1.363 .      A
C241  N74   1.385 .      A
C241  N76   1.402 .      A
N74   C242  1.334 .      A
C242  C243  1.368 .      A
C242  C247  1.364 .      A
C243  C244  1.376 .      A
C244  C245  1.389 1_556  A
C245  C244  1.389 1_554  A
C245  C246  1.378 1_554  A
C246  C245  1.378 1_556  A
C246  C247  1.371 .      A
C247  N76   1.349 .      A
C248  C249  1.371 .      A
C248  C253  1.374 1_655  A
C249  C250  1.380 .      A
C250  C251  1.358 .      A
C251  C252  1.358 .      A
C252  C253  1.349 1_655  A
C253  C248  1.374 1_455  A
C253  C252  1.349 1_455  A
C254  N78   1.385 .      A
C254  N80   1.390 .      A
N78   C255  1.343 .      A
C255  C256  1.375 1_565  A
C255  C260  1.364 1_655  A
C256  C255  1.375 1_545  A
C256  C257  1.377 1_655  A
C257  C256  1.377 1_455  A
C257  C258  1.382 .      A
C258  C259  1.382 1_545  A
C259  C258  1.382 1_565  A
C259  C260  1.374 .      A
C260  C255  1.364 1_455  A
C260  N80   1.351 1_455  A
N80   C260  1.351 1_655  A
C261  C262  1.377 1_556  A
C261  C266  1.371 .      A
C262  C261  1.377 1_554  A
C262  C263  1.374 .      A
C263  C264  1.376 .      A
C264  C265  1.367 1_554  A
C265  C264  1.367 1_556  A
C265  C266  1.371 .      A
C267  N82   1.385 .      A
C267  N84   1.382 .      A
N82   C268  1.354 .      A
C268  C269  1.374 .      A
C268  C273  1.372 .      A
C269  C270  1.384 .      A
C270  C271  1.388 .      A
C271  C272  1.385 .      A
C272  C273  1.375 .      A
C273  N84   1.346 .      A
C274  C275  1.374 1_655  A
C274  C279  1.375 .      A
C275  C274  1.374 1_455  A
C275  C276  1.376 .      A
C276  C277  1.369 .      A
C277  C278  1.379 1_455  A
C278  C277  1.379 1_655  A
C278  C279  1.375 .      A
C280  N86   1.399 .      A
C280  N88   1.394 .      A
N86   C281  1.343 .      A
C281  C282  1.340 .      A
C281  C286  1.352 .      A
C282  C283  1.383 .      A
C283  C284  1.357 .      A
C284  C285  1.356 .      A
C285  C286  1.340 .      A
C286  N88   1.311 .      A
C287  C288  1.376 .      A
C287  C292  1.373 .      A
C288  C289  1.385 .      A
C289  C290  1.368 .      A
C290  C291  1.378 .      A
C291  C292  1.371 .      A
C293  N90   1.389 .      A
C293  N92   1.392 .      A
N90   C294  1.349 .      A
C294  C295  1.373 .      A
C294  C299  1.370 .      A
C295  C296  1.381 .      A
C296  C297  1.386 1_556  A
C297  C296  1.386 1_554  A
C297  C298  1.385 1_554  A
C298  C297  1.385 1_556  A
C298  C299  1.373 .      A
C299  N92   1.349 .      A
C300  C301  1.370 .      A
C300  C305  1.367 .      A
C301  C302  1.376 .      A
C302  C303  1.386 .      A
C303  C304  1.382 .      A
C304  C305  1.378 .      A
C306  N94   1.401 .      A
C306  N96   1.382 1_455  A
N94   C307  1.332 .      A
C307  C308  1.369 1_455  A
C307  C312  1.357 1_455  A
C308  C307  1.369 1_655  A
C308  C309  1.371 .      A
C309  C310  1.383 .      A
C310  C311  1.390 .      A
C311  C312  1.371 .      A
C312  C307  1.357 1_655  A
C312  N96   1.353 .      A
N96   C306  1.382 1_655  A
C313  C314  1.378 .      A
C313  C318  1.378 .      A
C314  C315  1.378 .      A
C315  C316  1.378 .      A
C316  C317  1.379 .      A
C317  C318  1.382 .      A
C319  N98   1.396 .      A
C319  N100  1.388 .      A
N98   C320  1.313 .      A
C320  C321  1.343 .      A
C320  C325  1.336 .      A
C321  C322  1.354 .      A
C322  C323  1.397 .      A
C323  C324  1.380 .      A
C324  C325  1.339 .      A
C325  N100  1.345 .      A
C326  C327  1.354 .      A
C326  C331  1.370 .      A
C327  C328  1.360 .      A
C328  C329  1.340 .      A
C329  C330  1.370 .      A
C330  C331  1.376 .      A
C332  N102  1.392 .      A
C332  N104  1.375 .      A
N102  C333  1.349 .      A
C333  C334  1.370 .      A
C333  C338  1.371 .      A
C334  C335  1.386 .      A
C335  C336  1.392 .      A
C336  C337  1.385 .      A
C337  C338  1.372 .      A
C338  N104  1.347 .      A
C339  C340  1.382 .      A
C339  C344  1.368 .      A
C340  C341  1.373 .      A
C341  C342  1.369 .      A
C342  C343  1.356 .      A
C343  C344  1.369 .      A
C345  N106  1.389 .      A
C345  N108  1.403 .      A
N106  C346  1.346 .      A
C346  C347  1.373 .      A
C346  C351  1.374 .      A
C347  C348  1.386 .      A
C348  C349  1.391 .      A
C349  C350  1.385 .      A
C350  C351  1.372 .      A
C351  N108  1.352 .      A
C352  C353  1.384 .      A
C352  C357  1.374 .      A
C353  C354  1.381 .      A
C354  C355  1.374 .      A
C355  C356  1.377 .      A
C356  C357  1.377 .      A
C358  N110  1.396 .      A
C358  N112  1.385 .      A
N110  C359  1.351 .      A
C359  C360  1.374 .      A
C359  C364  1.367 .      A
C360  C361  1.393 .      A
C361  C362  1.370 .      A
C362  C363  1.363 .      A
C363  C364  1.360 .      A
C364  N112  1.339 .      A
C365  C366  1.378 .      A
C365  C370  1.378 .      A
C366  C367  1.380 .      A
C367  C368  1.384 .      A
C368  C369  1.363 .      A
C369  C370  1.378 .      A
C371  N114  1.380 .      A
C371  N116  1.389 .      A
N114  C372  1.333 .      A
C372  C373  1.348 .      A
C372  C377  1.341 .      A
C373  C374  1.373 .      A
C374  C375  1.382 .      A
C375  C376  1.378 .      A
C376  C377  1.359 .      A
C377  N116  1.335 .      A
C378  C379  1.375 1_655  A
C378  C383  1.377 .      A
C379  C378  1.375 1_455  A
C379  C380  1.376 .      A
C380  C381  1.376 1_455  A
C381  C380  1.376 1_655  A
C381  C382  1.377 .      A
C382  C383  1.376 .      A
C384  N118  1.388 .      A
C384  N120  1.388 .      A
N118  C385  1.335 .      A
C385  C386  1.370 .      A
C385  C390  1.353 .      A
C386  C387  1.372 .      A
C387  C388  1.385 .      A
C388  C389  1.383 .      A
C389  C390  1.355 .      A
C390  N120  1.346 .      A
C391  C392  1.379 .      A
C391  C396  1.365 .      A
C392  C393  1.379 .      A
C393  C394  1.377 .      A
C394  C395  1.371 .      A
C395  C396  1.367 .      A
C397  N122  1.394 .      A
C397  N124  1.392 1_455  A
N122  C398  1.328 1_455  A
C398  N122  1.328 1_655  A
C398  C399  1.354 .      A
C398  C403  1.360 .      A
C399  C400  1.371 .      A
C400  C401  1.387 .      A
C401  C402  1.397 .      A
C402  C403  1.355 .      A
C403  N124  1.345 .      A
N124  C397  1.392 1_655  A
C404  C405  1.353 .      A
C404  C409  1.358 .      A
C405  C406  1.374 .      A
C406  C407  1.357 1_455  A
C407  C406  1.357 1_655  A
C407  C408  1.372 .      A
C408  C409  1.369 1_655  A
C409  C408  1.369 1_455  A
C410  N126  1.397 .      A
C410  N128  1.386 .      A
N126  C411  1.330 .      A
C411  C412  1.350 .      A
C411  C416  1.362 .      A
C412  C413  1.360 .      A
C413  C414  1.390 .      A
C414  C415  1.382 .      A
C415  C416  1.362 .      A
C416  N128  1.342 .      A
