data_str_m1_o12014_ATS
_audit_creation_date              2015-10-01T06:35:08-0700
_symmetry_space_group_name_H-M    P1
_symmetry_Int_Tables_number       1
_space_group_crystal_system       triclinic
loop_
_symmetry_equiv_pos_as_xyz
  x,y,z
_cell_length_a                    11.0452177
_cell_length_b                    24.6853926
_cell_length_c                    25.6005474
_cell_angle_alpha                 116.259023
_cell_angle_beta                  95.9156030
_cell_angle_gamma                 78.5018548
_cell_volume                      6133.29758797

loop_
_atom_site_label
_atom_site_type_symbol
_atom_site_description
_atom_site_fract_x
_atom_site_fract_y
_atom_site_fract_z
_atom_type_partial_charge
Zn1   Zn    Zn3+2 0.918970 0.148278 0.066419 0.000000
Zn2   Zn    Zn3+2 0.364840 0.994597 0.730237 0.000000
Zn3   Zn    Zn3+2 0.994542 0.591189 0.540120 0.000000
Zn4   Zn    Zn3+2 0.017103 0.535526 0.025896 0.000000
Zn5   Zn    Zn3+2 0.770426 0.701504 0.888665 0.000000
Zn6   Zn    Zn3+2 0.521726 0.430129 0.910689 0.000000
Zn7   Zn    Zn3+2 0.795936 0.149803 0.818318 0.000000
Zn8   Zn    Zn3+2 0.309534 0.539851 0.263543 0.000000
Zn9   Zn    Zn3+2 0.497863 0.990639 0.979565 0.000000
Zn10  Zn    Zn3+2 0.274710 0.596748 0.778743 0.000000
Zn11  Zn    Zn3+2 0.440917 0.711198 0.524698 0.000000
Zn12  Zn    Zn3+2 0.865870 0.426280 0.279476 0.000000
C1    C     C_3   0.939311 0.725582 0.084710 0.000000
C2    C     C_3   0.840013 0.693331 0.044358 0.000000
C3    C     C_3   0.741567 0.742124 0.038245 0.000000
C4    C     C_R   0.896025 0.646545 0.987352 0.000000
N1    N     N_R   0.860296 0.647812 0.933913 0.000000
C5    C     C_R   0.918226 0.592505 0.896383 0.000000
C6    C     C_R   0.869815 0.556451 0.843133 0.000000
C7    C     C_R   0.923429 0.495427 0.813974 0.000000
C8    C     C_R   0.026498 0.471762 0.837253 0.000000
C9    C     C_R   0.064566 0.506283 0.893292 0.000000
C10   C     C_R   0.000184 0.564876 0.924552 0.000000
N2    N     N_R   0.980630 0.594276 0.982696 0.000000
C11   C     C_2   0.088345 0.408676 0.804051 0.000000
O1    O     O_2   0.058784 0.380210 0.753270 0.000000
O2    O     O_2   0.170849 0.380439 0.830384 0.000000
H1    H     H_    0.974010 0.751516 0.065549 0.000000
H2    H     H_    0.900520 0.757980 0.127868 0.000000
H3    H     H_    0.017608 0.692847 0.089625 0.000000
H4    H     H_    0.793287 0.670171 0.062549 0.000000
H5    H     H_    0.649133 0.732064 0.039235 0.000000
H6    H     H_    0.749175 0.787450 0.074762 0.000000
H7    H     H_    0.754690 0.743688 0.997592 0.000000
H8    H     H_    0.778898 0.570922 0.829848 0.000000
H9    H     H_    0.883421 0.464975 0.773933 0.000000
H10   H     H_    0.144598 0.486542 0.909190 0.000000
H11   H     H_    0.202748 0.337272 0.809086 0.000000
C12   C     C_3   0.870448 0.404780 0.861823 0.000000
C13   C     C_3   0.801695 0.469106 0.896061 0.000000
C14   C     C_3   0.687532 0.477985 0.862218 0.000000
C15   C     C_R   0.771952 0.481062 0.955600 0.000000
N3    N     N_R   0.666102 0.467000 0.967172 0.000000
C16   C     C_R   0.684876 0.477251 0.023745 0.000000
C17   C     C_R   0.616160 0.465880 0.058859 0.000000
C18   C     C_R   0.672496 0.465840 0.109794 0.000000
C19   C     C_R   0.792162 0.478068 0.124653 0.000000
C20   C     C_R   0.847016 0.499639 0.094518 0.000000
C21   C     C_R   0.795132 0.496216 0.043576 0.000000
N4    N     N_R   0.853972 0.499360 0.002566 0.000000
C22   C     C_2   0.873766 0.457725 0.163211 0.000000
O3    O     O_2   0.835126 0.434459 0.189683 0.000000
O4    O     O_2   0.996372 0.452254 0.158445 0.000000
H12   H     H_    0.811801 0.370957 0.856094 0.000000
H13   H     H_    0.885114 0.398730 0.817390 0.000000
H14   H     H_    0.960153 0.396929 0.883387 0.000000
H15   H     H_    0.853807 0.503629 0.901757 0.000000
H16   H     H_    0.626773 0.518214 0.891920 0.000000
H17   H     H_    0.711438 0.487485 0.826681 0.000000
H18   H     H_    0.647196 0.435635 0.844057 0.000000
H19   H     H_    0.530654 0.448241 0.044561 0.000000
H20   H     H_    0.624864 0.452360 0.135269 0.000000
H21   H     H_    0.937827 0.508725 0.105681 0.000000
H22   H     H_    0.055163 0.427942 0.173380 0.000000
C23   C     C_3   0.223632 0.601713 0.067638 0.000000
C24   C     C_3   0.298661 0.553491 0.016457 0.000000
C25   C     C_3   0.426419 0.549911 0.040555 0.000000
C26   C     C_R   0.276632 0.489284 0.988151 0.000000
N5    N     N_R   0.164594 0.476736 0.991601 0.000000
C27   C     C_R   0.177971 0.416501 0.961978 0.000000
C28   C     C_R   0.097011 0.381676 0.961350 0.000000
C29   C     C_R   0.132945 0.319697 0.931457 0.000000
C30   C     C_R   0.225187 0.297644 0.891986 0.000000
C31   C     C_R   0.312730 0.332816 0.895508 0.000000
C32   C     C_R   0.290516 0.393069 0.936129 0.000000
N6    N     N_R   0.358194 0.438329 0.951524 0.000000
C33   C     C_2   0.214838 0.238139 0.845770 0.000000
O5    O     O_2   0.192546 0.232075 0.796117 0.000000
O6    O     O_2   0.205897 0.193345 0.860680 0.000000
H23   H     H_    0.254836 0.598170 0.108572 0.000000
H24   H     H_    0.243699 0.646591 0.074207 0.000000
H25   H     H_    0.125505 0.603979 0.057583 0.000000
H26   H     H_    0.267024 0.568906 0.982853 0.000000
H27   H     H_    0.479011 0.512370 0.005520 0.000000
H28   H     H_    0.459057 0.593455 0.058133 0.000000
H29   H     H_    0.427153 0.538800 0.077928 0.000000
H30   H     H_    0.015450 0.402909 0.987161 0.000000
H31   H     H_    0.086240 0.286129 0.932733 0.000000
H32   H     H_    0.392870 0.313887 0.868321 0.000000
H33   H     H_    0.187295 0.154796 0.832049 0.000000
C34   C     C_3   0.357388 0.454758 0.145733 0.000000
C35   C     C_3   0.260540 0.468555 0.106045 0.000000
C36   C     C_3   0.188471 0.416596 0.079909 0.000000
C37   C     C_R   0.183780 0.530141 0.139466 0.000000
N7    N     N_R   0.090482 0.558594 0.113790 0.000000
C38   C     C_R   0.061680 0.614332 0.157498 0.000000
C39   C     C_R   0.964335 0.657814 0.157233 0.000000
C40   C     C_R   0.947074 0.713779 0.205055 0.000000
C41   C     C_R   0.028614 0.724890 0.251797 0.000000
C42   C     C_R   0.120954 0.678517 0.253648 0.000000
C43   C     C_R   0.135955 0.621354 0.205758 0.000000
N8    N     N_R   0.213431 0.567304 0.197241 0.000000
C44   C     C_2   0.009856 0.784852 0.302206 0.000000
O7    O     O_2   0.925730 0.824918 0.301597 0.000000
O8    O     O_2   0.085217 0.795966 0.349273 0.000000
H34   H     H_    0.310615 0.451577 0.180236 0.000000
H35   H     H_    0.419090 0.410826 0.120851 0.000000
H36   H     H_    0.409638 0.492758 0.163320 0.000000
H37   H     H_    0.308096 0.469750 0.071035 0.000000
H38   H     H_    0.092150 0.433787 0.072130 0.000000
H39   H     H_    0.233917 0.382165 0.039066 0.000000
H40   H     H_    0.193661 0.393581 0.108720 0.000000
H41   H     H_    0.900213 0.646436 0.121499 0.000000
H42   H     H_    0.868570 0.748529 0.206846 0.000000
H43   H     H_    0.171106 0.690221 0.293869 0.000000
H44   H     H_    0.072363 0.835576 0.382482 0.000000
C45   C     C_3   0.562385 0.766939 0.832020 0.000000
C46   C     C_3   0.557492 0.831810 0.869454 0.000000
C47   C     C_3   0.431951 0.865262 0.866587 0.000000
C48   C     C_R   0.601207 0.842093 0.929102 0.000000
N9    N     N_R   0.585789 0.901291 0.974304 0.000000
C49   C     C_R   0.674960 0.894236 0.012219 0.000000
C50   C     C_R   0.707571 0.938313 0.064397 0.000000
C51   C     C_R   0.814479 0.924170 0.092444 0.000000
C52   C     C_R   0.891444 0.867994 0.065761 0.000000
C53   C     C_R   0.856428 0.823517 0.013412 0.000000
C54   C     C_R   0.742048 0.835953 0.990085 0.000000
N10   N     N_R   0.693197 0.799267 0.938977 0.000000
C55   C     C_2   0.010166 0.855783 0.092880 0.000000
O9    O     O_2   0.025845 0.883868 0.145252 0.000000
O10   O     O_2   0.102047 0.813204 0.059980 0.000000
H45   H     H_    0.494117 0.750736 0.847737 0.000000
H46   H     H_    0.535759 0.762854 0.787891 0.000000
H47   H     H_    0.661448 0.750437 0.836508 0.000000
H48   H     H_    0.620838 0.844806 0.849388 0.000000
H49   H     H_    0.413554 0.905169 0.908992 0.000000
H50   H     H_    0.435176 0.877818 0.830311 0.000000
H51   H     H_    0.362100 0.835081 0.855357 0.000000
H52   H     H_    0.649695 0.981788 0.083791 0.000000
H53   H     H_    0.841630 0.958333 0.133837 0.000000
H54   H     H_    0.917447 0.780289 0.991506 0.000000
H55   H     H_    0.179885 0.804353 0.077922 0.000000
C56   C     C_3   0.614797 0.642900 0.930443 0.000000
C57   C     C_3   0.497773 0.660320 0.903640 0.000000
C58   C     C_3   0.452583 0.726745 0.942837 0.000000
C59   C     C_R   0.521154 0.649862 0.844375 0.000000
N11   N     N_R   0.627796 0.661528 0.831500 0.000000
C60   C     C_R   0.604544 0.653613 0.775617 0.000000
C61   C     C_R   0.668334 0.669218 0.742199 0.000000
C62   C     C_R   0.610103 0.672950 0.693263 0.000000
C63   C     C_R   0.490630 0.660993 0.678887 0.000000
C64   C     C_R   0.437613 0.636897 0.707491 0.000000
C65   C     C_R   0.492780 0.636319 0.756911 0.000000
N12   N     N_R   0.436772 0.632401 0.798461 0.000000
C66   C     C_2   0.408597 0.682195 0.641197 0.000000
O11   O     O_2   0.447009 0.704613 0.613950 0.000000
O12   O     O_2   0.286244 0.685836 0.644487 0.000000
H56   H     H_    0.658124 0.681439 0.939912 0.000000
H57   H     H_    0.600988 0.641802 0.971622 0.000000
H58   H     H_    0.669200 0.600237 0.900484 0.000000
H59   H     H_    0.433105 0.632767 0.898899 0.000000
H60   H     H_    0.352096 0.738469 0.937706 0.000000
H61   H     H_    0.469414 0.734966 0.988749 0.000000
H62   H     H_    0.508633 0.754442 0.934601 0.000000
H63   H     H_    0.753427 0.686118 0.756939 0.000000
H64   H     H_    0.656871 0.687827 0.668555 0.000000
H65   H     H_    0.347096 0.627868 0.695399 0.000000
H66   H     H_    0.226884 0.706492 0.626059 0.000000
C67   C     C_3   0.074629 0.529030 0.763487 0.000000
C68   C     C_3   0.989605 0.583891 0.761255 0.000000
C69   C     C_3   0.858090 0.577249 0.748870 0.000000
C70   C     C_R   0.012594 0.642063 0.812412 0.000000
N13   N     N_R   0.924587 0.691892 0.844633 0.000000
C71   C     C_R   0.991079 0.737618 0.867746 0.000000
C72   C     C_R   0.950265 0.798313 0.901051 0.000000
C73   C     C_R   0.037367 0.835541 0.924256 0.000000
C74   C     C_R   0.159551 0.814299 0.909697 0.000000
C75   C     C_R   0.198272 0.754050 0.870591 0.000000
C76   C     C_R   0.111873 0.716289 0.852972 0.000000
N14   N     N_R   0.128103 0.656201 0.818428 0.000000
C77   C     C_2   0.243932 0.856846 0.940498 0.000000
O13   O     O_2   0.202644 0.910981 0.967711 0.000000
O14   O     O_2   0.362724 0.835938 0.947158 0.000000
H67   H     H_    0.096218 0.538780 0.809518 0.000000
H68   H     H_    0.038872 0.485885 0.736771 0.000000
H69   H     H_    0.161832 0.523922 0.743497 0.000000
H70   H     H_    0.011785 0.586136 0.722237 0.000000
H71   H     H_    0.831453 0.582944 0.708683 0.000000
H72   H     H_    0.840748 0.531574 0.740094 0.000000
H73   H     H_    0.811586 0.615275 0.785667 0.000000
H74   H     H_    0.854935 0.817878 0.907171 0.000000
H75   H     H_    0.012240 0.881615 0.955732 0.000000
H76   H     H_    0.292088 0.736953 0.855379 0.000000
H77   H     H_    0.411118 0.862595 0.977314 0.000000
C78   C     C_3   0.870092 0.333759 0.933080 0.000000
C79   C     C_3   0.757758 0.307012 0.925863 0.000000
C80   C     C_3   0.675722 0.348470 0.976192 0.000000
C81   C     C_R   0.697668 0.295660 0.868447 0.000000
N15   N     N_R   0.601774 0.336783 0.859202 0.000000
C82   C     C_R   0.562657 0.301534 0.805285 0.000000
C83   C     C_R   0.452649 0.313307 0.779500 0.000000
C84   C     C_R   0.424440 0.269285 0.725088 0.000000
C85   C     C_R   0.503493 0.213385 0.699514 0.000000
C86   C     C_R   0.606914 0.199553 0.729683 0.000000
C87   C     C_R   0.634457 0.244506 0.782595 0.000000
N16   N     N_R   0.717328 0.237498 0.822487 0.000000
C88   C     C_2   0.475239 0.168051 0.641338 0.000000
O15   O     O_2   0.389653 0.181419 0.612732 0.000000
O16   O     O_2   0.545848 0.112011 0.618698 0.000000
H78   H     H_    0.842037 0.382279 0.944258 0.000000
H79   H     H_    0.920041 0.329021 0.971016 0.000000
H80   H     H_    0.921925 0.309216 0.891898 0.000000
H81   H     H_    0.792955 0.264476 0.928754 0.000000
H82   H     H_    0.634995 0.323793 0.994586 0.000000
H83   H     H_    0.739283 0.373241 0.009960 0.000000
H84   H     H_    0.603365 0.378075 0.963182 0.000000
H85   H     H_    0.390133 0.355134 0.803211 0.000000
H86   H     H_    0.339356 0.277491 0.702752 0.000000
H87   H     H_    0.664738 0.155132 0.711879 0.000000
H88   H     H_    0.527776 0.082224 0.580062 0.000000
C89   C     C_3   0.348030 0.400819 0.720007 0.000000
C90   C     C_3   0.452058 0.430236 0.759947 0.000000
C91   C     C_3   0.545433 0.445124 0.730749 0.000000
C92   C     C_R   0.403015 0.483320 0.814843 0.000000
N17   N     N_R   0.317855 0.535531 0.819334 0.000000
C93   C     C_R   0.304692 0.565972 0.878046 0.000000
C94   C     C_R   0.232689 0.621853 0.910445 0.000000
C95   C     C_R   0.272110 0.657514 0.966432 0.000000
C96   C     C_R   0.385188 0.639179 0.988459 0.000000
C97   C     C_R   0.448607 0.579392 0.957509 0.000000
C98   C     C_R   0.395531 0.541452 0.905306 0.000000
N18   N     N_R   0.445325 0.484638 0.868162 0.000000
C99   C     C_2   0.431530 0.683475 0.044073 0.000000
O17   O     O_2   0.366244 0.732703 0.071020 0.000000
O18   O     O_2   0.545310 0.671238 0.065254 0.000000
H89   H     H_    0.274372 0.434617 0.714096 0.000000
H90   H     H_    0.385433 0.364351 0.678016 0.000000
H91   H     H_    0.299394 0.380163 0.740074 0.000000
H92   H     H_    0.509095 0.396028 0.772582 0.000000
H93   H     H_    0.639191 0.427813 0.742754 0.000000
H94   H     H_    0.538571 0.420119 0.682701 0.000000
H95   H     H_    0.535831 0.495387 0.745902 0.000000
H96   H     H_    0.144027 0.636710 0.895667 0.000000
H97   H     H_    0.217663 0.701844 0.991624 0.000000
H98   H     H_    0.538282 0.564793 0.972595 0.000000
H99   H     H_    0.572922 0.700711 0.102076 0.000000
C100  C     C_3   0.000870 0.067444 0.939357 0.000000
C101  C     C_3   0.005325 0.127917 0.938035 0.000000
C102  C     C_3   0.026648 0.121765 0.879794 0.000000
C103  C     C_R   0.883753 0.159063 0.949600 0.000000
N19   N     N_R   0.799488 0.166506 0.908497 0.000000
C104  C     C_R   0.698208 0.194422 0.941573 0.000000
C105  C     C_R   0.594037 0.226216 0.928846 0.000000
C106  C     C_R   0.499568 0.252387 0.968170 0.000000
C107  C     C_R   0.513059 0.246756 0.019742 0.000000
C108  C     C_R   0.623784 0.218744 0.034792 0.000000
C109  C     C_R   0.717864 0.195720 0.995432 0.000000
N20   N     N_R   0.837313 0.173674 0.002056 0.000000
C110  C     C_2   0.413547 0.277504 0.060649 0.000000
O19   O     O_2   0.308295 0.287707 0.043476 0.000000
O20   O     O_2   0.438469 0.297746 0.117658 0.000000
H100  H     H_    0.961944 0.036357 0.898260 0.000000
H101  H     H_    0.087045 0.045047 0.950526 0.000000
H102  H     H_    0.939967 0.075989 0.974256 0.000000
H103  H     H_    0.062864 0.157662 0.972447 0.000000
H104  H     H_    0.004661 0.167793 0.880181 0.000000
H105  H     H_    0.122387 0.101882 0.867867 0.000000
H106  H     H_    0.958037 0.093740 0.853985 0.000000
H107  H     H_    0.593619 0.238045 0.893990 0.000000
H108  H     H_    0.417491 0.280218 0.960438 0.000000
H109  H     H_    0.636355 0.217355 0.076655 0.000000
H110  H     H_    0.370719 0.319802 0.143348 0.000000
C111  C     C_3   0.517654 0.113727 0.873110 0.000000
C112  C     C_3   0.466078 0.118693 0.819460 0.000000
C113  C     C_3   0.451338 0.180922 0.821788 0.000000
C114  C     C_R   0.551344 0.079330 0.772849 0.000000
N21   N     N_R   0.665451 0.091394 0.766618 0.000000
C115  C     C_R   0.686118 0.054059 0.709609 0.000000
C116  C     C_R   0.779921 0.051297 0.676906 0.000000
C117  C     C_R   0.778170 0.013634 0.617897 0.000000
C118  C     C_R   0.684808 0.979160 0.592575 0.000000
C119  C     C_R   0.591121 0.981474 0.626312 0.000000
C120  C     C_R   0.592666 0.020643 0.684767 0.000000
N22   N     N_R   0.506433 0.035216 0.724619 0.000000
C121  C     C_2   0.688602 0.939956 0.529897 0.000000
O21   O     O_2   0.771450 0.938933 0.501309 0.000000
O22   O     O_2   0.608352 0.900908 0.504572 0.000000
H111  H     H_    0.618447 0.110194 0.872430 0.000000
H112  H     H_    0.471368 0.150203 0.912561 0.000000
H113  H     H_    0.496750 0.070135 0.867565 0.000000
H114  H     H_    0.376281 0.102540 0.808701 0.000000
H115  H     H_    0.390563 0.181960 0.785182 0.000000
H116  H     H_    0.419351 0.215655 0.864957 0.000000
H117  H     H_    0.540449 0.186024 0.811573 0.000000
H118  H     H_    0.849601 0.079725 0.695473 0.000000
H119  H     H_    0.850081 0.011546 0.591117 0.000000
H120  H     H_    0.517086 0.955544 0.606922 0.000000
H121  H     H_    0.627375 0.867800 0.466504 0.000000
C122  C     C_3   0.914247 0.996480 0.759432 0.000000
C123  C     C_3   0.047172 0.002072 0.772798 0.000000
C124  C     C_3   0.126573 0.945105 0.730038 0.000000
C125  C     C_R   0.072640 0.056633 0.768345 0.000000
N23   N     N_R   0.183634 0.054263 0.745368 0.000000
C126  C     C_R   0.153856 0.102676 0.732145 0.000000
C127  C     C_R   0.224883 0.120502 0.703677 0.000000
C128  C     C_R   0.172080 0.169227 0.690923 0.000000
C129  C     C_R   0.053472 0.201349 0.709149 0.000000
C130  C     C_R   0.984694 0.184190 0.740177 0.000000
C131  C     C_R   0.036639 0.134579 0.750731 0.000000
N24   N     N_R   0.981945 0.108551 0.776419 0.000000
C132  C     C_2   0.004381 0.252835 0.694313 0.000000
O23   O     O_2   0.060069 0.260261 0.659929 0.000000
O24   O     O_2   0.901038 0.292827 0.718679 0.000000
H122  H     H_    0.899727 0.977000 0.711951 0.000000
H123  H     H_    0.893589 0.967789 0.779148 0.000000
H124  H     H_    0.855607 0.041508 0.779953 0.000000
H125  H     H_    0.063654 0.005392 0.816487 0.000000
H126  H     H_    0.225304 0.945887 0.742333 0.000000
H127  H     H_    0.102195 0.903888 0.730306 0.000000
H128  H     H_    0.111066 0.943756 0.686051 0.000000
H129  H     H_    0.318212 0.097130 0.690887 0.000000
H130  H     H_    0.225081 0.183409 0.667533 0.000000
H131  H     H_    0.891327 0.206258 0.753614 0.000000
H132  H     H_    0.857925 0.291474 0.748824 0.000000
C133  C     C_3   0.293002 0.546827 0.408725 0.000000
C134  C     C_3   0.406620 0.572936 0.416381 0.000000
C135  C     C_3   0.503061 0.520137 0.380448 0.000000
C136  C     C_R   0.384363 0.623481 0.398154 0.000000
N25   N     N_R   0.353776 0.614658 0.341566 0.000000
C137  C     C_R   0.378994 0.666032 0.341427 0.000000
C138  C     C_R   0.381515 0.677821 0.293604 0.000000
C139  C     C_R   0.419321 0.730944 0.301761 0.000000
C140  C     C_R   0.459320 0.769910 0.356090 0.000000
C141  C     C_R   0.470421 0.754040 0.402359 0.000000
C142  C     C_R   0.422290 0.703440 0.395136 0.000000
N26   N     N_R   0.420935 0.679237 0.433471 0.000000
C143  C     C_2   0.480129 0.829838 0.364315 0.000000
O25   O     O_2   0.508238 0.836395 0.322907 0.000000
O26   O     O_2   0.451498 0.879264 0.415170 0.000000
H133  H     H_    0.261785 0.536515 0.363836 0.000000
H134  H     H_    0.314648 0.506289 0.418084 0.000000
H135  H     H_    0.225152 0.580267 0.439419 0.000000
H136  H     H_    0.433786 0.591733 0.461571 0.000000
H137  H     H_    0.589147 0.533106 0.375424 0.000000
H138  H     H_    0.523094 0.485078 0.397364 0.000000
H139  H     H_    0.459135 0.499257 0.338459 0.000000
H140  H     H_    0.349982 0.647892 0.250897 0.000000
H141  H     H_    0.413976 0.743204 0.265847 0.000000
H142  H     H_    0.509147 0.782704 0.443670 0.000000
H143  H     H_    0.459315 0.919398 0.419679 0.000000
C144  C     C_3   0.157911 0.346308 0.228840 0.000000
C145  C     C_3   0.160581 0.403806 0.285153 0.000000
C146  C     C_3   0.273266 0.406328 0.324359 0.000000
C147  C     C_R   0.112495 0.457910 0.274176 0.000000
N27   N     N_R   0.173071 0.500716 0.271536 0.000000
C148  C     C_R   0.077684 0.541507 0.267532 0.000000
C149  C     C_R   0.080487 0.601918 0.286450 0.000000
C150  C     C_R   0.970770 0.641363 0.291953 0.000000
C151  C     C_R   0.863767 0.618542 0.270198 0.000000
C152  C     C_R   0.862202 0.557410 0.257298 0.000000
C153  C     C_R   0.970250 0.522240 0.261533 0.000000
N28   N     N_R   0.987879 0.469667 0.266780 0.000000
C154  C     C_2   0.757405 0.663297 0.267528 0.000000
O27   O     O_2   0.728367 0.710116 0.311670 0.000000
O28   O     O_2   0.722572 0.663350 0.215547 0.000000
H144  H     H_    0.217646 0.339370 0.194547 0.000000
H145  H     H_    0.168620 0.305800 0.237854 0.000000
H146  H     H_    0.069371 0.353564 0.207618 0.000000
H147  H     H_    0.087140 0.404443 0.311442 0.000000
H148  H     H_    0.239886 0.421830 0.368901 0.000000
H149  H     H_    0.327793 0.360202 0.312255 0.000000
H150  H     H_    0.328644 0.438882 0.325167 0.000000
H151  H     H_    0.159541 0.618595 0.309553 0.000000
H152  H     H_    0.964954 0.690385 0.316083 0.000000
H153  H     H_    0.782688 0.537362 0.250910 0.000000
H154  H     H_    0.663614 0.697099 0.213666 0.000000
C155  C     C_3   0.617591 0.611906 0.320770 0.000000
C156  C     C_3   0.574347 0.565356 0.262571 0.000000
C157  C     C_3   0.590311 0.577783 0.210606 0.000000
C158  C     C_R   0.586288 0.500583 0.254825 0.000000
N29   N     N_R   0.686611 0.461214 0.264552 0.000000
C159  C     C_R   0.631646 0.416166 0.261053 0.000000
C160  C     C_R   0.684714 0.370755 0.276850 0.000000
C161  C     C_R   0.618992 0.326156 0.268549 0.000000
C162  C     C_R   0.499789 0.329019 0.246680 0.000000
C163  C     C_R   0.441713 0.381245 0.239093 0.000000
C164  C     C_R   0.511582 0.423762 0.245482 0.000000
N30   N     N_R   0.477072 0.479105 0.244751 0.000000
C165  C     C_2   0.440705 0.276702 0.235621 0.000000
O29   O     O_2   0.475627 0.246604 0.263062 0.000000
O30   O     O_2   0.356502 0.258251 0.192809 0.000000
H155  H     H_    0.716375 0.606034 0.330395 0.000000
H156  H     H_    0.590904 0.658404 0.323379 0.000000
H157  H     H_    0.573529 0.609973 0.355872 0.000000
H158  H     H_    0.474997 0.575303 0.263067 0.000000
H159  H     H_    0.531954 0.552786 0.173593 0.000000
H160  H     H_    0.552463 0.626772 0.223125 0.000000
H161  H     H_    0.684520 0.568366 0.195513 0.000000
H162  H     H_    0.771838 0.371926 0.298740 0.000000
H163  H     H_    0.661251 0.288656 0.279015 0.000000
H164  H     H_    0.345897 0.391496 0.230518 0.000000
H165  H     H_    0.317889 0.224384 0.187558 0.000000
C166  C     C_3   0.161399 0.201849 0.089199 0.000000
C167  C     C_3   0.253018 0.152576 0.045215 0.000000
C168  C     C_3   0.377597 0.154008 0.074006 0.000000
C169  C     C_R   0.219451 0.091280 0.030569 0.000000
N31   N     N_R   0.104764 0.090645 0.048868 0.000000
C170  C     C_R   0.131866 0.039706 0.057923 0.000000
C171  C     C_R   0.061490 0.023308 0.087895 0.000000
C172  C     C_R   0.116478 0.977918 0.104779 0.000000
C173  C     C_R   0.239386 0.950352 0.092114 0.000000
C174  C     C_R   0.308045 0.966065 0.060235 0.000000
C175  C     C_R   0.251474 0.009806 0.042235 0.000000
N32   N     N_R   0.308953 0.037499 0.019431 0.000000
C176  C     C_2   0.299128 0.907323 0.115720 0.000000
O31   O     O_2   0.243477 0.897961 0.148794 0.000000
O32   O     O_2   0.416851 0.879278 0.102186 0.000000
H166  H     H_    0.154893 0.190001 0.125716 0.000000
H167  H     H_    0.192483 0.246729 0.106105 0.000000
H168  H     H_    0.068782 0.205418 0.068712 0.000000
H169  H     H_    0.256217 0.165062 0.009054 0.000000
H170  H     H_    0.446712 0.122838 0.041183 0.000000
H171  H     H_    0.399457 0.200461 0.092600 0.000000
H172  H     H_    0.373144 0.140105 0.108882 0.000000
H173  H     H_    0.968472 0.047245 0.100760 0.000000
H174  H     H_    0.064930 0.966403 0.130846 0.000000
H175  H     H_    0.405951 0.948883 0.054523 0.000000
H176  H     H_    0.456819 0.851321 0.118267 0.000000
C177  C     C_3   0.741897 0.041700 0.917630 0.000000
C178  C     C_3   0.762998 0.016753 0.961846 0.000000
C179  C     C_3   0.884390 0.977636 0.963564 0.000000
C180  C     C_R   0.719085 0.060185 0.019254 0.000000
N33   N     N_R   0.783251 0.100382 0.064513 0.000000
C181  C     C_R   0.715049 0.113601 0.110714 0.000000
C182  C     C_R   0.737975 0.149517 0.168256 0.000000
C183  C     C_R   0.661920 0.152099 0.209258 0.000000
C184  C     C_R   0.566482 0.118333 0.192277 0.000000
C185  C     C_R   0.543284 0.083062 0.133832 0.000000
C186  C     C_R   0.616891 0.083046 0.093612 0.000000
N34   N     N_R   0.616047 0.049398 0.035253 0.000000
C187  C     C_2   0.492674 0.118709 0.236632 0.000000
O33   O     O_2   0.512199 0.150160 0.288052 0.000000
O34   O     O_2   0.404965 0.083331 0.220863 0.000000
H177  H     H_    0.762417 0.087263 0.934584 0.000000
H178  H     H_    0.786077 0.010863 0.875362 0.000000
H179  H     H_    0.642217 0.047320 0.912562 0.000000
H180  H     H_    0.692653 0.987507 0.950944 0.000000
H181  H     H_    0.857773 0.946270 0.978886 0.000000
H182  H     H_    0.925880 0.952565 0.919741 0.000000
H183  H     H_    0.949227 0.003708 0.996449 0.000000
H184  H     H_    0.815219 0.173078 0.181623 0.000000
H185  H     H_    0.679759 0.178980 0.255025 0.000000
H186  H     H_    0.470893 0.055606 0.120380 0.000000
H187  H     H_    0.358731 0.082584 0.250477 0.000000
C188  C     C_3   0.225468 0.966318 0.880869 0.000000
C189  C     C_3   0.283369 0.011939 0.870790 0.000000
C190  C     C_3   0.296865 0.071279 0.920888 0.000000
C191  C     C_R   0.406204 0.985789 0.853684 0.000000
N35   N     N_R   0.502648 0.974100 0.888687 0.000000
C192  C     C_R   0.596890 0.948805 0.849302 0.000000
C193  C     C_R   0.717589 0.918543 0.850878 0.000000
C194  C     C_R   0.790246 0.896247 0.801782 0.000000
C195  C     C_R   0.742807 0.903255 0.752301 0.000000
C196  C     C_R   0.624714 0.931965 0.751171 0.000000
C197  C     C_R   0.555891 0.952997 0.798709 0.000000
N36   N     N_R   0.436868 0.976341 0.799983 0.000000
C198  C     C_2   0.813781 0.885930 0.701111 0.000000
O35   O     O_2   0.921327 0.860819 0.697235 0.000000
O36   O     O_2   0.760964 0.906609 0.662055 0.000000
H188  H     H_    0.250662 0.969113 0.924539 0.000000
H189  H     H_    0.125426 0.969940 0.874795 0.000000
H190  H     H_    0.251623 0.920658 0.845260 0.000000
H191  H     H_    0.241984 0.018999 0.833065 0.000000
H192  H     H_    0.315466 0.103686 0.905025 0.000000
H193  H     H_    0.210836 0.089114 0.940380 0.000000
H194  H     H_    0.371372 0.065383 0.951098 0.000000
H195  H     H_    0.755036 0.906118 0.885477 0.000000
H196  H     H_    0.883790 0.872654 0.801994 0.000000
H197  H     H_    0.583194 0.935160 0.712453 0.000000
H198  H     H_    0.806743 0.916668 0.638759 0.000000
C199  C     C_3   0.939826 0.684960 0.703750 0.000000
C200  C     C_3   0.072958 0.672478 0.687715 0.000000
C201  C     C_3   0.143472 0.712671 0.740522 0.000000
C202  C     C_R   0.123044 0.604667 0.662109 0.000000
N37   N     N_R   0.203626 0.574619 0.690784 0.000000
C203  C     C_R   0.225815 0.517514 0.648625 0.000000
C204  C     C_R   0.317470 0.473289 0.650734 0.000000
C205  C     C_R   0.336104 0.417159 0.603027 0.000000
C206  C     C_R   0.262033 0.407334 0.553913 0.000000
C207  C     C_R   0.174114 0.454536 0.550713 0.000000
C208  C     C_R   0.158269 0.511145 0.598940 0.000000
N38   N     N_R   0.090219 0.566182 0.605471 0.000000
C209  C     C_2   0.286291 0.348340 0.502759 0.000000
O37   O     O_2   0.365064 0.307203 0.505260 0.000000
O38   O     O_2   0.223991 0.339740 0.452497 0.000000
H199  H     H_    0.937495 0.685564 0.746726 0.000000
H200  H     H_    0.895400 0.730542 0.706422 0.000000
H201  H     H_    0.891500 0.649224 0.670549 0.000000
H202  H     H_    0.073105 0.687080 0.653188 0.000000
H203  H     H_    0.190085 0.742302 0.730184 0.000000
H204  H     H_    0.076691 0.745311 0.774485 0.000000
H205  H     H_    0.211424 0.685411 0.757927 0.000000
H206  H     H_    0.374049 0.485240 0.688982 0.000000
H207  H     H_    0.410981 0.381494 0.602715 0.000000
H208  H     H_    0.130289 0.444841 0.509211 0.000000
H209  H     H_    0.243281 0.301214 0.418547 0.000000
C210  C     C_3   0.359993 0.807869 0.703794 0.000000
C211  C     C_3   0.450920 0.835521 0.687622 0.000000
C212  C     C_3   0.583958 0.803804 0.681660 0.000000
C213  C     C_R   0.404424 0.851431 0.639058 0.000000
N39   N     N_R   0.391553 0.811889 0.579511 0.000000
C214  C     C_R   0.339688 0.854040 0.558849 0.000000
C215  C     C_R   0.304725 0.845901 0.502978 0.000000
C216  C     C_R   0.254078 0.896567 0.492929 0.000000
C217  C     C_R   0.237880 0.955055 0.538083 0.000000
C218  C     C_R   0.273209 0.963400 0.593961 0.000000
C219  C     C_R   0.323915 0.912608 0.602735 0.000000
N40   N     N_R   0.364374 0.912867 0.653701 0.000000
C220  C     C_2   0.183855 0.007848 0.526554 0.000000
O39   O     O_2   0.152634 0.000470 0.477099 0.000000
O40   O     O_2   0.168896 0.064676 0.570550 0.000000
H210  H     H_    0.298558 0.788440 0.666112 0.000000
H211  H     H_    0.408017 0.776404 0.722132 0.000000
H212  H     H_    0.301081 0.845547 0.738647 0.000000
H213  H     H_    0.449622 0.879389 0.725364 0.000000
H214  H     H_    0.617542 0.799936 0.722421 0.000000
H215  H     H_    0.594769 0.759265 0.645168 0.000000
H216  H     H_    0.640593 0.829978 0.671588 0.000000
H217  H     H_    0.314661 0.802741 0.466850 0.000000
H218  H     H_    0.226730 0.890264 0.449115 0.000000
H219  H     H_    0.260485 0.008476 0.629821 0.000000
H220  H     H_    0.133362 0.099600 0.562944 0.000000
C221  C     C_3   0.985374 0.713292 0.473506 0.000000
C222  C     C_3   0.124472 0.699447 0.478351 0.000000
C223  C     C_3   0.172589 0.755639 0.488813 0.000000
C224  C     C_R   0.177905 0.674641 0.522001 0.000000
N41   N     N_R   0.123672 0.633100 0.530384 0.000000
C225  C     C_R   0.220953 0.596340 0.538639 0.000000
C226  C     C_R   0.223114 0.535299 0.519301 0.000000
C227  C     C_R   0.332631 0.498540 0.520075 0.000000
C228  C     C_R   0.434158 0.524724 0.544964 0.000000
C229  C     C_R   0.435114 0.584108 0.551206 0.000000
C230  C     C_R   0.325770 0.617607 0.543912 0.000000
N42   N     N_R   0.304437 0.668421 0.534261 0.000000
C231  C     C_2   0.538894 0.483817 0.555388 0.000000
O41   O     O_2   0.561779 0.488715 0.604786 0.000000
O42   O     O_2   0.591663 0.433172 0.510093 0.000000
H221  H     H_    0.940870 0.689228 0.491196 0.000000
H222  H     H_    0.952975 0.763144 0.494029 0.000000
H223  H     H_    0.959480 0.699977 0.427184 0.000000
H224  H     H_    0.157266 0.665171 0.434622 0.000000
H225  H     H_    0.269723 0.748147 0.500528 0.000000
H226  H     H_    0.155518 0.761929 0.448227 0.000000
H227  H     H_    0.128331 0.796840 0.525027 0.000000
H228  H     H_    0.147446 0.516237 0.493971 0.000000
H229  H     H_    0.343287 0.449176 0.499219 0.000000
H230  H     H_    0.514706 0.603752 0.556717 0.000000
H231  H     H_    0.654287 0.403505 0.516987 0.000000
C232  C     C_3   0.711020 0.556877 0.588912 0.000000
C233  C     C_3   0.721629 0.572613 0.538901 0.000000
C234  C     C_3   0.659142 0.540235 0.481673 0.000000
C235  C     C_R   0.720367 0.637763 0.554649 0.000000
N43   N     N_R   0.629614 0.682858 0.547066 0.000000
C236  C     C_R   0.698690 0.727124 0.559352 0.000000
C237  C     C_R   0.666518 0.780447 0.552897 0.000000
C238  C     C_R   0.756238 0.816920 0.565398 0.000000
C239  C     C_R   0.872802 0.801926 0.586797 0.000000
C240  C     C_R   0.904351 0.747207 0.590481 0.000000
C241  C     C_R   0.816956 0.710464 0.574836 0.000000
N44   N     N_R   0.835050 0.653065 0.568247 0.000000
C242  C     C_2   0.971803 0.836790 0.595299 0.000000
O43   O     O_2   0.962522 0.873336 0.574397 0.000000
O44   O     O_2   0.078017 0.824335 0.622031 0.000000
H232  H     H_    0.622787 0.574719 0.611318 0.000000
H233  H     H_    0.739795 0.506841 0.574057 0.000000
H234  H     H_    0.780865 0.577842 0.621695 0.000000
H235  H     H_    0.818163 0.555713 0.532185 0.000000
H236  H     H_    0.726541 0.509572 0.447754 0.000000
H237  H     H_    0.594670 0.513358 0.484491 0.000000
H238  H     H_    0.616356 0.577078 0.469933 0.000000
H239  H     H_    0.578422 0.791717 0.534658 0.000000
H240  H     H_    0.736346 0.856267 0.556562 0.000000
H241  H     H_    0.998549 0.731558 0.599555 0.000000
H242  H     H_    0.147022 0.844191 0.624919 0.000000
C243  C     C_3   0.675189 0.336565 0.135864 0.000000
C244  C     C_3   0.806526 0.305178 0.119517 0.000000
C245  C     C_3   0.879357 0.333141 0.094531 0.000000
C246  C     C_R   0.875730 0.288502 0.163617 0.000000
N45   N     N_R   0.899766 0.327427 0.221696 0.000000
C247  C     C_R   0.964901 0.286016 0.240026 0.000000
C248  C     C_R   0.016635 0.296322 0.294008 0.000000
C249  C     C_R   0.074635 0.246103 0.303450 0.000000
C250  C     C_R   0.083250 0.186977 0.259082 0.000000
C251  C     C_R   0.037002 0.177409 0.204059 0.000000
C252  C     C_R   0.978434 0.227610 0.195934 0.000000
N46   N     N_R   0.922686 0.227219 0.146788 0.000000
C253  C     C_2   0.139393 0.134500 0.270723 0.000000
O45   O     O_2   0.183084 0.142609 0.318800 0.000000
O46   O     O_2   0.139904 0.077123 0.228729 0.000000
H243  H     H_    0.671790 0.384992 0.163832 0.000000
H244  H     H_    0.619142 0.331077 0.095880 0.000000
H245  H     H_    0.637455 0.315471 0.159488 0.000000
H246  H     H_    0.799938 0.261144 0.084408 0.000000
H247  H     H_    0.915726 0.297316 0.051881 0.000000
H248  H     H_    0.816523 0.369112 0.086751 0.000000
H249  H     H_    0.959630 0.348442 0.123011 0.000000
H250  H     H_    0.014330 0.341567 0.328091 0.000000
H251  H     H_    0.112460 0.252923 0.346045 0.000000
H252  H     H_    0.044043 0.131785 0.169013 0.000000
H253  H     H_    0.174528 0.042333 0.236694 0.000000
C254  C     C_3   0.804579 0.609384 0.425435 0.000000
C255  C     C_3   0.894124 0.555618 0.386390 0.000000
C256  C     C_3   0.013571 0.575190 0.390661 0.000000
C257  C     C_R   0.917980 0.506332 0.405163 0.000000
N47   N     N_R   0.950234 0.515366 0.461543 0.000000
C258  C     C_R   0.929322 0.463023 0.461135 0.000000
C259  C     C_R   0.920336 0.452579 0.509128 0.000000
C260  C     C_R   0.886912 0.398238 0.500512 0.000000
C261  C     C_R   0.858103 0.356551 0.445068 0.000000
C262  C     C_R   0.859806 0.369062 0.397485 0.000000
C263  C     C_R   0.894733 0.423543 0.406298 0.000000
N48   N     N_R   0.891603 0.449193 0.368647 0.000000
C264  C     C_2   0.822832 0.299268 0.437014 0.000000
O47   O     O_2   0.820374 0.288238 0.478802 0.000000
O48   O     O_2   0.793079 0.258666 0.383523 0.000000
H254  H     H_    0.831518 0.617802 0.470093 0.000000
H255  H     H_    0.805572 0.650180 0.418054 0.000000
H256  H     H_    0.711454 0.598710 0.416810 0.000000
H257  H     H_    0.855653 0.537561 0.342000 0.000000
H258  H     H_    0.080741 0.532966 0.371162 0.000000
H259  H     H_    0.005991 0.605233 0.369128 0.000000
H260  H     H_    0.033487 0.599715 0.437162 0.000000
H261  H     H_    0.943562 0.484848 0.552430 0.000000
H262  H     H_    0.882986 0.388278 0.537329 0.000000
H263  H     H_    0.834122 0.335464 0.355887 0.000000
H264  H     H_    0.769849 0.220849 0.378300 0.000000

loop_
_geom_bond_atom_site_label_1
_geom_bond_atom_site_label_2
_geom_bond_distance
_geom_bond_site_symmetry_2
_ccdc_geom_bond_type
Zn1   N20   2.075 .      S
Zn1   N31   2.213 1_655  S
Zn1   N33   2.071 .      S
Zn1   N46   2.121 .      S
Zn2   N22   2.067 1_565  S
Zn2   N23   2.192 1_565  S
Zn2   N36   2.074 .      S
Zn2   N40   2.101 .      S
Zn3   N38   2.142 1_655  S
Zn3   N41   2.014 1_655  S
Zn3   N44   2.042 .      S
Zn3   N47   2.149 .      S
Zn4   N2    2.141 1_454  S
Zn4   N4    2.085 1_455  S
Zn4   N5    1.938 1_554  S
Zn4   N7    2.172 .      S
Zn5   N1    2.164 .      S
Zn5   N10   2.206 .      S
Zn5   N11   2.113 .      S
Zn5   N13   2.055 .      S
Zn6   N3    2.098 .      S
Zn6   N6    2.110 .      S
Zn6   N15   2.138 .      S
Zn6   N18   2.089 .      S
Zn7   N16   2.125 .      S
Zn7   N19   2.156 .      S
Zn7   N21   2.157 .      S
Zn7   N24   2.250 .      S
Zn8   N8    2.197 .      S
Zn8   N25   2.129 .      S
Zn8   N27   2.016 .      S
Zn8   N30   2.084 .      S
Zn9   N9    2.176 .      S
Zn9   N32   2.273 1_566  S
Zn9   N34   2.093 1_566  S
Zn9   N35   2.181 .      S
Zn10  N12   2.069 .      S
Zn10  N14   1.970 .      S
Zn10  N17   2.143 .      S
Zn10  N37   2.169 .      S
Zn11  N26   2.111 .      S
Zn11  N39   2.231 .      S
Zn11  N42   2.095 .      S
Zn11  N43   2.165 .      S
Zn12  N28   2.011 .      S
Zn12  N29   2.065 .      S
Zn12  N45   2.200 .      S
Zn12  N48   2.098 .      S
C1    C2    1.514 .      S
C1    H1    1.101 .      S
C1    H2    1.106 .      S
C1    H3    1.098 1_655  S
C2    C3    1.506 .      S
C2    C4    1.502 1_554  S
C2    H4    1.101 .      S
C3    H5    1.103 .      S
C3    H6    1.108 .      S
C3    H7    1.084 1_554  S
C4    C2    1.502 1_556  S
C6    H8    1.070 .      S
C7    H9    1.081 .      S
C8    C11   1.462 .      S
C9    H10   1.056 .      S
N2    Zn4   2.141 1_656  S
C11   O2    1.344 .      S
O2    H11   0.966 .      S
H3    C1    1.098 1_455  S
H7    C3    1.084 1_556  S
C12   C13   1.514 .      S
C12   H12   1.107 .      S
C12   H13   1.105 .      S
C12   H14   1.109 .      S
C13   C14   1.490 .      S
C13   C15   1.478 .      S
C13   H15   1.071 .      S
C14   H16   1.089 .      S
C14   H17   1.102 .      S
C14   H18   1.105 .      S
C17   H19   1.080 .      S
C18   H20   1.070 .      S
C19   C22   1.454 .      S
C20   H21   1.054 .      S
N4    Zn4   2.085 1_655  S
C22   O4    1.347 .      S
O4    H22   0.962 1_655  S
H22   O4    0.962 1_455  S
C23   C24   1.507 .      S
C23   H23   1.104 .      S
C23   H24   1.109 .      S
C23   H25   1.084 .      S
C24   C25   1.483 .      S
C24   C26   1.482 1_554  S
C24   H26   1.087 1_554  S
C25   H27   1.076 .      S
C25   H28   1.087 .      S
C25   H29   1.105 .      S
C26   C24   1.482 1_556  S
N5    Zn4   1.938 1_556  S
C28   H30   1.073 .      S
C29   H31   1.073 .      S
C30   C33   1.439 .      S
C31   H32   1.077 .      S
C33   O6    1.343 .      S
O6    H33   0.956 .      S
H26   C24   1.087 1_556  S
C34   C35   1.493 .      S
C34   H34   1.107 .      S
C34   H35   1.109 .      S
C34   H36   1.097 .      S
C35   C36   1.505 .      S
C35   C37   1.499 .      S
C35   H37   1.099 .      S
C36   H38   1.097 .      S
C36   H39   1.104 .      S
C36   H40   1.104 .      S
C39   H41   1.066 .      S
C40   H42   1.080 .      S
C41   C44   1.464 .      S
C42   H43   1.065 .      S
C44   O8    1.346 .      S
O8    H44   0.966 .      S
C45   C46   1.450 .      S
C45   H45   1.103 .      S
C45   H46   1.102 .      S
C45   H47   1.102 .      S
C46   C47   1.479 .      S
C46   C48   1.478 .      S
C46   H48   1.080 .      S
C47   H49   1.100 .      S
C47   H50   1.107 .      S
C47   H51   1.108 .      S
C50   H52   1.062 .      S
C51   H53   1.081 .      S
C52   C55   1.460 1_655  S
C53   H54   1.081 1_554  S
C55   C52   1.460 1_455  S
C55   O10   1.346 .      S
O10   H55   0.965 .      S
H54   C53   1.081 1_556  S
C56   C57   1.478 .      S
C56   H56   1.071 .      S
C56   H57   1.093 .      S
C56   H58   1.089 .      S
C57   C58   1.505 .      S
C57   C59   1.464 .      S
C57   H59   1.044 .      S
C58   H60   1.099 .      S
C58   H61   1.103 .      S
C58   H62   1.104 .      S
C61   H63   1.069 .      S
C62   H64   1.073 .      S
C63   C66   1.450 .      S
C64   H65   1.053 .      S
C66   O12   1.345 .      S
O12   H66   0.963 .      S
C67   C68   1.507 1_455  S
C67   H67   1.103 .      S
C67   H68   1.107 .      S
C67   H69   1.096 .      S
C68   C67   1.507 1_655  S
C68   C69   1.480 .      S
C68   C70   1.501 1_655  S
C68   H70   1.080 1_655  S
C69   H71   1.102 .      S
C69   H72   1.101 .      S
C69   H73   1.076 .      S
C70   C68   1.501 1_455  S
C72   H74   1.063 .      S
C73   H75   1.063 .      S
C74   C77   1.449 .      S
C75   H76   1.080 .      S
C77   O14   1.334 .      S
O14   H77   0.959 .      S
H70   C68   1.080 1_455  S
C78   C79   1.477 .      S
C78   H78   1.086 .      S
C78   H79   1.107 .      S
C78   H80   1.108 .      S
C79   C80   1.494 .      S
C79   C81   1.479 .      S
C79   H81   1.077 .      S
C80   H82   1.096 .      S
C80   H83   1.092 1_556  S
C80   H84   1.101 .      S
C83   H85   1.077 .      S
C84   H86   1.080 .      S
C85   C88   1.462 .      S
C86   H87   1.075 .      S
C88   O16   1.346 .      S
O16   H88   0.966 .      S
H83   C80   1.092 1_554  S
C89   C90   1.525 .      S
C89   H89   1.094 .      S
C89   H90   1.106 .      S
C89   H91   1.100 .      S
C90   C91   1.520 .      S
C90   C92   1.493 .      S
C90   H92   1.096 .      S
C91   H93   1.106 .      S
C91   H94   1.108 .      S
C91   H95   1.110 .      S
C94   H96   1.068 .      S
C95   H97   1.081 .      S
C96   C99   1.477 1_556  S
C97   H98   1.078 .      S
C99   C96   1.477 1_554  S
C99   O18   1.348 .      S
O18   H99   0.966 .      S
C100  C101  1.519 .      S
C100  H100  1.098 1_455  S
C100  H101  1.080 .      S
C100  H102  1.094 1_455  S
C101  C102  1.469 .      S
C101  C103  1.397 1_455  S
C101  H103  1.103 .      S
C102  H104  1.109 .      S
C102  H105  1.086 .      S
C102  H106  1.091 1_455  S
C103  C101  1.397 1_655  S
C105  H107  1.054 .      S
C106  H108  1.081 .      S
C107  C110  1.443 .      S
C108  H109  1.081 .      S
C110  O20   1.335 .      S
O20   H110  0.955 .      S
H100  C100  1.098 1_655  S
H102  C100  1.094 1_655  S
H106  C102  1.091 1_655  S
C111  C112  1.478 .      S
C111  H111  1.101 .      S
C111  H112  1.100 .      S
C111  H113  1.090 .      S
C112  C113  1.487 .      S
C112  C114  1.448 .      S
C112  H114  1.106 .      S
C113  H115  1.102 .      S
C113  H116  1.097 .      S
C113  H117  1.088 .      S
C116  H118  1.075 .      S
C117  H119  1.081 .      S
C118  C121  1.462 .      S
C119  H120  1.081 .      S
N22   Zn2   2.067 1_545  S
C121  O22   1.343 .      S
O22   H121  0.965 .      S
C122  C123  1.492 1_665  S
C122  H122  1.099 .      S
C122  H123  1.101 .      S
C122  H124  1.094 1_565  S
C123  C122  1.492 1_445  S
C123  C124  1.513 1_545  S
C123  C125  1.483 .      S
C123  H125  1.083 .      S
C124  C123  1.513 1_565  S
C124  H126  1.105 .      S
C124  H127  1.106 .      S
C124  H128  1.108 .      S
N23   Zn2   2.192 1_545  S
C127  H129  1.081 .      S
C128  H130  1.079 .      S
C129  C132  1.471 .      S
C130  H131  1.078 .      S
C132  O24   1.349 1_455  S
O24   C132  1.349 1_655  S
O24   H132  0.964 .      S
H124  C122  1.094 1_545  S
C133  C134  1.479 .      S
C133  H133  1.095 .      S
C133  H134  1.105 .      S
C133  H135  1.078 .      S
C134  C135  1.506 .      S
C134  C136  1.485 .      S
C134  H136  1.074 .      S
C135  H137  1.098 .      S
C135  H138  1.105 .      S
C135  H139  1.076 .      S
C138  H140  1.083 .      S
C139  H141  1.081 .      S
C140  C143  1.461 .      S
C141  H142  1.080 .      S
C143  O26   1.345 .      S
O26   H143  0.966 .      S
C144  C145  1.514 .      S
C144  H144  1.085 .      S
C144  H145  1.104 .      S
C144  H146  1.091 .      S
C145  C146  1.509 .      S
C145  C147  1.471 .      S
C145  H147  1.100 .      S
C146  H148  1.108 .      S
C146  H149  1.099 .      S
C146  H150  1.095 .      S
C149  H151  1.050 .      S
C150  H152  1.080 .      S
C151  C154  1.462 .      S
C152  H153  1.056 .      S
C154  O28   1.347 .      S
O28   H154  0.966 .      S
C155  C156  1.525 .      S
C155  H155  1.089 .      S
C155  H156  1.100 .      S
C155  H157  1.088 .      S
C156  C157  1.525 .      S
C156  C158  1.501 .      S
C156  H158  1.076 .      S
C157  H159  1.100 .      S
C157  H160  1.106 .      S
C157  H161  1.092 .      S
C160  H162  1.061 .      S
C161  H163  1.081 .      S
C162  C165  1.466 .      S
C163  H164  1.061 .      S
C165  O30   1.338 .      S
O30   H165  0.964 .      S
C166  C167  1.518 .      S
C166  H166  1.109 .      S
C166  H167  1.109 .      S
C166  H168  1.106 .      S
C167  C168  1.492 .      S
C167  C169  1.504 .      S
C167  H169  1.103 .      S
C168  H170  1.099 .      S
C168  H171  1.097 .      S
C168  H172  1.097 .      S
N31   Zn1   2.213 1_455  S
C171  H173  1.081 1_455  S
C172  H174  1.077 .      S
C173  C176  1.461 .      S
C174  H175  1.080 .      S
N32   Zn9   2.273 1_544  S
C176  O32   1.346 .      S
O32   H176  0.966 .      S
H173  C171  1.081 1_655  S
C177  C178  1.490 .      S
C177  H177  1.074 .      S
C177  H178  1.105 .      S
C177  H179  1.083 .      S
C178  C179  1.497 1_545  S
C178  C180  1.446 1_556  S
C178  H180  1.097 1_545  S
C179  C178  1.497 1_565  S
C179  H181  1.106 .      S
C179  H182  1.109 .      S
C179  H183  1.103 1_565  S
C180  C178  1.446 1_554  S
C182  H184  1.070 .      S
C183  H185  1.081 .      S
C184  C187  1.460 .      S
C185  H186  1.082 .      S
N34   Zn9   2.093 1_544  S
C187  O34   1.345 .      S
O34   H187  0.965 .      S
H180  C178  1.097 1_565  S
H183  C179  1.103 1_545  S
C188  C189  1.524 1_565  S
C188  H188  1.099 .      S
C188  H189  1.091 .      S
C188  H190  1.096 .      S
C189  C188  1.524 1_545  S
C189  C190  1.483 .      S
C189  C191  1.404 1_545  S
C189  H191  1.095 .      S
C190  H192  1.103 .      S
C190  H193  1.040 .      S
C190  H194  1.103 .      S
C191  C189  1.404 1_565  S
C193  H195  1.079 .      S
C194  H196  1.081 .      S
C195  C198  1.448 .      S
C196  H197  1.077 .      S
C198  O36   1.347 .      S
O36   H198  0.957 .      S
C199  C200  1.503 1_655  S
C199  H199  1.097 .      S
C199  H200  1.109 .      S
C199  H201  1.103 .      S
C200  C199  1.503 1_455  S
C200  C201  1.524 .      S
C200  C202  1.507 .      S
C200  H202  1.093 .      S
C201  H203  1.104 .      S
C201  H204  1.107 .      S
C201  H205  1.100 .      S
C204  H206  1.062 .      S
C205  H207  1.079 .      S
C206  C209  1.462 .      S
C207  H208  1.066 .      S
N38   Zn3   2.142 1_455  S
C209  O38   1.345 .      S
O38   H209  0.965 .      S
C210  C211  1.502 .      S
C210  H210  1.098 .      S
C210  H211  1.101 .      S
C210  H212  1.108 .      S
C211  C212  1.509 .      S
C211  C213  1.478 .      S
C211  H213  1.085 .      S
C212  H214  1.109 .      S
C212  H215  1.076 .      S
C212  H216  1.103 .      S
C215  H217  1.051 .      S
C216  H218  1.081 .      S
C217  C220  1.461 1_565  S
C218  H219  1.078 1_565  S
C220  C217  1.461 1_545  S
C220  O40   1.346 .      S
O40   H220  0.966 .      S
H219  C218  1.078 1_545  S
C221  C222  1.510 1_655  S
C221  H221  1.095 .      S
C221  H222  1.100 .      S
C221  H223  1.104 .      S
C222  C221  1.510 1_455  S
C222  C223  1.488 .      S
C222  C224  1.516 .      S
C222  H224  1.106 .      S
C223  H225  1.086 .      S
C223  H226  1.109 .      S
C223  H227  1.093 .      S
N41   Zn3   2.014 1_455  S
C226  H228  1.056 .      S
C227  H229  1.079 .      S
C228  C231  1.462 .      S
C229  H230  1.054 .      S
C231  O42   1.347 .      S
O42   H231  0.966 .      S
C232  C233  1.514 .      S
C232  H232  1.092 .      S
C232  H233  1.106 .      S
C232  H234  1.099 .      S
C233  C234  1.496 .      S
C233  C235  1.472 .      S
C233  H235  1.067 .      S
C234  H236  1.099 .      S
C234  H237  1.093 .      S
C234  H238  1.087 .      S
C237  H239  1.075 .      S
C238  H240  1.069 .      S
C239  C242  1.464 .      S
C240  H241  1.075 .      S
C242  O44   1.348 1_655  S
O44   C242  1.348 1_455  S
O44   H242  0.965 .      S
C243  C244  1.507 .      S
C243  H243  1.083 .      S
C243  H244  1.109 .      S
C243  H245  1.108 .      S
C244  C245  1.500 .      S
C244  C246  1.462 .      S
C244  H246  1.072 .      S
C245  H247  1.109 .      S
C245  H248  1.092 .      S
C245  H249  1.103 .      S
C248  H250  1.068 .      S
C249  H251  1.079 .      S
C250  C253  1.461 .      S
C251  H252  1.079 .      S
C253  O46   1.346 .      S
O46   H253  0.966 .      S
C254  C255  1.498 .      S
C254  H254  1.088 .      S
C254  H255  1.106 .      S
C254  H256  1.089 .      S
C255  C256  1.471 1_655  S
C255  C257  1.464 .      S
C255  H257  1.095 .      S
C256  C255  1.471 1_455  S
C256  H258  1.093 .      S
C256  H259  1.090 .      S
C256  H260  1.092 .      S
C259  H261  1.082 .      S
C260  H262  1.081 .      S
C261  C264  1.463 .      S
C262  H263  1.074 .      S
C264  O48   1.346 .      S
O48   H264  0.966 .      S
C4    N1    1.396 .      A
C4    N2    1.399 .      A
N1    C5    1.347 .      A
C5    C6    1.379 .      A
C5    C10   1.364 1_655  A
C6    C7    1.385 .      A
C7    C8    1.377 1_655  A
C8    C7    1.377 1_455  A
C8    C9    1.378 .      A
C9    C10   1.386 .      A
C10   C5    1.364 1_455  A
C10   N2    1.355 1_455  A
N2    C10   1.355 1_655  A
C15   N3    1.378 .      A
C15   N4    1.389 1_556  A
N3    C16   1.356 1_556  A
C16   N3    1.356 1_554  A
C16   C17   1.383 .      A
C16   C21   1.360 .      A
C17   C18   1.386 .      A
C18   C19   1.392 .      A
C19   C20   1.354 .      A
C20   C21   1.343 .      A
C21   N4    1.328 .      A
N4    C15   1.389 1_554  A
C26   N5    1.355 .      A
C26   N6    1.397 .      A
N5    C27   1.321 .      A
C27   C28   1.353 .      A
C27   C32   1.365 .      A
C28   C29   1.367 .      A
C29   C30   1.364 .      A
C30   C31   1.394 .      A
C31   C32   1.376 .      A
C32   N6    1.358 .      A
C37   N7    1.403 .      A
C37   N8    1.398 .      A
N7    C38   1.335 .      A
C38   C39   1.361 1_455  A
C38   C43   1.374 .      A
C39   C38   1.361 1_655  A
C39   C40   1.375 .      A
C40   C41   1.380 1_655  A
C41   C40   1.380 1_455  A
C41   C42   1.388 .      A
C42   C43   1.393 .      A
C43   N8    1.373 .      A
C48   N9    1.396 .      A
C48   N10   1.403 .      A
N9    C49   1.352 1_556  A
C49   N9    1.352 1_554  A
C49   C50   1.367 .      A
C49   C54   1.371 1_554  A
C50   C51   1.384 .      A
C51   C52   1.387 .      A
C52   C53   1.383 .      A
C53   C54   1.378 1_554  A
C54   C49   1.371 1_556  A
C54   C53   1.378 1_556  A
C54   N10   1.351 .      A
C59   N11   1.370 .      A
C59   N12   1.386 .      A
N11   C60   1.359 .      A
C60   C61   1.379 .      A
C60   C65   1.357 .      A
C61   C62   1.380 .      A
C62   C63   1.387 .      A
C63   C64   1.359 .      A
C64   C65   1.351 .      A
C65   N12   1.332 .      A
C70   N13   1.389 1_455  A
C70   N14   1.365 .      A
N13   C70   1.389 1_655  A
N13   C71   1.347 .      A
C71   C72   1.362 .      A
C71   C76   1.359 1_655  A
C72   C73   1.369 1_655  A
C73   C72   1.369 1_455  A
C73   C74   1.373 .      A
C74   C75   1.384 .      A
C75   C76   1.370 .      A
C76   C71   1.359 1_455  A
C76   N14   1.334 .      A
C81   N15   1.393 .      A
C81   N16   1.388 .      A
N15   C82   1.347 .      A
C82   C83   1.364 .      A
C82   C87   1.369 .      A
C83   C84   1.387 .      A
C84   C85   1.390 .      A
C85   C86   1.383 .      A
C86   C87   1.371 .      A
C87   N16   1.346 .      A
C92   N17   1.402 .      A
C92   N18   1.385 .      A
N17   C93   1.359 .      A
C93   C94   1.382 .      A
C93   C98   1.359 .      A
C94   C95   1.388 .      A
C95   C96   1.392 .      A
C96   C97   1.401 .      A
C97   C98   1.399 .      A
C98   N18   1.339 .      A
C103  N19   1.381 .      A
C103  N20   1.355 1_556  A
N19   C104  1.347 .      A
C104  C105  1.355 .      A
C104  C109  1.361 .      A
C105  C106  1.375 .      A
C106  C107  1.378 1_556  A
C107  C106  1.378 1_554  A
C107  C108  1.387 .      A
C108  C109  1.375 1_554  A
C109  C108  1.375 1_556  A
C109  N20   1.347 1_556  A
N20   C103  1.355 1_554  A
N20   C109  1.347 1_554  A
C114  N21   1.391 .      A
C114  N22   1.362 .      A
N21   C115  1.351 .      A
C115  C116  1.371 .      A
C115  C120  1.375 .      A
C116  C117  1.380 .      A
C117  C118  1.390 1_545  A
C118  C117  1.390 1_565  A
C118  C119  1.392 .      A
C119  C120  1.377 1_565  A
C120  C119  1.377 1_545  A
C120  N22   1.348 .      A
C125  N23   1.394 .      A
C125  N24   1.409 1_455  A
N23   C126  1.353 .      A
C126  C127  1.371 .      A
C126  C131  1.383 .      A
C127  C128  1.386 .      A
C128  C129  1.395 .      A
C129  C130  1.392 1_455  A
C130  C129  1.392 1_655  A
C130  C131  1.372 1_655  A
C131  C130  1.372 1_455  A
C131  N24   1.349 1_455  A
N24   C125  1.409 1_655  A
N24   C131  1.349 1_655  A
C136  N25   1.382 .      A
C136  N26   1.386 .      A
N25   C137  1.353 .      A
C137  C138  1.382 .      A
C137  C142  1.374 .      A
C138  C139  1.377 .      A
C139  C140  1.383 .      A
C140  C141  1.390 .      A
C141  C142  1.385 .      A
C142  N26   1.359 .      A
C147  N27   1.387 .      A
C147  N28   1.360 1_455  A
N27   C148  1.334 .      A
C148  C149  1.355 .      A
C148  C153  1.334 1_455  A
C149  C150  1.371 1_455  A
C150  C149  1.371 1_655  A
C150  C151  1.370 .      A
C151  C152  1.398 .      A
C152  C153  1.354 .      A
C153  C148  1.334 1_655  A
C153  N28   1.337 .      A
N28   C147  1.360 1_655  A
C158  N29   1.401 .      A
C158  N30   1.368 .      A
N29   C159  1.335 .      A
C159  C160  1.362 .      A
C159  C164  1.346 .      A
C160  C161  1.365 .      A
C161  C162  1.378 .      A
C162  C163  1.406 .      A
C163  C164  1.367 .      A
C164  N30   1.351 .      A
C169  N31   1.400 .      A
C169  N32   1.422 .      A
N31   C170  1.348 .      A
C170  C171  1.371 .      A
C170  C175  1.382 .      A
C171  C172  1.384 1_545  A
C172  C171  1.384 1_565  A
C172  C173  1.392 .      A
C173  C174  1.384 .      A
C174  C175  1.371 1_565  A
C175  C174  1.371 1_545  A
C175  N32   1.347 .      A
C180  N33   1.387 .      A
C180  N34   1.359 .      A
N33   C181  1.348 .      A
C181  C182  1.370 .      A
C181  C186  1.368 .      A
C182  C183  1.383 .      A
C183  C184  1.389 .      A
C184  C185  1.386 .      A
C185  C186  1.376 .      A
C186  N34   1.351 .      A
C191  N35   1.389 .      A
C191  N36   1.356 .      A
N35   C192  1.375 .      A
C192  C193  1.398 .      A
C192  C197  1.368 .      A
C193  C194  1.395 .      A
C194  C195  1.389 .      A
C195  C196  1.359 .      A
C196  C197  1.343 .      A
C197  N36   1.323 .      A
C202  N37   1.402 .      A
C202  N38   1.395 .      A
N37   C203  1.335 .      A
C203  C204  1.349 .      A
C203  C208  1.369 .      A
C204  C205  1.376 .      A
C205  C206  1.381 .      A
C206  C207  1.387 .      A
C207  C208  1.389 .      A
C208  N38   1.363 .      A
C213  N39   1.411 .      A
C213  N40   1.378 .      A
N39   C214  1.370 .      A
C214  C215  1.378 .      A
C214  C219  1.373 .      A
C215  C216  1.385 .      A
C216  C217  1.384 .      A
C217  C218  1.377 .      A
C218  C219  1.371 .      A
C219  N40   1.333 .      A
C224  N41   1.387 .      A
C224  N42   1.394 .      A
N41   C225  1.325 .      A
C225  C226  1.358 .      A
C225  C230  1.335 .      A
C226  C227  1.364 .      A
C227  C228  1.363 .      A
C228  C229  1.405 .      A
C229  C230  1.367 .      A
C230  N42   1.354 .      A
C235  N43   1.410 .      A
C235  N44   1.361 .      A
N43   C236  1.362 .      A
C236  C237  1.371 .      A
C236  C241  1.362 .      A
C237  C238  1.389 .      A
C238  C239  1.392 .      A
C239  C240  1.369 .      A
C240  C241  1.365 .      A
C241  N44   1.326 .      A
C246  N45   1.400 .      A
C246  N46   1.378 .      A
N45   C247  1.358 .      A
C247  C248  1.373 1_655  A
C247  C252  1.373 .      A
C248  C247  1.373 1_455  A
C248  C249  1.386 .      A
C249  C250  1.389 .      A
C250  C251  1.381 .      A
C251  C252  1.370 1_455  A
C252  C251  1.370 1_655  A
C252  N46   1.339 .      A
C257  N47   1.379 .      A
C257  N48   1.374 .      A
N47   C258  1.353 .      A
C258  C259  1.379 .      A
C258  C263  1.376 .      A
C259  C260  1.380 .      A
C260  C261  1.386 .      A
C261  C262  1.385 .      A
C262  C263  1.389 .      A
C263  N48   1.362 .      A
C11   O1    1.219 .      D
C22   O3    1.214 .      D
C33   O5    1.217 .      D
C44   O7    1.219 1_455  D
O7    C44   1.219 1_655  D
C55   O9    1.219 .      D
C66   O11   1.212 .      D
C77   O13   1.216 .      D
C88   O15   1.219 .      D
C99   O17   1.218 .      D
C110  O19   1.218 .      D
C121  O21   1.219 .      D
C132  O23   1.219 .      D
C143  O25   1.219 .      D
C154  O27   1.219 .      D
C165  O29   1.219 .      D
C176  O31   1.219 .      D
C187  O33   1.219 .      D
C198  O35   1.217 .      D
C209  O37   1.219 .      D
C220  O39   1.219 .      D
C231  O41   1.220 .      D
C242  O43   1.221 .      D
C253  O45   1.219 .      D
C264  O47   1.219 .      D
