data_str_m1_o12216_OSI
_audit_creation_date              2015-10-01T06:25:25-0700
_symmetry_space_group_name_H-M    P1
_symmetry_Int_Tables_number       1
_space_group_crystal_system       triclinic
loop_
_symmetry_equiv_pos_as_xyz
  x,y,z
_cell_length_a                    10.3129378
_cell_length_b                    26.8055756
_cell_length_c                    26.2916857
_cell_angle_alpha                 88.6428195
_cell_angle_beta                  101.212189
_cell_angle_gamma                 100.745806
_cell_volume                      7003.84531222

loop_
_atom_site_label
_atom_site_type_symbol
_atom_site_description
_atom_site_fract_x
_atom_site_fract_y
_atom_site_fract_z
_atom_type_partial_charge
Zn1   Zn    Zn3+2 0.731494 0.868109 0.143550 0.000000
Zn2   Zn    Zn3+2 0.123355 0.875475 0.831799 0.000000
Zn3   Zn    Zn3+2 0.814815 0.635450 0.589928 0.000000
Zn4   Zn    Zn3+2 0.453036 0.975199 0.493448 0.000000
Zn5   Zn    Zn3+2 0.953082 0.871256 0.591367 0.000000
Zn6   Zn    Zn3+2 0.133667 0.635333 0.272151 0.000000
Zn7   Zn    Zn3+2 0.294452 0.869088 0.272147 0.000000
Zn8   Zn    Zn3+2 0.270836 0.323443 0.830574 0.000000
Zn9   Zn    Zn3+2 0.188497 0.324687 0.591293 0.000000
Zn10  Zn    Zn3+2 0.714682 0.188047 0.831254 0.000000
Zn11  Zn    Zn3+2 0.713832 0.974253 0.931189 0.000000
Zn12  Zn    Zn3+2 0.436843 0.541453 0.917019 0.000000
Zn13  Zn    Zn3+2 0.236106 0.539588 0.491976 0.000000
Zn14  Zn    Zn3+2 0.641268 0.187711 0.596626 0.000000
Zn15  Zn    Zn3+2 0.567617 0.636616 0.136587 0.000000
Zn16  Zn    Zn3+2 0.931189 0.641099 0.827659 0.000000
C1    C     C_3   0.872492 0.797015 0.347016 0.000000
C2    C     C_R   0.753288 0.813947 0.317426 0.000000
C3    C     C_R   0.641738 0.811262 0.339814 0.000000
C4    C     C_R   0.539596 0.835573 0.316886 0.000000
C5    C     C_R   0.550977 0.859192 0.270998 0.000000
N1    N     N_R   0.454913 0.878716 0.240452 0.000000
C6    C     C_R   0.509472 0.892870 0.197285 0.000000
N2    N     N_R   0.631470 0.879087 0.199407 0.000000
C7    C     C_R   0.654683 0.858606 0.246904 0.000000
C8    C     C_R   0.760699 0.837316 0.270308 0.000000
S1    S     S_3+2 0.427134 0.920853 0.140739 0.000000
O1    O     O_2   0.576352 0.945787 0.154961 0.000000
O2    O     O_2   0.412497 0.976446 0.145504 0.000000
O3    O     O_3   0.360634 0.921964 0.195066 0.000000
H1    H     H_    0.952716 0.829450 0.344917 0.000000
H2    H     H_    0.893700 0.762850 0.329710 0.000000
H3    H     H_    0.858689 0.789989 0.387411 0.000000
H4    H     H_    0.637311 0.791576 0.375961 0.000000
H5    H     H_    0.453205 0.836044 0.333931 0.000000
H6    H     H_    0.849890 0.841387 0.254670 0.000000
H7    H     H_    0.275554 0.933714 0.180873 0.000000
C9    C     C_3   0.268474 0.802822 0.066892 0.000000
C10   C     C_R   0.169224 0.817794 0.094642 0.000000
C11   C     C_R   0.036383 0.814134 0.069365 0.000000
C12   C     C_R   0.944503 0.830581 0.093737 0.000000
C13   C     C_R   0.990003 0.849683 0.143196 0.000000
N3    N     N_R   0.919595 0.869095 0.172649 0.000000
C14   C     C_R   0.013075 0.885900 0.215794 0.000000
N4    N     N_R   0.136393 0.874570 0.215763 0.000000
C15   C     C_R   0.118873 0.852998 0.168371 0.000000
C16   C     C_R   0.211362 0.837354 0.144586 0.000000
S2    S     S_3+2 0.983133 0.924200 0.263593 0.000000
O4    O     O_2   0.833936 0.926891 0.258856 0.000000
O5    O     O_2   0.048830 0.980092 0.259308 0.000000
O6    O     O_3   0.040949 0.907008 0.325180 0.000000
H8    H     H_    0.371338 0.813954 0.090262 0.000000
H9    H     H_    0.259797 0.821816 0.028906 0.000000
H10   H     H_    0.247199 0.761328 0.060489 0.000000
H11   H     H_    0.005732 0.799420 0.030163 0.000000
H12   H     H_    0.841141 0.828854 0.074447 0.000000
H13   H     H_    0.314175 0.841609 0.162663 0.000000
H14   H     H_    0.133642 0.926537 0.333844 0.000000
C17   C     C_3   0.279360 0.048760 0.638350 0.000000
C18   C     C_R   0.249024 0.004074 0.671062 0.000000
C19   C     C_R   0.307098 0.003968 0.723627 0.000000
C20   C     C_R   0.275640 0.961617 0.753550 0.000000
C21   C     C_R   0.182195 0.921801 0.730159 0.000000
N5    N     N_R   0.105038 0.885968 0.753769 0.000000
C22   C     C_R   0.008942 0.863874 0.713028 0.000000
N6    N     N_R   0.028702 0.883391 0.665882 0.000000
C23   C     C_R   0.131128 0.921823 0.678665 0.000000
C24   C     C_R   0.164416 0.961719 0.647706 0.000000
S3    S     S_3+2 0.847878 0.833663 0.723104 0.000000
O7    O     O_2   0.865286 0.794461 0.765820 0.000000
O8    O     O_2   0.760917 0.801782 0.676694 0.000000
O9    O     O_3   0.746509 0.870369 0.742769 0.000000
H15   H     H_    0.336392 0.080708 0.664250 0.000000
H16   H     H_    0.183854 0.056891 0.615411 0.000000
H17   H     H_    0.335896 0.039844 0.608985 0.000000
H18   H     H_    0.371083 0.037927 0.741750 0.000000
H19   H     H_    0.304220 0.961856 0.795094 0.000000
H20   H     H_    0.114871 0.962646 0.607683 0.000000
H21   H     H_    0.660504 0.846710 0.742879 0.000000
C25   C     C_3   0.376720 0.804213 0.687501 0.000000
C26   C     C_R   0.236550 0.779488 0.664681 0.000000
C27   C     C_R   0.195694 0.728973 0.676159 0.000000
C28   C     C_R   0.071999 0.702453 0.651586 0.000000
C29   C     C_R   0.994604 0.727593 0.615937 0.000000
N7    N     N_R   0.874641 0.709256 0.587141 0.000000
C30   C     C_R   0.828308 0.752411 0.568678 0.000000
N8    N     N_R   0.919158 0.796074 0.584338 0.000000
C31   C     C_R   0.023862 0.778007 0.611654 0.000000
C32   C     C_R   0.146753 0.804993 0.632486 0.000000
S4    S     S_3+2 0.660596 0.752044 0.534843 0.000000
O10   O     O_2   0.584830 0.697755 0.520691 0.000000
O11   O     O_2   0.657534 0.775830 0.480996 0.000000
O12   O     O_3   0.555120 0.780152 0.563012 0.000000
H22   H     H_    0.435052 0.774340 0.702230 0.000000
H23   H     H_    0.379192 0.828977 0.720916 0.000000
H24   H     H_    0.424133 0.825326 0.657287 0.000000
H25   H     H_    0.262068 0.710067 0.703662 0.000000
H26   H     H_    0.033871 0.664304 0.661166 0.000000
H27   H     H_    0.168456 0.842762 0.618631 0.000000
H28   H     H_    0.531727 0.756636 0.590818 0.000000
C33   C     C_3   0.965592 0.968556 0.367197 0.000000
C34   C     C_R   0.022923 0.932516 0.405159 0.000000
C35   C     C_R   0.942173 0.888495 0.417117 0.000000
C36   C     C_R   0.958082 0.874471 0.468949 0.000000
C37   C     C_R   0.071421 0.899535 0.501505 0.000000
N9    N     N_R   0.105481 0.897244 0.553271 0.000000
C38   C     C_R   0.240855 0.919751 0.562769 0.000000
N10   N     N_R   0.284023 0.939826 0.518723 0.000000
C39   C     C_R   0.173471 0.927229 0.481992 0.000000
C40   C     C_R   0.150422 0.945937 0.433378 0.000000
S5    S     S_3+2 0.361035 0.916443 0.622578 0.000000
O13   O     O_2   0.317703 0.890473 0.670607 0.000000
O14   O     O_2   0.412375 0.969817 0.644894 0.000000
O15   O     O_3   0.506294 0.896137 0.617862 0.000000
H29   H     H_    0.873122 0.948252 0.342171 0.000000
H30   H     H_    0.039818 0.988414 0.344763 0.000000
H31   H     H_    0.936685 0.998180 0.389165 0.000000
H32   H     H_    0.855577 0.873269 0.388284 0.000000
H33   H     H_    0.885115 0.846265 0.483390 0.000000
H34   H     H_    0.221369 0.974143 0.419993 0.000000
H35   H     H_    0.478949 0.870831 0.589131 0.000000
C41   C     C_3   0.589191 0.032438 0.691208 0.000000
C42   C     C_R   0.644077 0.997140 0.662310 0.000000
C43   C     C_R   0.730043 0.966327 0.687709 0.000000
C44   C     C_R   0.786385 0.935449 0.659998 0.000000
C45   C     C_R   0.747069 0.933735 0.606996 0.000000
N11   N     N_R   0.787663 0.908200 0.570833 0.000000
C46   C     C_R   0.702700 0.919721 0.526065 0.000000
N12   N     N_R   0.612268 0.948420 0.534152 0.000000
C47   C     C_R   0.649077 0.959102 0.584270 0.000000
C48   C     C_R   0.600407 0.992449 0.609715 0.000000
S6    S     S_3+2 0.733443 0.917738 0.463379 0.000000
O16   O     O_2   0.871084 0.948676 0.458187 0.000000
O17   O     O_2   0.642649 0.949832 0.429635 0.000000
O18   O     O_3   0.695923 0.861244 0.430333 0.000000
H36   H     H_    0.548558 0.011640 0.723304 0.000000
H37   H     H_    0.511640 0.048604 0.665077 0.000000
H38   H     H_    0.665238 0.066392 0.703700 0.000000
H39   H     H_    0.749964 0.965180 0.729375 0.000000
H40   H     H_    0.852030 0.912153 0.680339 0.000000
H41   H     H_    0.525744 0.012798 0.589385 0.000000
H42   H     H_    0.621290 0.866314 0.401938 0.000000
C49   C     C_3   0.486621 0.126731 0.338989 0.000000
C50   C     C_R   0.442643 0.070725 0.336837 0.000000
C51   C     C_R   0.388420 0.046266 0.289355 0.000000
C52   C     C_R   0.351511 0.993869 0.286382 0.000000
C53   C     C_R   0.369621 0.967144 0.331476 0.000000
N13   N     N_R   0.346281 0.916259 0.337368 0.000000
C54   C     C_R   0.381887 0.912028 0.390921 0.000000
N14   N     N_R   0.421754 0.957853 0.416700 0.000000
C55   C     C_R   0.416672 0.991493 0.378163 0.000000
C56   C     C_R   0.456303 0.043220 0.382163 0.000000
S7    S     S_3+2 0.383676 0.854483 0.427112 0.000000
O19   O     O_2   0.277295 0.847159 0.461419 0.000000
O20   O     O_2   0.511420 0.860861 0.469459 0.000000
O21   O     O_3   0.373582 0.796110 0.399957 0.000000
H43   H     H_    0.562901 0.137862 0.314329 0.000000
H44   H     H_    0.531601 0.138688 0.379618 0.000000
H45   H     H_    0.398839 0.145179 0.324806 0.000000
H46   H     H_    0.376227 0.068312 0.254358 0.000000
H47   H     H_    0.307600 0.975085 0.249978 0.000000
H48   H     H_    0.499033 0.061775 0.419217 0.000000
H49   H     H_    0.459621 0.785774 0.415774 0.000000
C57   C     C_3   0.947425 0.718959 0.438903 0.000000
C58   C     C_R   0.040439 0.740829 0.404304 0.000000
C59   C     C_R   0.088873 0.792609 0.405885 0.000000
C60   C     C_R   0.160811 0.814597 0.369291 0.000000
C61   C     C_R   0.182391 0.783514 0.332489 0.000000
N15   N     N_R   0.245239 0.797297 0.293010 0.000000
C62   C     C_R   0.240250 0.752158 0.268988 0.000000
N16   N     N_R   0.174680 0.710707 0.291862 0.000000
C63   C     C_R   0.138646 0.732439 0.331648 0.000000
C64   C     C_R   0.070465 0.710018 0.368463 0.000000
S8    S     S_3+2 0.318753 0.749153 0.214987 0.000000
O22   O     O_2   0.430524 0.795300 0.215045 0.000000
O23   O     O_2   0.229608 0.752888 0.161595 0.000000
O24   O     O_3   0.403195 0.701652 0.211365 0.000000
H50   H     H_    0.955429 0.745998 0.471089 0.000000
H51   H     H_    0.967034 0.680947 0.451647 0.000000
H52   H     H_    0.843276 0.714173 0.417257 0.000000
H53   H     H_    0.060046 0.816159 0.433006 0.000000
H54   H     H_    0.187202 0.855143 0.366922 0.000000
H55   H     H_    0.046078 0.669999 0.371640 0.000000
H56   H     H_    0.461020 0.714058 0.185990 0.000000
C65   C     C_3   0.985558 0.497096 0.657852 0.000000
C66   C     C_R   0.062210 0.460274 0.686096 0.000000
C67   C     C_R   0.072463 0.455961 0.739629 0.000000
C68   C     C_R   0.130856 0.418031 0.766266 0.000000
C69   C     C_R   0.180635 0.386486 0.737867 0.000000
N17   N     N_R   0.235791 0.346054 0.754772 0.000000
C70   C     C_R   0.242106 0.323944 0.709167 0.000000
N18   N     N_R   0.200920 0.349525 0.665606 0.000000
C71   C     C_R   0.164250 0.389453 0.685027 0.000000
C72   C     C_R   0.108738 0.426703 0.658052 0.000000
S9    S     S_3+2 0.307386 0.270673 0.702891 0.000000
O25   O     O_2   0.449079 0.290096 0.693449 0.000000
O26   O     O_2   0.238882 0.247633 0.649640 0.000000
O27   O     O_3   0.308919 0.221690 0.746205 0.000000
H57   H     H_    0.885105 0.476997 0.639066 0.000000
H58   H     H_    0.035932 0.514065 0.626437 0.000000
H59   H     H_    0.975413 0.525274 0.686234 0.000000
H60   H     H_    0.031230 0.481606 0.760397 0.000000
H61   H     H_    0.138098 0.413839 0.807662 0.000000
H62   H     H_    0.094425 0.427746 0.616251 0.000000
H63   H     H_    0.255246 0.229411 0.771321 0.000000
C73   C     C_3   0.085213 0.341723 0.028825 0.000000
C74   C     C_R   0.013069 0.325234 0.975592 0.000000
C75   C     C_R   0.884156 0.296761 0.969190 0.000000
C76   C     C_R   0.825707 0.272057 0.922759 0.000000
C77   C     C_R   0.901987 0.275002 0.885127 0.000000
N19   N     N_R   0.879515 0.242507 0.845456 0.000000
C78   C     C_R   0.994242 0.254450 0.825644 0.000000
N20   N     N_R   0.087324 0.293787 0.850655 0.000000
C79   C     C_R   0.026561 0.304764 0.889623 0.000000
C80   C     C_R   0.081101 0.332488 0.934564 0.000000
S10   S     S_3+2 0.020855 0.216765 0.776761 0.000000
O28   O     O_2   0.876792 0.220756 0.779603 0.000000
O29   O     O_2   0.075887 0.195995 0.829913 0.000000
O30   O     O_3   0.100927 0.277643 0.778215 0.000000
H64   H     H_    0.017356 0.357233 0.049372 0.000000
H65   H     H_    0.178654 0.369527 0.027400 0.000000
H66   H     H_    0.113103 0.308092 0.050513 0.000000
H67   H     H_    0.832904 0.291273 0.001625 0.000000
H68   H     H_    0.729721 0.246525 0.918460 0.000000
H69   H     H_    0.177920 0.355439 0.940676 0.000000
H70   H     H_    0.028531 0.296617 0.764288 0.000000
C81   C     C_3   0.369672 0.103486 0.968150 0.000000
C82   C     C_R   0.363427 0.144648 0.929528 0.000000
C83   C     C_R   0.266177 0.174349 0.927887 0.000000
C84   C     C_R   0.267577 0.217115 0.897592 0.000000
C85   C     C_R   0.366067 0.228529 0.868490 0.000000
N21   N     N_R   0.397849 0.271964 0.843131 0.000000
C86   C     C_R   0.519818 0.267456 0.831328 0.000000
N22   N     N_R   0.555020 0.220596 0.842746 0.000000
C87   C     C_R   0.458946 0.198222 0.868436 0.000000
C88   C     C_R   0.459642 0.155681 0.898681 0.000000
S11   S     S_3+2 0.634869 0.319007 0.810751 0.000000
O31   O     O_2   0.583087 0.341180 0.758068 0.000000
O32   O     O_2   0.757676 0.299650 0.799576 0.000000
O33   O     O_3   0.703396 0.369800 0.852088 0.000000
H71   H     H_    0.367747 0.119025 0.006647 0.000000
H72   H     H_    0.464539 0.089010 0.970970 0.000000
H73   H     H_    0.281188 0.072810 0.956645 0.000000
H74   H     H_    0.193663 0.165713 0.952982 0.000000
H75   H     H_    0.200229 0.242382 0.900894 0.000000
H76   H     H_    0.537307 0.133452 0.901354 0.000000
H77   H     H_    0.626007 0.379025 0.864329 0.000000
C89   C     C_3   0.442119 0.303893 0.044091 0.000000
C90   C     C_R   0.430986 0.348126 0.009420 0.000000
C91   C     C_R   0.462841 0.396963 0.030255 0.000000
C92   C     C_R   0.454538 0.438823 0.998643 0.000000
C93   C     C_R   0.410788 0.430763 0.945875 0.000000
N23   N     N_R   0.401115 0.464828 0.906699 0.000000
C94   C     C_R   0.368885 0.433943 0.863084 0.000000
N24   N     N_R   0.348084 0.383702 0.874681 0.000000
C95   C     C_R   0.383235 0.382871 0.926186 0.000000
C96   C     C_R   0.392007 0.340700 0.956442 0.000000
S12   S     S_3+2 0.423601 0.450269 0.803308 0.000000
O34   O     O_2   0.558469 0.487523 0.808721 0.000000
O35   O     O_2   0.327188 0.472932 0.761300 0.000000
O36   O     O_3   0.450780 0.398257 0.773457 0.000000
H78   H     H_    0.547141 0.307413 0.065703 0.000000
H79   H     H_    0.413975 0.268330 0.020590 0.000000
H80   H     H_    0.373559 0.302939 0.071928 0.000000
H81   H     H_    0.497957 0.402498 0.071587 0.000000
H82   H     H_    0.492062 0.475794 0.015728 0.000000
H83   H     H_    0.369407 0.303060 0.939386 0.000000
H84   H     H_    0.447642 0.372134 0.800674 0.000000
C97   C     C_3   0.266882 0.390484 0.337759 0.000000
C98   C     C_R   0.252396 0.387165 0.392962 0.000000
C99   C     C_R   0.247124 0.340671 0.417673 0.000000
C100  C     C_R   0.232608 0.336781 0.468845 0.000000
C101  C     C_R   0.221105 0.379951 0.493497 0.000000
N25   N     N_R   0.209085 0.384341 0.543007 0.000000
C102  C     C_R   0.231257 0.435846 0.550611 0.000000
N26   N     N_R   0.238330 0.463113 0.505606 0.000000
C103  C     C_R   0.233742 0.426242 0.470570 0.000000
C104  C     C_R   0.246873 0.430589 0.419463 0.000000
S13   S     S_3+2 0.321740 0.461295 0.612007 0.000000
O37   O     O_2   0.253205 0.498341 0.635344 0.000000
O38   O     O_2   0.454161 0.495452 0.605202 0.000000
O39   O     O_3   0.369466 0.421544 0.661434 0.000000
H85   H     H_    0.361141 0.378010 0.333793 0.000000
H86   H     H_    0.270477 0.430237 0.324582 0.000000
H87   H     H_    0.179869 0.365562 0.313601 0.000000
H88   H     H_    0.253850 0.307331 0.396712 0.000000
H89   H     H_    0.227838 0.300804 0.488517 0.000000
H90   H     H_    0.253167 0.465979 0.399774 0.000000
H91   H     H_    0.468977 0.430056 0.669030 0.000000
C105  C     C_3   0.609160 0.240949 0.391116 0.000000
C106  C     C_R   0.721812 0.249710 0.436624 0.000000
C107  C     C_R   0.835751 0.285803 0.434094 0.000000
C108  C     C_R   0.938453 0.296698 0.477018 0.000000
C109  C     C_R   0.927373 0.269657 0.521383 0.000000
N27   N     N_R   0.007261 0.277591 0.568820 0.000000
C110  C     C_R   0.931159 0.248763 0.599945 0.000000
N28   N     N_R   0.810262 0.222819 0.573585 0.000000
C111  C     C_R   0.812522 0.236023 0.524227 0.000000
C112  C     C_R   0.708934 0.224657 0.482462 0.000000
S14   S     S_3+2 0.957024 0.262756 0.666830 0.000000
O40   O     O_2   0.076480 0.241802 0.697626 0.000000
O41   O     O_2   0.840530 0.235734 0.691533 0.000000
O42   O     O_3   0.979533 0.325223 0.684849 0.000000
H92   H     H_    0.581017 0.277817 0.378129 0.000000
H93   H     H_    0.521025 0.215984 0.402299 0.000000
H94   H     H_    0.640875 0.223043 0.359117 0.000000
H95   H     H_    0.841629 0.307223 0.398995 0.000000
H96   H     H_    0.016860 0.328593 0.476533 0.000000
H97   H     H_    0.619825 0.197557 0.485525 0.000000
H98   H     H_    0.896397 0.327944 0.697229 0.000000
C113  C     C_3   0.865574 0.386885 0.610588 0.000000
C114  C     C_R   0.723427 0.362765 0.600133 0.000000
C115  C     C_R   0.625450 0.392300 0.595839 0.000000
C116  C     C_R   0.492656 0.369406 0.591441 0.000000
C117  C     C_R   0.462894 0.317348 0.589949 0.000000
N29   N     N_R   0.342083 0.287919 0.587299 0.000000
C118  C     C_R   0.370309 0.239527 0.586410 0.000000
N30   N     N_R   0.507067 0.238711 0.592553 0.000000
C119  C     C_R   0.559227 0.288666 0.593026 0.000000
C120  C     C_R   0.691216 0.310784 0.600641 0.000000
S15   S     S_3+2 0.240197 0.183685 0.575902 0.000000
O43   O     O_2   0.107584 0.190605 0.590712 0.000000
O44   O     O_2   0.279255 0.142096 0.613316 0.000000
O45   O     O_3   0.191069 0.153422 0.516793 0.000000
H99   H     H_    0.880910 0.418977 0.583709 0.000000
H100  H     H_    0.927866 0.358822 0.604590 0.000000
H101  H     H_    0.886296 0.398545 0.651730 0.000000
H102  H     H_    0.653168 0.433225 0.596604 0.000000
H103  H     H_    0.416682 0.392143 0.589198 0.000000
H104  H     H_    0.768240 0.289250 0.611486 0.000000
H105  H     H_    0.224072 0.120943 0.522295 0.000000
C121  C     C_3   0.101454 0.206673 0.026746 0.000000
C122  C     C_R   0.996697 0.164649 0.000404 0.000000
C123  C     C_R   0.970124 0.118809 0.025518 0.000000
C124  C     C_R   0.876677 0.078731 0.000665 0.000000
C125  C     C_R   0.812099 0.085838 0.951161 0.000000
N31   N     N_R   0.721769 0.051640 0.919766 0.000000
C126  C     C_R   0.675033 0.081657 0.879252 0.000000
N32   N     N_R   0.741130 0.131105 0.882833 0.000000
C127  C     C_R   0.827745 0.132254 0.928561 0.000000
C128  C     C_R   0.923942 0.171868 0.951547 0.000000
S16   S     S_3+2 0.541886 0.060556 0.825783 0.000000
O46   O     O_2   0.509231 0.002935 0.816629 0.000000
O47   O     O_2   0.584947 0.079448 0.775132 0.000000
O48   O     O_3   0.390946 0.079814 0.822529 0.000000
H106  H     H_    0.073452 0.217646 0.062989 0.000000
H107  H     H_    0.109729 0.239769 0.000694 0.000000
H108  H     H_    0.199568 0.193915 0.036215 0.000000
H109  H     H_    0.022715 0.114427 0.064672 0.000000
H110  H     H_    0.847122 0.044705 0.020988 0.000000
H111  H     H_    0.945578 0.206983 0.932152 0.000000
H112  H     H_    0.396443 0.110082 0.800178 0.000000
C129  C     C_3   0.158658 0.134227 0.695846 0.000000
C130  C     C_R   0.032484 0.136485 0.713483 0.000000
C131  C     C_R   0.027416 0.129740 0.765661 0.000000
C132  C     C_R   0.911267 0.132682 0.783166 0.000000
C133  C     C_R   0.801234 0.139788 0.747119 0.000000
N33   N     N_R   0.697568 0.158641 0.757739 0.000000
C134  C     C_R   0.634678 0.170569 0.709558 0.000000
N34   N     N_R   0.693294 0.160468 0.670016 0.000000
C135  C     C_R   0.802916 0.143282 0.695198 0.000000
C136  C     C_R   0.919211 0.142796 0.677355 0.000000
S17   S     S_3+2 0.557230 0.221202 0.701680 0.000000
O49   O     O_2   0.534698 0.236312 0.753975 0.000000
O50   O     O_2   0.415337 0.207348 0.669063 0.000000
O51   O     O_3   0.645295 0.274621 0.678399 0.000000
H113  H     H_    0.194651 0.170527 0.678706 0.000000
H114  H     H_    0.135913 0.104704 0.665605 0.000000
H115  H     H_    0.236253 0.125696 0.728731 0.000000
H116  H     H_    0.116054 0.123841 0.792944 0.000000
H117  H     H_    0.906243 0.129829 0.823878 0.000000
H118  H     H_    0.923992 0.149189 0.636955 0.000000
H119  H     H_    0.687102 0.295945 0.709610 0.000000
C137  C     C_3   0.222351 0.033130 0.051910 0.000000
C138  C     C_R   0.098075 0.000401 0.062429 0.000000
C139  C     C_R   0.089539 0.985121 0.112718 0.000000
C140  C     C_R   0.971324 0.957055 0.123650 0.000000
C141  C     C_R   0.864247 0.944160 0.083127 0.000000
N35   N     N_R   0.738457 0.919514 0.085001 0.000000
C142  C     C_R   0.667477 0.929701 0.036804 0.000000
N36   N     N_R   0.747775 0.955215 0.005258 0.000000
C143  C     C_R   0.870662 0.962717 0.035132 0.000000
C144  C     C_R   0.987439 0.989029 0.022706 0.000000
S18   S     S_3+2 0.488662 0.925258 0.019679 0.000000
O52   O     O_2   0.408410 0.893479 0.056257 0.000000
O53   O     O_2   0.429925 0.896948 0.967881 0.000000
O54   O     O_3   0.430558 0.981310 0.012486 0.000000
H120  H     H_    0.303402 0.035695 0.086837 0.000000
H121  H     H_    0.201624 0.071567 0.041418 0.000000
H122  H     H_    0.252695 0.016529 0.018996 0.000000
H123  H     H_    0.173832 0.997354 0.143992 0.000000
H124  H     H_    0.960243 0.951976 0.163373 0.000000
H125  H     H_    0.990101 0.003610 0.984160 0.000000
H126  H     H_    0.458664 0.997464 0.047348 0.000000
C145  C     C_3   0.691158 0.780463 0.963526 0.000000
C146  C     C_R   0.597053 0.808748 0.929977 0.000000
C147  C     C_R   0.470067 0.783157 0.908155 0.000000
C148  C     C_R   0.372367 0.808670 0.882178 0.000000
C149  C     C_R   0.405185 0.860047 0.878722 0.000000
N37   N     N_R   0.321798 0.893239 0.864419 0.000000
C150  C     C_R   0.404861 0.939161 0.878277 0.000000
N38   N     N_R   0.535765 0.934886 0.898319 0.000000
C151  C     C_R   0.531283 0.884853 0.898584 0.000000
C152  C     C_R   0.630045 0.860607 0.924431 0.000000
S19   S     S_3+2 0.341303 0.995301 0.886621 0.000000
O55   O     O_2   0.455254 0.041231 0.901228 0.000000
O56   O     O_2   0.279840 0.990622 0.935621 0.000000
O57   O     O_3   0.222244 0.015682 0.839995 0.000000
H127  H     H_    0.732911 0.756684 0.939233 0.000000
H128  H     H_    0.772326 0.807501 0.987783 0.000000
H129  H     H_    0.635574 0.755599 0.989561 0.000000
H130  H     H_    0.445786 0.743276 0.914212 0.000000
H131  H     H_    0.271808 0.789570 0.868967 0.000000
H132  H     H_    0.726441 0.881898 0.942828 0.000000
H133  H     H_    0.158851 0.026192 0.859632 0.000000
C153  C     C_3   0.974582 0.033888 0.719026 0.000000
C154  C     C_R   0.944878 0.014635 0.769036 0.000000
C155  C     C_R   0.843745 0.029360 0.789242 0.000000
C156  C     C_R   0.809990 0.008047 0.833551 0.000000
C157  C     C_R   0.882277 0.974782 0.858045 0.000000
N39   N     N_R   0.860439 0.949634 0.900608 0.000000
C158  C     C_R   0.949998 0.916359 0.904466 0.000000
N40   N     N_R   0.020455 0.920360 0.864513 0.000000
C159  C     C_R   0.976764 0.958632 0.837508 0.000000
C160  C     C_R   0.009233 0.977802 0.792802 0.000000
S20   S     S_3+2 0.978862 0.873223 0.956345 0.000000
O58   O     O_2   0.916771 0.882870 0.002945 0.000000
O59   O     O_2   0.129088 0.882440 0.981188 0.000000
O60   O     O_3   0.938635 0.809189 0.943351 0.000000
H134  H     H_    0.902498 0.058577 0.704150 0.000000
H135  H     H_    0.961846 0.001756 0.691645 0.000000
H136  H     H_    0.079754 0.054474 0.725593 0.000000
H137  H     H_    0.784931 0.054840 0.769741 0.000000
H138  H     H_    0.723280 0.013348 0.846359 0.000000
H139  H     H_    0.080518 0.964454 0.776431 0.000000
H140  H     H_    0.025654 0.799231 0.941991 0.000000
C161  C     C_3   0.045393 0.451322 0.026395 0.000000
C162  C     C_R   0.180832 0.482501 0.042261 0.000000
C163  C     C_R   0.221222 0.499715 0.093109 0.000000
C164  C     C_R   0.337277 0.535134 0.107707 0.000000
C165  C     C_R   0.408471 0.553658 0.070125 0.000000
N41   N     N_R   0.516946 0.591186 0.074163 0.000000
C166  C     C_R   0.545884 0.592525 0.025277 0.000000
N42   N     N_R   0.457862 0.557884 0.991739 0.000000
C167  C     C_R   0.371382 0.535105 0.020944 0.000000
C168  C     C_R   0.260378 0.497999 0.005904 0.000000
S21   S     S_3+2 0.666055 0.641329 0.004070 0.000000
O61   O     O_2   0.702048 0.687860 0.040483 0.000000
O62   O     O_2   0.606010 0.664312 0.952785 0.000000
O63   O     O_3   0.817059 0.628379 0.995473 0.000000
H141  H     H_    0.009910 0.434433 0.061236 0.000000
H142  H     H_    0.047900 0.422308 0.997573 0.000000
H143  H     H_    0.976721 0.476846 0.009222 0.000000
H144  H     H_    0.159511 0.486408 0.121312 0.000000
H145  H     H_    0.368242 0.546542 0.147424 0.000000
H146  H     H_    0.231372 0.483964 0.966317 0.000000
H147  H     H_    0.881307 0.660522 0.005354 0.000000
C169  C     C_3   0.162232 0.596048 0.667702 0.000000
C170  C     C_R   0.185725 0.583322 0.722746 0.000000
C171  C     C_R   0.286337 0.556372 0.741972 0.000000
C172  C     C_R   0.327620 0.552456 0.795101 0.000000
C173  C     C_R   0.262057 0.574289 0.826142 0.000000
N43   N     N_R   0.285244 0.574318 0.877907 0.000000
C174  C     C_R   0.186237 0.598257 0.888829 0.000000
N44   N     N_R   0.106389 0.613836 0.845238 0.000000
C175  C     C_R   0.158996 0.598387 0.806898 0.000000
C176  C     C_R   0.121998 0.605116 0.754978 0.000000
S22   S     S_3+2 0.140117 0.595673 0.950951 0.000000
O64   O     O_2   0.262512 0.612598 0.994016 0.000000
O65   O     O_2   0.093994 0.540995 0.967175 0.000000
O66   O     O_3   0.017503 0.627284 0.961586 0.000000
H148  H     H_    0.207728 0.571092 0.647945 0.000000
H149  H     H_    0.216100 0.634993 0.665344 0.000000
H150  H     H_    0.054155 0.591327 0.650233 0.000000
H151  H     H_    0.335889 0.541975 0.714395 0.000000
H152  H     H_    0.415242 0.537813 0.813103 0.000000
H153  H     H_    0.054761 0.629674 0.739024 0.000000
H154  H     H_    0.995742 0.646351 0.929304 0.000000
C177  C     C_3   0.769423 0.416328 0.967568 0.000000
C178  C     C_R   0.791743 0.467546 0.944241 0.000000
C179  C     C_R   0.901940 0.483588 0.921149 0.000000
C180  C     C_R   0.918691 0.530374 0.897436 0.000000
C181  C     C_R   0.823397 0.560209 0.897049 0.000000
N45   N     N_R   0.803134 0.600158 0.866626 0.000000
C182  C     C_R   0.669667 0.600265 0.863299 0.000000
N46   N     N_R   0.612647 0.567246 0.896742 0.000000
C183  C     C_R   0.712027 0.542381 0.916569 0.000000
C184  C     C_R   0.697349 0.497911 0.942701 0.000000
S23   S     S_3+2 0.576251 0.618026 0.803652 0.000000
O67   O     O_2   0.652067 0.665120 0.780754 0.000000
O68   O     O_2   0.443552 0.634076 0.807382 0.000000
O69   O     O_3   0.540412 0.574191 0.754276 0.000000
H155  H     H_    0.666190 0.396133 0.951220 0.000000
H156  H     H_    0.780768 0.420158 0.010189 0.000000
H157  H     H_    0.842366 0.394080 0.958299 0.000000
H158  H     H_    0.973369 0.458916 0.920421 0.000000
H159  H     H_    0.998213 0.539814 0.876184 0.000000
H160  H     H_    0.609496 0.485485 0.957933 0.000000
H161  H     H_    0.600125 0.588360 0.730166 0.000000
C185  C     C_3   0.580282 0.450188 0.503574 0.000000
C186  C     C_R   0.723998 0.475432 0.516764 0.000000
C187  C     C_R   0.820905 0.453275 0.501550 0.000000
C188  C     C_R   0.951730 0.479165 0.508025 0.000000
C189  C     C_R   0.983573 0.527375 0.529065 0.000000
N47   N     N_R   0.097743 0.561795 0.529948 0.000000
C190  C     C_R   0.068610 0.604335 0.551278 0.000000
N48   N     N_R   0.941880 0.596145 0.563857 0.000000
C191  C     C_R   0.890915 0.547813 0.547589 0.000000
C192  C     C_R   0.759017 0.522384 0.541207 0.000000
S24   S     S_3+2 0.170472 0.666924 0.550265 0.000000
O70   O     O_2   0.230610 0.689837 0.604188 0.000000
O71   O     O_2   0.091147 0.707630 0.527233 0.000000
O72   O     O_3   0.307673 0.674608 0.521606 0.000000
H162  H     H_    0.571370 0.408676 0.509031 0.000000
H163  H     H_    0.540013 0.457192 0.462291 0.000000
H164  H     H_    0.521547 0.465913 0.528332 0.000000
H165  H     H_    0.793473 0.416184 0.483098 0.000000
H166  H     H_    0.023733 0.461267 0.495974 0.000000
H167  H     H_    0.679931 0.538325 0.550969 0.000000
H168  H     H_    0.384298 0.688065 0.549695 0.000000
C193  C     C_3   0.556299 0.516184 0.356031 0.000000
C194  C     C_R   0.582788 0.546175 0.404982 0.000000
C195  C     C_R   0.713370 0.568446 0.426872 0.000000
C196  C     C_R   0.739027 0.598005 0.471403 0.000000
C197  C     C_R   0.633496 0.599928 0.495746 0.000000
N49   N     N_R   0.640304 0.616081 0.544298 0.000000
C198  C     C_R   0.512243 0.601093 0.552448 0.000000
N50   N     N_R   0.426443 0.575831 0.510820 0.000000
C199  C     C_R   0.507427 0.575269 0.476253 0.000000
C200  C     C_R   0.477918 0.550634 0.429212 0.000000
S25   S     S_3+2 0.462313 0.613186 0.611039 0.000000
O73   O     O_2   0.454894 0.568535 0.648633 0.000000
O74   O     O_2   0.314666 0.617755 0.596579 0.000000
O75   O     O_3   0.535295 0.666657 0.647674 0.000000
H169  H     H_    0.608636 0.483334 0.362420 0.000000
H170  H     H_    0.594709 0.540494 0.325506 0.000000
H171  H     H_    0.446602 0.502304 0.343668 0.000000
H172  H     H_    0.795198 0.562592 0.408850 0.000000
H173  H     H_    0.839405 0.617626 0.486652 0.000000
H174  H     H_    0.377843 0.533899 0.412162 0.000000
H175  H     H_    0.600838 0.654859 0.675848 0.000000
C201  C     C_3   0.856972 0.442430 0.246146 0.000000
C202  C     C_R   0.942344 0.470676 0.292453 0.000000
C203  C     C_R   0.954321 0.447650 0.340618 0.000000
C204  C     C_R   0.033303 0.473262 0.384318 0.000000
C205  C     C_R   0.100235 0.521846 0.378595 0.000000
N51   N     N_R   0.180081 0.554513 0.415101 0.000000
C206  C     C_R   0.213787 0.597379 0.386641 0.000000
N52   N     N_R   0.157940 0.591676 0.334813 0.000000
C207  C     C_R   0.088247 0.543978 0.331252 0.000000
C208  C     C_R   0.009777 0.519677 0.287425 0.000000
S26   S     S_3+2 0.312712 0.656427 0.414058 0.000000
O76   O     O_2   0.414766 0.647781 0.462442 0.000000
O77   O     O_2   0.229520 0.689075 0.436534 0.000000
O78   O     O_3   0.407857 0.697281 0.378713 0.000000
H176  H     H_    0.895450 0.407458 0.240235 0.000000
H177  H     H_    0.859758 0.466661 0.211454 0.000000
H178  H     H_    0.751885 0.432019 0.252195 0.000000
H179  H     H_    0.901788 0.409226 0.344013 0.000000
H180  H     H_    0.044115 0.454516 0.420847 0.000000
H181  H     H_    0.001602 0.538005 0.250202 0.000000
H182  H     H_    0.349446 0.720053 0.361298 0.000000
C209  C     C_3   0.148004 0.121395 0.374178 0.000000
C210  C     C_R   0.252040 0.124821 0.422469 0.000000
C211  C     C_R   0.300423 0.171210 0.447754 0.000000
C212  C     C_R   0.398522 0.175166 0.492221 0.000000
C213  C     C_R   0.447447 0.132167 0.509723 0.000000
N53   N     N_R   0.554668 0.129608 0.547237 0.000000
C214  C     C_R   0.577229 0.081468 0.541042 0.000000
N54   N     N_R   0.478894 0.052326 0.505500 0.000000
C215  C     C_R   0.401911 0.086449 0.484729 0.000000
C216  C     C_R   0.303460 0.082177 0.440552 0.000000
S27   S     S_3+2 0.741369 0.066532 0.558080 0.000000
O79   O     O_2   0.848072 0.110424 0.544979 0.000000
O80   O     O_2   0.759887 0.023329 0.524423 0.000000
O81   O     O_3   0.800183 0.051626 0.620446 0.000000
H183  H     H_    0.056262 0.132638 0.382779 0.000000
H184  H     H_    0.122732 0.081884 0.358795 0.000000
H185  H     H_    0.187081 0.147258 0.344830 0.000000
H186  H     H_    0.261696 0.204477 0.432534 0.000000
H187  H     H_    0.439054 0.211736 0.510396 0.000000
H188  H     H_    0.272636 0.048676 0.417423 0.000000
H189  H     H_    0.761292 0.074487 0.639460 0.000000
C217  C     C_3   0.278363 0.706031 0.955606 0.000000
C218  C     C_R   0.394027 0.732273 0.994389 0.000000
C219  C     C_R   0.423535 0.784956 0.997096 0.000000
C220  C     C_R   0.524481 0.809153 0.035779 0.000000
C221  C     C_R   0.581301 0.780336 0.073802 0.000000
N55   N     N_R   0.665218 0.796294 0.118348 0.000000
C222  C     C_R   0.684005 0.751668 0.142605 0.000000
N56   N     N_R   0.611050 0.709325 0.115389 0.000000
C223  C     C_R   0.551199 0.729024 0.071540 0.000000
C224  C     C_R   0.467881 0.704077 0.029444 0.000000
S28   S     S_3+2 0.795096 0.748987 0.202938 0.000000
O82   O     O_2   0.922878 0.789895 0.209006 0.000000
O83   O     O_2   0.856953 0.701339 0.205780 0.000000
O84   O     O_3   0.732855 0.748716 0.258672 0.000000
H190  H     H_    0.237186 0.733869 0.928411 0.000000
H191  H     H_    0.199076 0.688465 0.976436 0.000000
H192  H     H_    0.309148 0.676378 0.934290 0.000000
H193  H     H_    0.366398 0.807221 0.969743 0.000000
H194  H     H_    0.555010 0.849082 0.037758 0.000000
H195  H     H_    0.457163 0.663840 0.024813 0.000000
H196  H     H_    0.640524 0.755408 0.247092 0.000000
C225  C     C_3   0.947293 0.717499 0.106340 0.000000
C226  C     C_R   0.061367 0.689745 0.118329 0.000000
C227  C     C_R   0.134315 0.682326 0.080984 0.000000
C228  C     C_R   0.252138 0.662935 0.094689 0.000000
C229  C     C_R   0.287529 0.647132 0.144347 0.000000
N57   N     N_R   0.397273 0.628283 0.167405 0.000000
C230  C     C_R   0.364747 0.612601 0.214390 0.000000
N58   N     N_R   0.249816 0.627421 0.222688 0.000000
C231  C     C_R   0.204792 0.648272 0.177893 0.000000
C232  C     C_R   0.097897 0.672593 0.167734 0.000000
S29   S     S_3+2 0.450174 0.570612 0.256784 0.000000
O85   O     O_2   0.521812 0.584798 0.211113 0.000000
O86   O     O_2   0.316009 0.538529 0.229870 0.000000
O87   O     O_3   0.411790 0.623360 0.281124 0.000000
H197  H     H_    0.974443 0.753182 0.129511 0.000000
H198  H     H_    0.856101 0.694655 0.117464 0.000000
H199  H     H_    0.926982 0.726075 0.064431 0.000000
H200  H     H_    0.100476 0.693040 0.041500 0.000000
H201  H     H_    0.308788 0.657176 0.066882 0.000000
H202  H     H_    0.048581 0.680067 0.198146 0.000000
H203  H     H_    0.355205 0.609847 0.306434 0.000000
C233  C     C_3   0.589071 0.678268 0.342861 0.000000
C234  C     C_R   0.679734 0.656876 0.316082 0.000000
C235  C     C_R   0.786474 0.638057 0.345005 0.000000
C236  C     C_R   0.873944 0.619502 0.320370 0.000000
C237  C     C_R   0.852826 0.622216 0.267718 0.000000
N59   N     N_R   0.937000 0.615973 0.236873 0.000000
C238  C     C_R   0.856038 0.613598 0.188157 0.000000
N60   N     N_R   0.729325 0.622932 0.188882 0.000000
C239  C     C_R   0.735844 0.630737 0.239738 0.000000
C240  C     C_R   0.651358 0.651748 0.262775 0.000000
S30   S     S_3+2 0.896548 0.587347 0.132390 0.000000
O88   O     O_2   0.042992 0.579564 0.141717 0.000000
O89   O     O_2   0.890040 0.622312 0.085273 0.000000
O90   O     O_3   0.803562 0.529726 0.109082 0.000000
H204  H     H_    0.536287 0.646010 0.362730 0.000000
H205  H     H_    0.521279 0.697466 0.314237 0.000000
H206  H     H_    0.647313 0.707233 0.371788 0.000000
H207  H     H_    0.803524 0.639511 0.386614 0.000000
H208  H     H_    0.951274 0.601029 0.341557 0.000000
H209  H     H_    0.570403 0.665674 0.239729 0.000000
H210  H     H_    0.857889 0.504614 0.125115 0.000000
C241  C     C_3   0.508067 0.732516 0.828110 0.000000
C242  C     C_R   0.649923 0.755486 0.846165 0.000000
C243  C     C_R   0.691948 0.806726 0.840088 0.000000
C244  C     C_R   0.826720 0.826203 0.844233 0.000000
C245  C     C_R   0.916981 0.793525 0.854476 0.000000
N61   N     N_R   0.039432 0.802239 0.841966 0.000000
C246  C     C_R   0.060007 0.753873 0.834312 0.000000
N62   N     N_R   0.960470 0.716396 0.844985 0.000000
C247  C     C_R   0.872411 0.742637 0.858059 0.000000
C248  C     C_R   0.741040 0.723666 0.858630 0.000000
S31   S     S_3+2 0.172065 0.739517 0.796303 0.000000
O91   O     O_2   0.259488 0.785903 0.776811 0.000000
O92   O     O_2   0.087659 0.715344 0.745523 0.000000
O93   O     O_3   0.271051 0.696073 0.818120 0.000000
H211  H     H_    0.482986 0.702576 0.856019 0.000000
H212  H     H_    0.497565 0.715919 0.789013 0.000000
H213  H     H_    0.445578 0.762142 0.823768 0.000000
H214  H     H_    0.618760 0.830586 0.826718 0.000000
H215  H     H_    0.852435 0.863137 0.828827 0.000000
H216  H     H_    0.707288 0.684373 0.863670 0.000000
H217  H     H_    0.273860 0.677874 0.786201 0.000000
C249  C     C_3   0.781986 0.444883 0.785217 0.000000
C250  C     C_R   0.783150 0.489489 0.750640 0.000000
C251  C     C_R   0.744898 0.482795 0.697481 0.000000
C252  C     C_R   0.748240 0.524351 0.665095 0.000000
C253  C     C_R   0.792519 0.572035 0.686834 0.000000
N63   N     N_R   0.805954 0.617813 0.663954 0.000000
C254  C     C_R   0.835528 0.651041 0.705144 0.000000
N64   N     N_R   0.852258 0.627324 0.752362 0.000000
C255  C     C_R   0.822489 0.578047 0.738922 0.000000
C256  C     C_R   0.819860 0.537759 0.771654 0.000000
S32   S     S_3+2 0.802647 0.714242 0.696427 0.000000
O94   O     O_2   0.732838 0.720180 0.640165 0.000000
O95   O     O_2   0.928223 0.756086 0.700169 0.000000
O96   O     O_3   0.693669 0.733893 0.729929 0.000000
H218  H     H_    0.677987 0.423346 0.780848 0.000000
H219  H     H_    0.818785 0.457918 0.826073 0.000000
H220  H     H_    0.848072 0.420227 0.774604 0.000000
H221  H     H_    0.712406 0.444806 0.681387 0.000000
H222  H     H_    0.716159 0.518191 0.624640 0.000000
H223  H     H_    0.842208 0.543574 0.812431 0.000000
H224  H     H_    0.612077 0.735502 0.703451 0.000000

loop_
_geom_bond_atom_site_label_1
_geom_bond_atom_site_label_2
_geom_bond_distance
_geom_bond_site_symmetry_2
_ccdc_geom_bond_type
Zn1   N2    2.008 .      S
Zn1   N3    1.937 .      S
Zn1   N35   2.044 .      S
Zn1   N55   2.001 .      S
Zn2   N5    2.041 .      S
Zn2   N37   2.031 .      S
Zn2   N40   2.048 .      S
Zn2   N61   2.026 .      S
Zn3   N7    1.964 .      S
Zn3   N48   2.048 .      S
Zn3   N49   1.947 .      S
Zn3   N63   2.007 .      S
Zn4   N10   2.045 .      S
Zn4   N12   2.019 .      S
Zn4   N14   2.032 .      S
Zn4   N54   2.059 1_565  S
Zn5   N6    1.973 1_655  S
Zn5   N8    1.987 .      S
Zn5   N9    2.032 1_655  S
Zn5   N11   2.105 .      S
Zn6   N16   2.043 .      S
Zn6   N52   2.001 .      S
Zn6   N58   1.971 .      S
Zn6   N59   2.035 1_455  S
Zn7   N1    1.966 .      S
Zn7   N4    2.004 .      S
Zn7   N13   2.078 .      S
Zn7   N15   1.989 .      S
Zn8   N17   2.053 .      S
Zn8   N20   2.074 .      S
Zn8   N21   2.053 .      S
Zn8   N24   1.959 .      S
Zn9   N18   2.052 .      S
Zn9   N25   2.024 .      S
Zn9   N27   2.040 .      S
Zn9   N29   2.035 .      S
Zn10  N19   2.003 .      S
Zn10  N22   2.075 .      S
Zn10  N32   2.039 .      S
Zn10  N33   2.068 .      S
Zn11  N31   2.078 1_565  S
Zn11  N36   1.982 1_556  S
Zn11  N38   1.984 .      S
Zn11  N39   2.059 .      S
Zn12  N23   2.033 .      S
Zn12  N42   1.985 .      S
Zn12  N43   2.031 .      S
Zn12  N46   1.985 .      S
Zn13  N26   2.076 .      S
Zn13  N47   2.070 .      S
Zn13  N50   1.994 .      S
Zn13  N51   2.043 .      S
Zn14  N28   2.015 .      S
Zn14  N30   2.106 .      S
Zn14  N34   2.055 .      S
Zn14  N53   2.009 .      S
Zn15  N41   1.993 .      S
Zn15  N56   2.008 .      S
Zn15  N57   2.047 .      S
Zn15  N60   2.029 .      S
Zn16  N44   2.041 1_655  S
Zn16  N45   1.983 .      S
Zn16  N62   2.034 .      S
Zn16  N64   2.003 .      S
C1    C2    1.464 .      S
C1    H1    1.091 .      S
C1    H2    1.108 .      S
C1    H3    1.106 .      S
C3    H4    1.081 .      S
C4    H5    1.074 .      S
C6    S1    1.785 .      S
C8    H6    1.065 .      S
S1    O3    1.704 .      S
O3    H7    0.989 .      S
C9    C10   1.483 .      S
C9    H8    1.109 .      S
C9    H9    1.106 .      S
C9    H10   1.103 .      S
C11   H11   1.079 .      S
C12   H12   1.081 .      S
C14   S2    1.749 1_455  S
C16   H13   1.060 .      S
S2    C14   1.749 1_655  S
S2    O6    1.697 1_655  S
O6    S2    1.697 1_455  S
O6    H14   0.987 .      S
C17   C18   1.479 .      S
C17   H15   1.108 .      S
C17   H16   1.106 .      S
C17   H17   1.109 .      S
C19   H18   1.080 .      S
C20   H19   1.074 .      S
C22   S3    1.773 1_455  S
N6    Zn5   1.973 1_455  S
C24   H20   1.079 .      S
S3    C22   1.773 1_655  S
S3    O9    1.716 .      S
O9    H21   0.990 .      S
C25   C26   1.488 .      S
C25   H22   1.108 .      S
C25   H23   1.107 .      S
C25   H24   1.103 .      S
C27   H25   1.081 .      S
C28   H26   1.068 .      S
C30   S4    1.783 .      S
C32   H27   1.067 .      S
S4    O12   1.716 .      S
O12   H28   0.990 .      S
C33   C34   1.489 1_655  S
C33   H29   1.104 .      S
C33   H30   1.107 1_655  S
C33   H31   1.109 .      S
C34   C33   1.489 1_455  S
C35   H32   1.074 .      S
C36   H33   1.080 .      S
N9    Zn5   2.032 1_455  S
C38   S5    1.815 .      S
C40   H34   1.055 .      S
S5    O15   1.713 .      S
O15   H35   0.990 .      S
H30   C33   1.107 1_455  S
C41   C42   1.481 1_545  S
C41   H36   1.108 .      S
C41   H37   1.096 .      S
C41   H38   1.095 .      S
C42   C41   1.481 1_565  S
C43   H39   1.075 .      S
C44   H40   1.066 .      S
C46   S6    1.742 .      S
C48   H41   1.077 1_565  S
S6    O18   1.706 .      S
O18   H42   0.989 .      S
H41   C48   1.077 1_545  S
C49   C50   1.484 .      S
C49   H43   1.109 .      S
C49   H44   1.108 .      S
C49   H45   1.109 .      S
C51   H46   1.081 .      S
C52   H47   1.070 .      S
C54   S7    1.794 .      S
C56   H48   1.079 .      S
S7    O21   1.712 .      S
O21   H49   0.990 .      S
C57   C58   1.482 1_655  S
C57   H50   1.108 .      S
C57   H51   1.107 .      S
C57   H52   1.099 .      S
C58   C57   1.482 1_455  S
C59   H53   1.081 .      S
C60   H54   1.073 .      S
C62   S8    1.776 .      S
C64   H55   1.060 .      S
S8    O24   1.685 .      S
O24   H56   0.991 .      S
C65   C66   1.476 1_655  S
C65   H57   1.101 .      S
C65   H58   1.105 1_655  S
C65   H59   1.107 .      S
C66   C65   1.476 1_455  S
C67   H60   1.081 .      S
C68   H61   1.081 .      S
C70   S9    1.712 .      S
C72   H62   1.080 .      S
S9    O27   1.718 .      S
O27   H63   0.988 .      S
H58   C65   1.105 1_455  S
C73   C74   1.486 1_554  S
C73   H64   1.105 .      S
C73   H65   1.109 .      S
C73   H66   1.109 .      S
C74   C73   1.486 1_556  S
C75   H67   1.081 1_556  S
C76   H68   1.081 .      S
C78   S10   1.746 1_655  S
C80   H69   1.056 .      S
S10   C78   1.746 1_455  S
S10   O30   1.684 .      S
O30   H70   0.988 .      S
H67   C75   1.081 1_554  S
C81   C82   1.483 .      S
C81   H71   1.109 1_556  S
C81   H72   1.107 .      S
C81   H73   1.107 .      S
C83   H74   1.081 .      S
C84   H75   1.073 .      S
C86   S11   1.792 .      S
C88   H76   1.075 .      S
S11   O33   1.717 .      S
O33   H77   0.989 .      S
H71   C81   1.109 1_554  S
C89   C90   1.486 .      S
C89   H78   1.109 .      S
C89   H79   1.109 .      S
C89   H80   1.109 .      S
C91   H81   1.081 .      S
C92   H82   1.070 1_556  S
C94   S12   1.789 .      S
C96   H83   1.080 .      S
S12   O36   1.709 .      S
O36   H84   0.990 .      S
H82   C92   1.070 1_554  S
C97   C98   1.487 .      S
C97   H85   1.109 .      S
C97   H86   1.109 .      S
C97   H87   1.109 .      S
C99   H88   1.081 .      S
C100  H89   1.081 .      S
C102  S13   1.781 .      S
C104  H90   1.067 .      S
S13   O39   1.717 .      S
O39   H91   0.990 .      S
C105  C106  1.486 .      S
C105  H92   1.109 .      S
C105  H93   1.108 .      S
C105  H94   1.109 .      S
C107  H95   1.081 .      S
C108  H96   1.063 1_655  S
C110  S14   1.765 .      S
C112  H97   1.075 .      S
S14   O42   1.712 .      S
O42   H98   0.990 .      S
H96   C108  1.063 1_455  S
C113  C114  1.463 .      S
C113  H99   1.108 .      S
C113  H100  1.108 .      S
C113  H101  1.102 .      S
C115  H102  1.080 .      S
C116  H103  1.071 .      S
C118  S15   1.801 .      S
C120  H104  1.059 .      S
S15   O45   1.712 .      S
O45   H105  0.990 .      S
C121  C122  1.486 1_455  S
C121  H106  1.109 .      S
C121  H107  1.109 .      S
C121  H108  1.109 .      S
C122  C121  1.486 1_655  S
C123  H109  1.081 1_655  S
C124  H110  1.071 .      S
N31   Zn11  2.078 1_545  S
C126  S16   1.783 .      S
C128  H111  1.067 .      S
S16   O48   1.715 .      S
O48   H112  0.990 .      S
H109  C123  1.081 1_455  S
C129  C130  1.476 .      S
C129  H113  1.094 .      S
C129  H114  1.096 .      S
C129  H115  1.109 .      S
C131  H116  1.081 .      S
C132  H117  1.082 .      S
C134  S17   1.688 .      S
C136  H118  1.081 .      S
S17   O51   1.715 .      S
O51   H119  0.989 .      S
C137  C138  1.482 .      S
C137  H120  1.109 .      S
C137  H121  1.109 .      S
C137  H122  1.105 .      S
C139  H123  1.081 .      S
C140  H124  1.075 .      S
C142  S18   1.793 .      S
N36   Zn11  1.982 1_554  S
C144  H125  1.081 1_564  S
S18   O54   1.712 .      S
O54   H126  0.990 .      S
H125  C144  1.081 1_546  S
C145  C146  1.485 .      S
C145  H127  1.108 .      S
C145  H128  1.105 .      S
C145  H129  1.109 .      S
C147  H130  1.067 .      S
C148  H131  1.062 .      S
C150  S19   1.784 .      S
C152  H132  1.078 .      S
S19   O57   1.715 1_565  S
O57   S19   1.715 1_545  S
O57   H133  0.990 .      S
C153  C154  1.468 .      S
C153  H134  1.096 .      S
C153  H135  1.108 .      S
C153  H136  1.104 1_655  S
C155  H137  1.056 .      S
C156  H138  1.049 .      S
C158  S20   1.784 .      S
C160  H139  1.040 .      S
S20   O60   1.715 .      S
O60   H140  0.990 1_655  S
H136  C153  1.104 1_455  S
H140  O60   0.990 1_455  S
C161  C162  1.476 .      S
C161  H141  1.108 .      S
C161  H142  1.106 1_554  S
C161  H143  1.102 1_455  S
C163  H144  1.081 .      S
C164  H145  1.065 .      S
C166  S21   1.785 .      S
C168  H146  1.082 1_554  S
S21   O63   1.714 1_554  S
O63   S21   1.714 1_556  S
O63   H147  0.990 1_556  S
H142  C161  1.106 1_556  S
H143  C161  1.102 1_655  S
H146  C168  1.082 1_556  S
H147  O63   0.990 1_554  S
C169  C170  1.463 .      S
C169  H148  1.080 .      S
C169  H149  1.094 .      S
C169  H150  1.105 .      S
C171  H151  1.080 .      S
C172  H152  1.073 .      S
C174  S22   1.784 .      S
N44   Zn16  2.041 1_455  S
C176  H153  1.065 .      S
S22   O66   1.716 .      S
O66   H154  0.990 1_455  S
H154  O66   0.990 1_655  S
C177  C178  1.487 .      S
C177  H155  1.109 .      S
C177  H156  1.109 1_556  S
C177  H157  1.107 .      S
C179  H158  1.081 .      S
C180  H159  1.069 .      S
C182  S23   1.778 .      S
C184  H160  1.056 .      S
S23   O69   1.711 .      S
O69   H161  0.989 .      S
H156  C177  1.109 1_554  S
C185  C186  1.487 .      S
C185  H162  1.108 .      S
C185  H163  1.109 .      S
C185  H164  1.109 .      S
C187  H165  1.081 .      S
C188  H166  1.055 1_655  S
C190  S24   1.808 .      S
C192  H167  1.063 .      S
S24   O72   1.706 .      S
O72   H168  0.990 .      S
H166  C188  1.055 1_455  S
C193  C194  1.486 .      S
C193  H169  1.109 .      S
C193  H170  1.108 .      S
C193  H171  1.109 .      S
C195  H172  1.082 .      S
C196  H173  1.074 .      S
C198  S25   1.771 .      S
C200  H174  1.060 .      S
S25   O75   1.712 .      S
O75   H175  0.990 .      S
C201  C202  1.486 .      S
C201  H176  1.109 .      S
C201  H177  1.109 .      S
C201  H178  1.109 .      S
C203  H179  1.081 .      S
C204  H180  1.069 .      S
C206  S26   1.798 .      S
C208  H181  1.080 .      S
S26   O78   1.712 .      S
O78   H182  0.981 .      S
C209  C210  1.487 .      S
C209  H183  1.109 .      S
C209  H184  1.109 .      S
C209  H185  1.109 .      S
C211  H186  1.081 .      S
C212  H187  1.075 .      S
C214  S27   1.782 .      S
N54   Zn4   2.059 1_545  S
C216  H188  1.059 .      S
S27   O81   1.700 .      S
O81   H189  0.985 .      S
C217  C218  1.485 .      S
C217  H190  1.106 .      S
C217  H191  1.099 .      S
C217  H192  1.110 .      S
C219  H193  1.080 .      S
C220  H194  1.057 .      S
C222  S28   1.776 .      S
C224  H195  1.071 .      S
S28   O84   1.710 .      S
O84   H196  0.990 .      S
C225  C226  1.486 1_655  S
C225  H197  1.107 .      S
C225  H198  1.108 .      S
C225  H199  1.108 .      S
C226  C225  1.486 1_455  S
C227  H200  1.079 .      S
C228  H201  1.051 .      S
C230  S29   1.793 .      S
C232  H202  1.069 .      S
S29   O87   1.707 .      S
O87   H203  0.988 .      S
C233  C234  1.474 .      S
C233  H204  1.109 .      S
C233  H205  1.110 .      S
C233  H206  1.104 .      S
C235  H207  1.074 .      S
C236  H208  1.074 .      S
N59   Zn6   2.035 1_655  S
C238  S30   1.793 .      S
C240  H209  1.055 .      S
S30   O90   1.716 .      S
O90   H210  0.990 .      S
C241  C242  1.467 .      S
C241  H211  1.104 .      S
C241  H212  1.108 .      S
C241  H213  1.103 .      S
C243  H214  1.081 .      S
C244  H215  1.067 .      S
C246  S31   1.765 .      S
C248  H216  1.060 .      S
S31   O93   1.706 .      S
O93   H217  0.989 .      S
C249  C250  1.484 .      S
C249  H218  1.105 .      S
C249  H219  1.109 .      S
C249  H220  1.109 .      S
C251  H221  1.080 .      S
C252  H222  1.058 .      S
C254  S32   1.790 .      S
C256  H223  1.061 .      S
S32   O96   1.716 .      S
O96   H224  0.989 .      S
C2    C3    1.380 .      A
C2    C8    1.384 .      A
C3    C4    1.374 .      A
C4    C5    1.364 .      A
C5    N1    1.328 .      A
C5    C7    1.347 .      A
N1    C6    1.377 .      A
C6    N2    1.367 .      A
N2    C7    1.348 .      A
C7    C8    1.362 .      A
C10   C11   1.388 .      A
C10   C16   1.383 .      A
C11   C12   1.381 1_455  A
C12   C11   1.381 1_655  A
C12   C13   1.370 .      A
C13   N3    1.333 .      A
C13   C15   1.352 1_655  A
N3    C14   1.362 1_655  A
C14   N3    1.362 1_455  A
C14   N4    1.362 .      A
N4    C15   1.352 .      A
C15   C13   1.352 1_455  A
C15   C16   1.368 .      A
C18   C19   1.395 .      A
C18   C24   1.372 1_545  A
C19   C20   1.390 1_545  A
C20   C19   1.390 1_565  A
C20   C21   1.365 .      A
C21   N5    1.349 .      A
C21   C23   1.354 .      A
N5    C22   1.371 .      A
C22   N6    1.371 .      A
N6    C23   1.328 .      A
C23   C24   1.362 .      A
C24   C18   1.372 1_565  A
C26   C27   1.385 .      A
C26   C32   1.395 .      A
C27   C28   1.383 .      A
C28   C29   1.360 1_455  A
C29   C28   1.360 1_655  A
C29   N7    1.331 .      A
C29   C31   1.336 1_655  A
N7    C30   1.375 .      A
C30   N8    1.372 .      A
N8    C31   1.339 1_655  A
C31   C29   1.336 1_455  A
C31   N8    1.339 1_455  A
C31   C32   1.355 .      A
C34   C35   1.379 1_455  A
C34   C40   1.366 .      A
C35   C34   1.379 1_655  A
C35   C36   1.392 .      A
C36   C37   1.377 1_655  A
C37   C36   1.377 1_455  A
C37   N9    1.341 .      A
C37   C39   1.350 .      A
N9    C38   1.390 .      A
C38   N10   1.382 .      A
N10   C39   1.338 .      A
C39   C40   1.356 .      A
C42   C43   1.390 .      A
C42   C48   1.370 .      A
C43   C44   1.388 .      A
C44   C45   1.373 .      A
C45   N11   1.357 .      A
C45   C47   1.358 .      A
N11   C46   1.390 .      A
C46   N12   1.364 .      A
N12   C47   1.321 .      A
C47   C48   1.351 .      A
C50   C51   1.390 .      A
C50   C56   1.384 .      A
C51   C52   1.385 1_545  A
C52   C51   1.385 1_565  A
C52   C53   1.370 .      A
C53   N13   1.351 .      A
C53   C55   1.362 .      A
N13   C54   1.392 .      A
C54   N14   1.371 .      A
N14   C55   1.340 .      A
C55   C56   1.371 1_565  A
C56   C55   1.371 1_545  A
C58   C59   1.383 .      A
C58   C64   1.383 .      A
C59   C60   1.382 .      A
C60   C61   1.368 .      A
C61   N15   1.337 .      A
C61   C63   1.359 .      A
N15   C62   1.366 .      A
C62   N16   1.378 .      A
N16   C63   1.354 .      A
C63   C64   1.368 .      A
C66   C67   1.394 .      A
C66   C72   1.383 .      A
C67   C68   1.385 .      A
C68   C69   1.370 .      A
C69   N17   1.343 .      A
C69   C71   1.369 .      A
N17   C70   1.368 .      A
C70   N18   1.358 .      A
N18   C71   1.342 .      A
C71   C72   1.360 .      A
C74   C75   1.385 1_455  A
C74   C80   1.388 .      A
C75   C74   1.385 1_655  A
C75   C76   1.377 .      A
C76   C77   1.371 .      A
C77   N19   1.332 .      A
C77   C79   1.365 1_655  A
N19   C78   1.365 .      A
C78   N20   1.370 1_655  A
N20   C78   1.370 1_455  A
N20   C79   1.364 .      A
C79   C77   1.365 1_455  A
C79   C80   1.376 .      A
C82   C83   1.386 .      A
C82   C88   1.386 .      A
C83   C84   1.380 .      A
C84   C85   1.373 .      A
C85   N21   1.347 .      A
C85   C87   1.367 .      A
N21   C86   1.380 .      A
C86   N22   1.382 .      A
N22   C87   1.348 .      A
C87   C88   1.375 .      A
C90   C91   1.388 .      A
C90   C96   1.381 1_554  A
C91   C92   1.386 1_554  A
C92   C91   1.386 1_556  A
C92   C93   1.382 .      A
C93   N23   1.362 .      A
C93   C95   1.355 .      A
N23   C94   1.380 .      A
C94   N24   1.360 .      A
N24   C95   1.333 .      A
C95   C96   1.373 .      A
C96   C90   1.381 1_556  A
C98   C99   1.389 .      A
C98   C104  1.386 .      A
C99   C100  1.382 .      A
C100  C101  1.375 .      A
C101  N25   1.341 .      A
C101  C103  1.362 .      A
N25   C102  1.370 .      A
C102  N26   1.383 .      A
N26   C103  1.355 .      A
C103  C104  1.377 .      A
C106  C107  1.387 .      A
C106  C112  1.383 .      A
C107  C108  1.384 .      A
C108  C109  1.371 .      A
C109  N27   1.352 1_655  A
C109  C111  1.362 .      A
N27   C109  1.352 1_455  A
N27   C110  1.370 1_455  A
C110  N27   1.370 1_655  A
C110  N28   1.372 .      A
N28   C111  1.340 .      A
C111  C112  1.370 .      A
C114  C115  1.382 .      A
C114  C120  1.371 .      A
C115  C116  1.376 .      A
C116  C117  1.372 .      A
C117  N29   1.335 .      A
C117  C119  1.355 .      A
N29   C118  1.383 .      A
C118  N30   1.392 .      A
N30   C119  1.346 .      A
C119  C120  1.358 .      A
C122  C123  1.388 .      A
C122  C128  1.385 1_554  A
C123  C124  1.383 .      A
C124  C125  1.368 1_554  A
C125  C124  1.368 1_556  A
C125  N31   1.345 .      A
C125  C127  1.362 .      A
N31   C126  1.385 .      A
C126  N32   1.369 .      A
N32   C127  1.348 .      A
C127  C128  1.372 .      A
C128  C122  1.385 1_556  A
C130  C131  1.389 .      A
C130  C136  1.389 1_455  A
C131  C132  1.380 1_455  A
C132  C131  1.380 1_655  A
C132  C133  1.370 .      A
C133  N33   1.342 .      A
C133  C135  1.369 .      A
N33   C134  1.366 .      A
C134  N34   1.356 .      A
N34   C135  1.348 .      A
C135  C136  1.372 .      A
C136  C130  1.389 1_655  A
C138  C139  1.389 1_545  A
C138  C144  1.381 1_445  A
C139  C138  1.389 1_565  A
C139  C140  1.385 1_455  A
C140  C139  1.385 1_655  A
C140  C141  1.375 .      A
C141  N35   1.351 .      A
C141  C143  1.354 .      A
N35   C142  1.383 .      A
C142  N36   1.368 .      A
N36   C143  1.337 .      A
C143  C144  1.371 .      A
C144  C138  1.381 1_665  A
C146  C147  1.381 .      A
C146  C152  1.379 .      A
C147  C148  1.384 .      A
C148  C149  1.361 .      A
C149  N37   1.348 .      A
C149  C151  1.355 .      A
N37   C150  1.374 .      A
C150  N38   1.375 .      A
N38   C151  1.333 .      A
C151  C152  1.371 .      A
C154  C155  1.380 .      A
C154  C160  1.364 1_645  A
C155  C156  1.363 .      A
C156  C157  1.341 1_545  A
C157  C156  1.341 1_565  A
C157  N39   1.328 .      A
C157  C159  1.342 .      A
N39   C158  1.388 .      A
C158  N40   1.380 1_655  A
N40   C158  1.380 1_455  A
N40   C159  1.332 1_455  A
C159  N40   1.332 1_655  A
C159  C160  1.348 1_655  A
C160  C154  1.364 1_465  A
C160  C159  1.348 1_455  A
C162  C163  1.384 .      A
C162  C168  1.385 .      A
C163  C164  1.377 .      A
C164  C165  1.373 .      A
C165  N41   1.347 .      A
C165  C167  1.354 .      A
N41   C166  1.373 .      A
C166  N42   1.370 1_554  A
N42   C166  1.370 1_556  A
N42   C167  1.341 1_556  A
C167  N42   1.341 1_554  A
C167  C168  1.369 .      A
C170  C171  1.383 .      A
C170  C176  1.369 .      A
C171  C172  1.386 .      A
C172  C173  1.360 .      A
C173  N43   1.335 .      A
C173  C175  1.354 .      A
N43   C174  1.380 .      A
C174  N44   1.380 .      A
N44   C175  1.341 .      A
C175  C176  1.361 .      A
C178  C179  1.385 .      A
C178  C184  1.375 .      A
C179  C180  1.384 .      A
C180  C181  1.376 .      A
C181  N45   1.345 .      A
C181  C183  1.350 .      A
N45   C182  1.363 .      A
C182  N46   1.368 .      A
N46   C183  1.340 .      A
C183  C184  1.360 .      A
C186  C187  1.378 .      A
C186  C192  1.381 .      A
C187  C188  1.378 .      A
C188  C189  1.374 .      A
C189  N47   1.350 1_655  A
C189  C191  1.356 .      A
N47   C189  1.350 1_455  A
N47   C190  1.389 .      A
C190  N48   1.387 1_455  A
N48   C190  1.387 1_655  A
N48   C191  1.350 .      A
C191  C192  1.383 .      A
C194  C195  1.384 .      A
C194  C200  1.382 .      A
C195  C196  1.383 .      A
C196  C197  1.375 .      A
C197  N49   1.342 .      A
C197  C199  1.351 .      A
N49   C198  1.364 .      A
C198  N50   1.369 .      A
N50   C199  1.351 .      A
C199  C200  1.370 .      A
C202  C203  1.389 .      A
C202  C208  1.383 1_655  A
C203  C204  1.386 1_655  A
C204  C203  1.386 1_455  A
C204  C205  1.375 .      A
C205  N51   1.353 .      A
C205  C207  1.360 .      A
N51   C206  1.383 .      A
C206  N52   1.372 .      A
N52   C207  1.340 .      A
C207  C208  1.372 .      A
C208  C202  1.383 1_455  A
C210  C211  1.384 .      A
C210  C216  1.384 .      A
C211  C212  1.381 .      A
C212  C213  1.377 .      A
C213  N53   1.342 .      A
C213  C215  1.363 .      A
N53   C214  1.372 .      A
C214  N54   1.372 .      A
N54   C215  1.358 .      A
C215  C216  1.377 .      A
C218  C219  1.389 .      A
C218  C224  1.382 1_556  A
C219  C220  1.381 1_556  A
C220  C219  1.381 1_554  A
C220  C221  1.358 .      A
C221  N55   1.340 .      A
C221  C223  1.353 .      A
N55   C222  1.370 .      A
C222  N56   1.370 .      A
N56   C223  1.343 .      A
C223  C224  1.364 .      A
C224  C218  1.382 1_554  A
C226  C227  1.386 .      A
C226  C232  1.374 .      A
C227  C228  1.390 .      A
C228  C229  1.365 .      A
C229  N57   1.355 .      A
C229  C231  1.346 .      A
N57   C230  1.378 .      A
C230  N58   1.375 .      A
N58   C231  1.330 .      A
C231  C232  1.363 .      A
C234  C235  1.381 .      A
C234  C240  1.380 .      A
C235  C236  1.375 .      A
C236  C237  1.361 .      A
C237  N59   1.332 .      A
C237  C239  1.341 .      A
N59   C238  1.382 .      A
C238  N60   1.379 .      A
N60   C239  1.345 .      A
C239  C240  1.359 .      A
C242  C243  1.376 .      A
C242  C248  1.373 .      A
C243  C244  1.375 .      A
C244  C245  1.379 .      A
C245  N61   1.344 1_655  A
C245  C247  1.363 .      A
N61   C245  1.344 1_455  A
N61   C246  1.378 .      A
C246  N62   1.362 1_455  A
N62   C246  1.362 1_655  A
N62   C247  1.345 .      A
C247  C248  1.358 .      A
C250  C251  1.383 .      A
C250  C256  1.376 .      A
C251  C252  1.385 .      A
C252  C253  1.373 .      A
C253  N63   1.349 .      A
C253  C255  1.351 .      A
N63   C254  1.369 .      A
C254  N64   1.377 .      A
N64   C255  1.339 .      A
C255  C256  1.364 .      A
S1    O1    1.536 .      D
S1    O2    1.536 .      D
S2    O4    1.534 .      D
S2    O5    1.536 1_655  D
O5    S2    1.536 1_455  D
S3    O7    1.528 .      D
S3    O8    1.537 .      D
S4    O10   1.535 .      D
S4    O11   1.536 .      D
S5    O13   1.530 .      D
S5    O14   1.519 .      D
S6    O16   1.534 .      D
S6    O17   1.531 .      D
S7    O19   1.534 .      D
S7    O20   1.536 .      D
S8    O22   1.525 .      D
S8    O23   1.533 .      D
S9    O25   1.523 .      D
S9    O26   1.528 .      D
S10   O28   1.526 1_455  D
S10   O29   1.535 .      D
O28   S10   1.526 1_655  D
S11   O31   1.533 .      D
S11   O32   1.535 .      D
S12   O34   1.537 .      D
S12   O35   1.531 .      D
S13   O37   1.524 .      D
S13   O38   1.535 .      D
S14   O40   1.529 1_655  D
S14   O41   1.532 .      D
O40   S14   1.529 1_455  D
S15   O43   1.537 .      D
S15   O44   1.528 .      D
S16   O46   1.533 .      D
S16   O47   1.530 .      D
S17   O49   1.515 .      D
S17   O50   1.529 .      D
S18   O52   1.531 .      D
S18   O53   1.534 1_554  D
O53   S18   1.534 1_556  D
S19   O55   1.534 1_565  D
S19   O56   1.535 .      D
O55   S19   1.534 1_545  D
S20   O58   1.536 1_556  D
S20   O59   1.536 1_655  D
O58   S20   1.536 1_554  D
O59   S20   1.536 1_455  D
S21   O61   1.535 .      D
S21   O62   1.536 1_554  D
O62   S21   1.536 1_556  D
S22   O64   1.528 .      D
S22   O65   1.532 .      D
S23   O67   1.532 .      D
S23   O68   1.530 .      D
S24   O70   1.526 .      D
S24   O71   1.528 .      D
S25   O73   1.534 .      D
S25   O74   1.523 .      D
S26   O76   1.528 .      D
S26   O77   1.534 .      D
S27   O79   1.536 .      D
S27   O80   1.535 .      D
S28   O82   1.534 .      D
S28   O83   1.525 .      D
S29   O85   1.533 .      D
S29   O86   1.536 .      D
S30   O88   1.535 1_655  D
S30   O89   1.534 .      D
O88   S30   1.535 1_455  D
S31   O91   1.534 .      D
S31   O92   1.529 .      D
S32   O94   1.533 .      D
S32   O95   1.536 .      D
