data_str_m1_o12271_CGS
_audit_creation_date              2015-10-01T06:27:37-0700
_symmetry_space_group_name_H-M    P1
_symmetry_Int_Tables_number       1
_space_group_crystal_system       triclinic
loop_
_symmetry_equiv_pos_as_xyz
  x,y,z
_cell_length_a                    18.6521009
_cell_length_b                    31.7406481
_cell_length_c                    34.7117084
_cell_angle_alpha                 91.9388960
_cell_angle_beta                  88.5089365
_cell_angle_gamma                 93.7240002
_cell_volume                      20489.3837562

loop_
_atom_site_label
_atom_site_type_symbol
_atom_site_description
_atom_site_fract_x
_atom_site_fract_y
_atom_site_fract_z
_atom_type_partial_charge
Zn1   Zn    Zn3+2 0.413965 0.955793 0.832875 0.000000
Zn2   Zn    Zn3+2 0.236904 0.674588 0.330266 0.000000
Zn3   Zn    Zn3+2 0.241302 0.471915 0.328302 0.000000
Zn4   Zn    Zn3+2 0.393976 0.164595 0.806609 0.000000
Zn5   Zn    Zn3+2 0.173641 0.959038 0.969290 0.000000
Zn6   Zn    Zn3+2 0.955325 0.453510 0.996048 0.000000
Zn7   Zn    Zn3+2 0.909388 0.169936 0.618158 0.000000
Zn8   Zn    Zn3+2 0.730529 0.459917 0.141204 0.000000
Zn9   Zn    Zn3+2 0.744774 0.677058 0.130186 0.000000
Zn10  Zn    Zn3+2 0.917187 0.954701 0.628214 0.000000
Zn11  Zn    Zn3+2 0.475881 0.324123 0.601840 0.000000
Zn12  Zn    Zn3+2 0.984317 0.809747 0.854162 0.000000
Zn13  Zn    Zn3+2 0.147356 0.315193 0.096087 0.000000
Zn14  Zn    Zn3+2 0.642976 0.315876 0.355416 0.000000
Zn15  Zn    Zn3+2 0.664535 0.818186 0.357880 0.000000
Zn16  Zn    Zn3+2 0.163450 0.816039 0.104071 0.000000
Zn17  Zn    Zn3+2 0.977532 0.320061 0.846259 0.000000
Zn18  Zn    Zn3+2 0.457269 0.760716 0.201624 0.000000
Zn19  Zn    Zn3+2 0.188424 0.868544 0.705775 0.000000
Zn20  Zn    Zn3+2 0.947709 0.374562 0.257194 0.000000
Zn21  Zn    Zn3+2 0.686036 0.273326 0.739070 0.000000
Zn22  Zn    Zn3+2 0.700695 0.861341 0.761938 0.000000
Zn23  Zn    Zn3+2 0.966052 0.769284 0.261075 0.000000
Zn24  Zn    Zn3+2 0.666508 0.960633 0.500073 0.000000
Zn25  Zn    Zn3+2 0.439256 0.355057 0.211043 0.000000
Zn26  Zn    Zn3+2 0.152224 0.172182 0.951601 0.000000
Zn27  Zn    Zn3+2 0.960762 0.674073 0.990064 0.000000
Zn28  Zn    Zn3+2 0.470411 0.681122 0.464676 0.000000
Zn29  Zn    Zn3+2 0.470874 0.463582 0.467565 0.000000
Zn30  Zn    Zn3+2 0.180834 0.278191 0.699575 0.000000
Zn31  Zn    Zn3+2 0.665161 0.179036 0.496075 0.000000
Zn32  Zn    Zn3+2 0.489802 0.821362 0.609160 0.000000
Br1   Br    Br    0.573403 0.091034 0.858593 0.000000
C1    C     C_R   0.485253 0.087942 0.886553 0.000000
C2    C     C_R   0.484326 0.100095 0.924898 0.000000
C3    C     C_R   0.419521 0.104555 0.943784 0.000000
C4    C     C_R   0.356296 0.093380 0.925042 0.000000
C5    C     C_R   0.357861 0.077575 0.887956 0.000000
C6    C     C_R   0.421895 0.077179 0.868064 0.000000
C7    C     C_R   0.422816 0.064414 0.827766 0.000000
N1    N     N_R   0.416656 0.093023 0.797957 0.000000
C8    C     C_R   0.424168 0.064946 0.766728 0.000000
C9    C     C_R   0.423875 0.069723 0.727264 0.000000
C10   C     C_R   0.432782 0.036033 0.701747 0.000000
C11   C     C_R   0.443500 0.996760 0.714822 0.000000
C12   C     C_R   0.442062 0.990774 0.753538 0.000000
C13   C     C_R   0.433105 0.024712 0.778261 0.000000
N2    N     N_R   0.430067 0.022092 0.816241 0.000000
H1    H     H_    0.533996 0.109060 0.939279 0.000000
H2    H     H_    0.418900 0.117556 0.972914 0.000000
H3    H     H_    0.304672 0.098010 0.938466 0.000000
H4    H     H_    0.308450 0.067865 0.873875 0.000000
H5    H     H_    0.424259 0.098977 0.714241 0.000000
H6    H     H_    0.435011 0.041196 0.671103 0.000000
H7    H     H_    0.454401 0.971024 0.694969 0.000000
H8    H     H_    0.452498 0.960356 0.764224 0.000000
Br2   Br    Br    0.216441 0.577013 0.447596 0.000000
C14   C     C_R   0.138037 0.569495 0.414781 0.000000
C15   C     C_R   0.073371 0.563727 0.434720 0.000000
C16   C     C_R   0.012051 0.550193 0.416119 0.000000
C17   C     C_R   0.016068 0.541749 0.377291 0.000000
C18   C     C_R   0.078947 0.550150 0.356695 0.000000
C19   C     C_R   0.141359 0.564562 0.374484 0.000000
C20   C     C_R   0.203547 0.572960 0.347506 0.000000
N3    N     N_R   0.202130 0.610080 0.326799 0.000000
C21   C     C_R   0.200743 0.595644 0.290347 0.000000
C22   C     C_R   0.196545 0.619190 0.258206 0.000000
C23   C     C_R   0.214176 0.600335 0.223234 0.000000
C24   C     C_R   0.232209 0.559229 0.221001 0.000000
C25   C     C_R   0.241596 0.537727 0.254311 0.000000
C26   C     C_R   0.218740 0.555194 0.288223 0.000000
N4    N     N_R   0.220136 0.538531 0.323319 0.000000
H9    H     H_    0.071897 0.567861 0.465761 0.000000
H10   H     H_    0.962055 0.544328 0.432073 0.000000
H11   H     H_    0.969415 0.529185 0.362333 0.000000
H12   H     H_    0.079090 0.544304 0.325954 0.000000
H13   H     H_    0.185770 0.652209 0.260391 0.000000
H14   H     H_    0.220786 0.618132 0.197628 0.000000
H15   H     H_    0.241876 0.545500 0.192787 0.000000
H16   H     H_    0.263083 0.507357 0.254550 0.000000
Br3   Br    Br    0.264421 0.335598 0.754535 0.000000
C27   C     C_R   0.313641 0.309879 0.791572 0.000000
C28   C     C_R   0.339110 0.336862 0.820666 0.000000
C29   C     C_R   0.341243 0.322554 0.857175 0.000000
C30   C     C_R   0.314721 0.282086 0.863693 0.000000
C31   C     C_R   0.297747 0.254570 0.833597 0.000000
C32   C     C_R   0.303105 0.266943 0.796516 0.000000
C33   C     C_R   0.288494 0.233954 0.765716 0.000000
N5    N     N_R   0.248770 0.239069 0.732124 0.000000
C34   C     C_R   0.265204 0.204601 0.711608 0.000000
C35   C     C_R   0.260646 0.198867 0.672621 0.000000
C36   C     C_R   0.294482 0.165485 0.655159 0.000000
C37   C     C_R   0.319455 0.134689 0.677587 0.000000
C38   C     C_R   0.317742 0.140311 0.717306 0.000000
C39   C     C_R   0.301101 0.177994 0.732615 0.000000
N6    N     N_R   0.319771 0.194858 0.767239 0.000000
H17   H     H_    0.347667 0.370310 0.815905 0.000000
H18   H     H_    0.356474 0.343937 0.880872 0.000000
H19   H     H_    0.306022 0.271705 0.892292 0.000000
H20   H     H_    0.270429 0.224999 0.838990 0.000000
H21   H     H_    0.235544 0.221090 0.656039 0.000000
H22   H     H_    0.294282 0.160904 0.624340 0.000000
H23   H     H_    0.336202 0.105595 0.664175 0.000000
H24   H     H_    0.325543 0.115907 0.736659 0.000000
Br4   Br    Br    0.366941 0.904208 0.988168 0.000000
C40   C     C_R   0.343037 0.873234 0.941996 0.000000
C41   C     C_R   0.367735 0.833256 0.940838 0.000000
C42   C     C_R   0.366434 0.809039 0.907572 0.000000
C43   C     C_R   0.341255 0.825417 0.875108 0.000000
C44   C     C_R   0.312590 0.864481 0.876281 0.000000
C45   C     C_R   0.310585 0.888812 0.909702 0.000000
C46   C     C_R   0.302101 0.934326 0.905347 0.000000
N7    N     N_R   0.361921 0.954304 0.887564 0.000000
C47   C     C_R   0.383939 0.982587 0.914486 0.000000
C48   C     C_R   0.454652 0.995400 0.920158 0.000000
C49   C     C_R   0.473357 0.011470 0.956249 0.000000
C50   C     C_R   0.420463 0.017271 0.984339 0.000000
C51   C     C_R   0.349386 0.005153 0.976906 0.000000
C52   C     C_R   0.332576 0.985804 0.942812 0.000000
N8    N     N_R   0.276012 0.957628 0.936956 0.000000
H25   H     H_    0.391686 0.821684 0.966124 0.000000
H26   H     H_    0.388943 0.778473 0.906435 0.000000
H27   H     H_    0.348223 0.808153 0.848514 0.000000
H28   H     H_    0.296552 0.877892 0.850247 0.000000
H29   H     H_    0.495343 0.989242 0.898369 0.000000
H30   H     H_    0.529013 0.020099 0.962386 0.000000
H31   H     H_    0.434942 0.030641 0.012329 0.000000
H32   H     H_    0.308006 0.007700 0.997764 0.000000
Br5   Br    Br    0.951446 0.393046 0.112961 0.000000
C53   C     C_R   0.964433 0.448478 0.095621 0.000000
C54   C     C_R   0.030393 0.468959 0.093144 0.000000
C55   C     C_R   0.037854 0.511937 0.094211 0.000000
C56   C     C_R   0.977299 0.533390 0.096111 0.000000
C57   C     C_R   0.912390 0.512296 0.090003 0.000000
C58   C     C_R   0.906313 0.469942 0.090217 0.000000
C59   C     C_R   0.848282 0.449511 0.070285 0.000000
N9    N     N_R   0.854256 0.444084 0.030506 0.000000
C60   C     C_R   0.783733 0.436122 0.022031 0.000000
C61   C     C_R   0.751328 0.437185 0.987273 0.000000
C62   C     C_R   0.676888 0.434454 0.986154 0.000000
C63   C     C_R   0.635727 0.426611 0.019001 0.000000
C64   C     C_R   0.668600 0.425954 0.053884 0.000000
C65   C     C_R   0.741230 0.434386 0.054836 0.000000
N10   N     N_R   0.779464 0.444842 0.086177 0.000000
H33   H     H_    0.075983 0.450910 0.093710 0.000000
H34   H     H_    0.089988 0.528222 0.097447 0.000000
H35   H     H_    0.980338 0.566052 0.103171 0.000000
H36   H     H_    0.863652 0.527747 0.088663 0.000000
H37   H     H_    0.781812 0.442083 0.961625 0.000000
H38   H     H_    0.650222 0.438125 0.959369 0.000000
H39   H     H_    0.577909 0.422923 0.017538 0.000000
H40   H     H_    0.638048 0.419578 0.079679 0.000000
Br6   Br    Br    0.145470 0.166567 0.595556 0.000000
C66   C     C_R   0.116086 0.149144 0.645651 0.000000
C67   C     C_R   0.153478 0.119074 0.661082 0.000000
C68   C     C_R   0.161457 0.120727 0.700255 0.000000
C69   C     C_R   0.119630 0.143581 0.724295 0.000000
C70   C     C_R   0.074566 0.169217 0.708606 0.000000
C71   C     C_R   0.076119 0.173612 0.670131 0.000000
C72   C     C_R   0.052973 0.211879 0.657811 0.000000
N11   N     N_R   0.090897 0.249879 0.667031 0.000000
C73   C     C_R   0.060279 0.275821 0.643297 0.000000
C74   C     C_R   0.085746 0.316350 0.635894 0.000000
C75   C     C_R   0.069196 0.333103 0.601355 0.000000
C76   C     C_R   0.029547 0.308607 0.574818 0.000000
C77   C     C_R   0.000237 0.268889 0.584085 0.000000
C78   C     C_R   0.012686 0.253594 0.619465 0.000000
N12   N     N_R   0.002096 0.212917 0.629762 0.000000
H41   H     H_    0.187943 0.100706 0.642581 0.000000
H42   H     H_    0.200546 0.103179 0.713245 0.000000
H43   H     H_    0.124783 0.142261 0.754816 0.000000
H44   H     H_    0.043210 0.189486 0.725674 0.000000
H45   H     H_    0.124634 0.332620 0.654123 0.000000
H46   H     H_    0.091361 0.364156 0.593914 0.000000
H47   H     H_    0.019870 0.321008 0.546928 0.000000
H48   H     H_    0.968495 0.250668 0.563666 0.000000
Br7   Br    Br    0.669799 0.205308 0.590287 0.000000
C79   C     C_R   0.674865 0.148771 0.574756 0.000000
C80   C     C_R   0.622910 0.117922 0.583816 0.000000
C81   C     C_R   0.637863 0.089977 0.611085 0.000000
C82   C     C_R   0.702199 0.095915 0.629269 0.000000
C83   C     C_R   0.757221 0.120609 0.612951 0.000000
C84   C     C_R   0.742633 0.142184 0.581071 0.000000
C85   C     C_R   0.791643 0.167286 0.557326 0.000000
N13   N     N_R   0.770796 0.175505 0.520526 0.000000
C86   C     C_R   0.835072 0.181554 0.502047 0.000000
C87   C     C_R   0.847175 0.186142 0.463137 0.000000
C88   C     C_R   0.917438 0.193037 0.449965 0.000000
C89   C     C_R   0.973492 0.195113 0.475596 0.000000
C90   C     C_R   0.960499 0.189337 0.514583 0.000000
C91   C     C_R   0.890335 0.181871 0.527502 0.000000
N14   N     N_R   0.864344 0.173489 0.563616 0.000000
H49   H     H_    0.567800 0.119912 0.576386 0.000000
H50   H     H_    0.594822 0.069571 0.622857 0.000000
H51   H     H_    0.708018 0.082247 0.656513 0.000000
H52   H     H_    0.809049 0.123556 0.625360 0.000000
H53   H     H_    0.803333 0.184256 0.443323 0.000000
H54   H     H_    0.928726 0.197060 0.419570 0.000000
H55   H     H_    0.028053 0.201164 0.464973 0.000000
H56   H     H_    0.005093 0.192188 0.533730 0.000000
Br8   Br    Br    0.966579 0.084573 0.706657 0.000000
C92   C     C_R   0.866297 0.072113 0.697808 0.000000
C93   C     C_R   0.819219 0.066215 0.727993 0.000000
C94   C     C_R   0.763373 0.037270 0.723878 0.000000
C95   C     C_R   0.751021 0.015700 0.689673 0.000000
C96   C     C_R   0.794403 0.025048 0.658297 0.000000
C97   C     C_R   0.848657 0.056007 0.662505 0.000000
C98   C     C_R   0.904328 0.059780 0.634541 0.000000
N15   N     N_R   0.931896 0.098928 0.620246 0.000000
C99   C     C_R   0.987584 0.084602 0.598899 0.000000
C100  C     C_R   0.023410 0.104801 0.569620 0.000000
C101  C     C_R   0.077227 0.084647 0.549505 0.000000
C102  C     C_R   0.096168 0.045334 0.560323 0.000000
C103  C     C_R   0.055408 0.023686 0.587926 0.000000
C104  C     C_R   0.996910 0.042471 0.603984 0.000000
N16   N     N_R   0.942193 0.024275 0.624858 0.000000
H57   H     H_    0.833593 0.075596 0.757019 0.000000
H58   H     H_    0.737934 0.027048 0.749649 0.000000
H59   H     H_    0.712713 0.988883 0.689069 0.000000
H60   H     H_    0.787894 0.007311 0.631346 0.000000
H61   H     H_    0.009914 0.135719 0.563028 0.000000
H62   H     H_    0.106858 0.100503 0.526420 0.000000
H63   H     H_    0.140340 0.030600 0.545663 0.000000
H64   H     H_    0.066884 0.991941 0.594549 0.000000
Br9   Br    Br    0.546710 0.575898 0.133651 0.000000
C105  C     C_R   0.597983 0.563398 0.087388 0.000000
C106  C     C_R   0.562766 0.556037 0.053009 0.000000
C107  C     C_R   0.599763 0.544309 0.020043 0.000000
C108  C     C_R   0.671514 0.537687 0.021941 0.000000
C109  C     C_R   0.705661 0.543340 0.056587 0.000000
C110  C     C_R   0.670085 0.558370 0.089076 0.000000
C111  C     C_R   0.708675 0.565130 0.125260 0.000000
N17   N     N_R   0.744204 0.605015 0.134215 0.000000
C112  C     C_R   0.803169 0.591893 0.150506 0.000000
C113  C     C_R   0.866283 0.615245 0.155109 0.000000
C114  C     C_R   0.923562 0.596532 0.169087 0.000000
C115  C     C_R   0.918843 0.554683 0.177727 0.000000
C116  C     C_R   0.857970 0.530283 0.168261 0.000000
C117  C     C_R   0.799258 0.549459 0.155974 0.000000
N18   N     N_R   0.739082 0.530287 0.141273 0.000000
H65   H     H_    0.505731 0.559882 0.051803 0.000000
H66   H     H_    0.572147 0.539176 0.993128 0.000000
H67   H     H_    0.700726 0.527222 0.996496 0.000000
H68   H     H_    0.760434 0.535354 0.058096 0.000000
H69   H     H_    0.872171 0.647322 0.147051 0.000000
H70   H     H_    0.974284 0.613402 0.168758 0.000000
H71   H     H_    0.966554 0.540382 0.186229 0.000000
H72   H     H_    0.860984 0.496925 0.165515 0.000000
Br10  Br    Br    0.413301 0.249344 0.663266 0.000000
C118  C     C_R   0.499066 0.229697 0.645432 0.000000
C119  C     C_R   0.491726 0.187719 0.634950 0.000000
C120  C     C_R   0.542472 0.161618 0.644206 0.000000
C121  C     C_R   0.600811 0.177538 0.664517 0.000000
C122  C     C_R   0.605677 0.219293 0.675429 0.000000
C123  C     C_R   0.561021 0.247012 0.661714 0.000000
C124  C     C_R   0.573646 0.292538 0.671175 0.000000
N19   N     N_R   0.541163 0.323551 0.651364 0.000000
C125  C     C_R   0.561032 0.358723 0.672126 0.000000
C126  C     C_R   0.537257 0.398525 0.668375 0.000000
C127  C     C_R   0.564515 0.430770 0.692600 0.000000
C128  C     C_R   0.612202 0.422309 0.720837 0.000000
C129  C     C_R   0.632140 0.381567 0.725221 0.000000
C130  C     C_R   0.606219 0.349992 0.700785 0.000000
N20   N     N_R   0.618073 0.308177 0.701053 0.000000
H73   H     H_    0.440067 0.173481 0.626997 0.000000
H74   H     H_    0.529717 0.128323 0.640407 0.000000
H75   H     H_    0.640540 0.157453 0.674208 0.000000
H76   H     H_    0.637679 0.228838 0.698617 0.000000
H77   H     H_    0.498133 0.404488 0.647178 0.000000
H78   H     H_    0.547783 0.462488 0.689886 0.000000
H79   H     H_    0.633223 0.447566 0.739846 0.000000
H80   H     H_    0.668601 0.374499 0.746405 0.000000
Br11  Br    Br    0.442199 0.321089 0.731179 0.000000
C131  C     C_R   0.397916 0.367887 0.711380 0.000000
C132  C     C_R   0.407942 0.405236 0.732788 0.000000
C133  C     C_R   0.367394 0.438852 0.726630 0.000000
C134  C     C_R   0.315355 0.434988 0.699328 0.000000
C135  C     C_R   0.306013 0.398207 0.677231 0.000000
C136  C     C_R   0.346282 0.364155 0.682728 0.000000
C137  C     C_R   0.329770 0.326264 0.657722 0.000000
N21   N     N_R   0.369653 0.321779 0.623371 0.000000
C138  C     C_R   0.321587 0.304606 0.599096 0.000000
C139  C     C_R   0.334604 0.295397 0.560653 0.000000
C140  C     C_R   0.283094 0.270850 0.540848 0.000000
C141  C     C_R   0.220543 0.257550 0.559571 0.000000
C142  C     C_R   0.209654 0.267513 0.598159 0.000000
C143  C     C_R   0.258977 0.293238 0.617995 0.000000
N22   N     N_R   0.260427 0.305806 0.656287 0.000000
H81   H     H_    0.445978 0.407370 0.755850 0.000000
H82   H     H_    0.374803 0.467620 0.744033 0.000000
H83   H     H_    0.281774 0.460874 0.695194 0.000000
H84   H     H_    0.265050 0.395355 0.655827 0.000000
H85   H     H_    0.385120 0.305223 0.546776 0.000000
H86   H     H_    0.292208 0.260009 0.511538 0.000000
H87   H     H_    0.181209 0.237421 0.544230 0.000000
H88   H     H_    0.166391 0.251521 0.611943 0.000000
Br12  Br    Br    0.579464 0.308645 0.478148 0.000000
C144  C     C_R   0.637295 0.324707 0.518780 0.000000
C145  C     C_R   0.689365 0.357263 0.516441 0.000000
C146  C     C_R   0.731029 0.367122 0.547828 0.000000
C147  C     C_R   0.716520 0.345758 0.581357 0.000000
C148  C     C_R   0.667106 0.311601 0.582467 0.000000
C149  C     C_R   0.629165 0.299934 0.550032 0.000000
C150  C     C_R   0.575922 0.263959 0.548301 0.000000
N23   N     N_R   0.508586 0.269406 0.565482 0.000000
C151  C     C_R   0.473755 0.231830 0.555756 0.000000
C152  C     C_R   0.406005 0.215658 0.566741 0.000000
C153  C     C_R   0.382298 0.175576 0.554038 0.000000
C154  C     C_R   0.429866 0.149569 0.536153 0.000000
C155  C     C_R   0.499124 0.165194 0.528725 0.000000
C156  C     C_R   0.518414 0.206051 0.535567 0.000000
N24   N     N_R   0.585157 0.223571 0.529562 0.000000
H89   H     H_    0.696801 0.375015 0.490522 0.000000
H90   H     H_    0.770431 0.393634 0.547288 0.000000
H91   H     H_    0.739790 0.357845 0.607679 0.000000
H92   H     H_    0.658552 0.294699 0.608633 0.000000
H93   H     H_    0.373182 0.230998 0.587636 0.000000
H94   H     H_    0.328696 0.163087 0.561368 0.000000
H95   H     H_    0.414049 0.116674 0.530315 0.000000
H96   H     H_    0.541432 0.146349 0.520969 0.000000
Br13  Br    Br    0.259031 0.368300 0.528630 0.000000
C157  C     C_R   0.299964 0.408866 0.564504 0.000000
C158  C     C_R   0.250166 0.431473 0.585163 0.000000
C159  C     C_R   0.271193 0.464227 0.609994 0.000000
C160  C     C_R   0.342947 0.473253 0.616019 0.000000
C161  C     C_R   0.393117 0.450149 0.596647 0.000000
C162  C     C_R   0.373524 0.418434 0.569701 0.000000
C163  C     C_R   0.434339 0.402064 0.546358 0.000000
N25   N     N_R   0.482565 0.380186 0.567450 0.000000
C164  C     C_R   0.543480 0.405014 0.563521 0.000000
C165  C     C_R   0.601165 0.406972 0.586944 0.000000
C166  C     C_R   0.650340 0.441395 0.585618 0.000000
C167  C     C_R   0.640705 0.473486 0.560829 0.000000
C168  C     C_R   0.581958 0.471009 0.537363 0.000000
C169  C     C_R   0.535431 0.435955 0.538305 0.000000
N26   N     N_R   0.469917 0.432734 0.523119 0.000000
H97   H     H_    0.193514 0.423935 0.581009 0.000000
H98   H     H_    0.231480 0.482173 0.625275 0.000000
H99   H     H_    0.360136 0.498677 0.635859 0.000000
H100  H     H_    0.449099 0.458843 0.601555 0.000000
H101  H     H_    0.607314 0.382735 0.606687 0.000000
H102  H     H_    0.695560 0.443629 0.604603 0.000000
H103  H     H_    0.677531 0.501130 0.561088 0.000000
H104  H     H_    0.568720 0.497670 0.521698 0.000000
Br14  Br    Br    0.934297 0.880002 0.785175 0.000000
C170  C     C_R   0.021932 0.908227 0.800350 0.000000
C171  C     C_R   0.022311 0.949457 0.813220 0.000000
C172  C     C_R   0.078562 0.966442 0.834029 0.000000
C173  C     C_R   0.134689 0.942267 0.841000 0.000000
C174  C     C_R   0.140131 0.904532 0.821278 0.000000
C175  C     C_R   0.084180 0.887584 0.799138 0.000000
C176  C     C_R   0.082622 0.844789 0.781761 0.000000
N27   N     N_R   0.044854 0.811832 0.800319 0.000000
C177  C     C_R   0.053196 0.779244 0.775096 0.000000
C178  C     C_R   0.027463 0.737853 0.778988 0.000000
C179  C     C_R   0.040149 0.709197 0.749035 0.000000
C180  C     C_R   0.071430 0.723102 0.714668 0.000000
C181  C     C_R   0.093939 0.765213 0.710690 0.000000
C182  C     C_R   0.090262 0.792296 0.742425 0.000000
N28   N     N_R   0.114392 0.833593 0.745907 0.000000
H105  H     H_    0.975211 0.966722 0.811505 0.000000
H106  H     H_    0.077958 0.998445 0.845588 0.000000
H107  H     H_    0.177262 0.954350 0.859597 0.000000
H108  H     H_    0.188335 0.889147 0.824768 0.000000
H109  H     H_    0.996313 0.728133 0.804163 0.000000
H110  H     H_    0.021157 0.676463 0.751443 0.000000
H111  H     H_    0.077434 0.700984 0.690610 0.000000
H112  H     H_    0.117327 0.775536 0.683860 0.000000
Br15  Br    Br    0.907745 0.765931 0.731438 0.000000
C183  C     C_R   0.838238 0.739002 0.762464 0.000000
C184  C     C_R   0.812290 0.699200 0.750413 0.000000
C185  C     C_R   0.745960 0.683486 0.763059 0.000000
C186  C     C_R   0.705445 0.708283 0.786997 0.000000
C187  C     C_R   0.733130 0.747420 0.800166 0.000000
C188  C     C_R   0.801187 0.762918 0.788982 0.000000
C189  C     C_R   0.827417 0.805880 0.802861 0.000000
N29   N     N_R   0.872139 0.809646 0.835462 0.000000
C190  C     C_R   0.834585 0.833655 0.859399 0.000000
C191  C     C_R   0.848643 0.841864 0.897722 0.000000
C192  C     C_R   0.806793 0.869276 0.918251 0.000000
C193  C     C_R   0.758962 0.891547 0.898822 0.000000
C194  C     C_R   0.749530 0.884469 0.859645 0.000000
C195  C     C_R   0.782940 0.852278 0.840405 0.000000
N30   N     N_R   0.776038 0.836180 0.803348 0.000000
H113  H     H_    0.841728 0.681694 0.728691 0.000000
H114  H     H_    0.724498 0.652777 0.752887 0.000000
H115  H     H_    0.652427 0.696496 0.796333 0.000000
H116  H     H_    0.701038 0.765375 0.819957 0.000000
H117  H     H_    0.892543 0.827934 0.911204 0.000000
H118  H     H_    0.815092 0.875772 0.948602 0.000000
H119  H     H_    0.729805 0.915295 0.914345 0.000000
H120  H     H_    0.715086 0.903565 0.845890 0.000000
Br16  Br    Br    0.148911 0.813729 0.860318 0.000000
C196  C     C_R   0.149068 0.808018 0.911779 0.000000
C197  C     C_R   0.193886 0.779485 0.924716 0.000000
C198  C     C_R   0.226873 0.787262 0.958808 0.000000
C199  C     C_R   0.216322 0.823821 0.979438 0.000000
C200  C     C_R   0.175585 0.853007 0.964015 0.000000
C201  C     C_R   0.135553 0.843742 0.932228 0.000000
C202  C     C_R   0.089458 0.875523 0.917820 0.000000
N31   N     N_R   0.029102 0.866111 0.893716 0.000000
C203  C     C_R   0.999635 0.904484 0.896461 0.000000
C204  C     C_R   0.939022 0.917655 0.880084 0.000000
C205  C     C_R   0.918576 0.958288 0.886952 0.000000
C206  C     C_R   0.967050 0.988344 0.902043 0.000000
C207  C     C_R   0.031591 0.975818 0.914291 0.000000
C208  C     C_R   0.041279 0.933929 0.917060 0.000000
N32   N     N_R   0.098296 0.917685 0.932081 0.000000
H121  H     H_    0.212686 0.754947 0.905530 0.000000
H122  H     H_    0.271431 0.769263 0.964972 0.000000
H123  H     H_    0.248411 0.832284 0.004308 0.000000
H124  H     H_    0.179681 0.884374 0.974736 0.000000
H125  H     H_    0.909747 0.898881 0.859804 0.000000
H126  H     H_    0.869091 0.967684 0.875608 0.000000
H127  H     H_    0.957087 0.021467 0.901216 0.000000
H128  H     H_    0.076826 0.998050 0.917368 0.000000
Br17  Br    Br    0.924666 0.650229 0.853673 0.000000
C209  C     C_R   0.853272 0.685927 0.874037 0.000000
C210  C     C_R   0.783447 0.674754 0.864010 0.000000
C211  C     C_R   0.728780 0.699575 0.875684 0.000000
C212  C     C_R   0.744216 0.736380 0.896595 0.000000
C213  C     C_R   0.813013 0.746102 0.908804 0.000000
C214  C     C_R   0.868377 0.721402 0.898070 0.000000
C215  C     C_R   0.941827 0.732237 0.911621 0.000000
N33   N     N_R   0.972462 0.702627 0.934007 0.000000
C216  C     C_R   0.035846 0.698571 0.915597 0.000000
C217  C     C_R   0.079409 0.666297 0.919705 0.000000
C218  C     C_R   0.137378 0.662254 0.894728 0.000000
C219  C     C_R   0.147125 0.688679 0.864176 0.000000
C220  C     C_R   0.100411 0.719892 0.859302 0.000000
C221  C     C_R   0.046082 0.726040 0.886375 0.000000
N34   N     N_R   0.990257 0.751413 0.885145 0.000000
H129  H     H_    0.771745 0.646488 0.846455 0.000000
H130  H     H_    0.674036 0.690621 0.867893 0.000000
H131  H     H_    0.701550 0.756223 0.905630 0.000000
H132  H     H_    0.822617 0.772475 0.927977 0.000000
H133  H     H_    0.064182 0.642495 0.939690 0.000000
H134  H     H_    0.172645 0.636979 0.897465 0.000000
H135  H     H_    0.190377 0.684252 0.843391 0.000000
H136  H     H_    0.107853 0.737791 0.834080 0.000000
Br18  Br    Br    0.986925 0.452571 0.191531 0.000000
C222  C     C_R   0.074526 0.441576 0.170384 0.000000
C223  C     C_R   0.116120 0.477949 0.161346 0.000000
C224  C     C_R   0.177025 0.476093 0.138857 0.000000
C225  C     C_R   0.196079 0.437342 0.125989 0.000000
C226  C     C_R   0.154638 0.401126 0.135218 0.000000
C227  C     C_R   0.094084 0.401261 0.159360 0.000000
C228  C     C_R   0.058393 0.358557 0.171134 0.000000
N35   N     N_R   0.015414 0.349313 0.205303 0.000000
C229  C     C_R   0.019165 0.307032 0.205248 0.000000
C230  C     C_R   0.999043 0.282184 0.234973 0.000000
C231  C     C_R   0.003871 0.239085 0.231278 0.000000
C232  C     C_R   0.028819 0.221671 0.196899 0.000000
C233  C     C_R   0.053516 0.247560 0.167534 0.000000
C234  C     C_R   0.052913 0.290956 0.173267 0.000000
N36   N     N_R   0.079368 0.322245 0.150214 0.000000
H137  H     H_    0.097831 0.508500 0.170172 0.000000
H138  H     H_    0.208787 0.504424 0.131250 0.000000
H139  H     H_    0.244647 0.435471 0.109134 0.000000
H140  H     H_    0.174314 0.372582 0.124956 0.000000
H141  H     H_    0.979043 0.297526 0.259853 0.000000
H142  H     H_    0.986132 0.218976 0.254646 0.000000
H143  H     H_    0.029618 0.187766 0.193066 0.000000
H144  H     H_    0.069545 0.232952 0.140600 0.000000
Br19  Br    Br    0.450333 0.271201 0.122585 0.000000
C235  C     C_R   0.430044 0.317848 0.092618 0.000000
C236  C     C_R   0.469928 0.321496 0.058774 0.000000
C237  C     C_R   0.464319 0.355174 0.035830 0.000000
C238  C     C_R   0.417246 0.384957 0.046437 0.000000
C239  C     C_R   0.371814 0.379265 0.078228 0.000000
C240  C     C_R   0.377363 0.346143 0.102166 0.000000
C241  C     C_R   0.326463 0.339358 0.135597 0.000000
N37   N     N_R   0.256570 0.320190 0.128383 0.000000
C242  C     C_R   0.256801 0.288189 0.153276 0.000000
C243  C     C_R   0.215442 0.251193 0.150452 0.000000
C244  C     C_R   0.228722 0.218298 0.173757 0.000000
C245  C     C_R   0.286442 0.221888 0.198053 0.000000
C246  C     C_R   0.331391 0.258180 0.198696 0.000000
C247  C     C_R   0.314443 0.291791 0.177209 0.000000
N38   N     N_R   0.357140 0.326627 0.169788 0.000000
H145  H     H_    0.507561 0.298116 0.050762 0.000000
H146  H     H_    0.497637 0.358562 0.010048 0.000000
H147  H     H_    0.416300 0.412615 0.029366 0.000000
H148  H     H_    0.333702 0.402019 0.085505 0.000000
H149  H     H_    0.177994 0.246643 0.127863 0.000000
H150  H     H_    0.196416 0.188833 0.171403 0.000000
H151  H     H_    0.298748 0.195374 0.214906 0.000000
H152  H     H_    0.380090 0.259065 0.214688 0.000000
Br20  Br    Br    0.996991 0.282457 0.089989 0.000000
C248  C     C_R   0.986312 0.231207 0.063998 0.000000
C249  C     C_R   0.919333 0.210743 0.068556 0.000000
C250  C     C_R   0.890266 0.186171 0.039191 0.000000
C251  C     C_R   0.929038 0.182658 0.005457 0.000000
C252  C     C_R   0.999904 0.198528 0.003267 0.000000
C253  C     C_R   0.030804 0.222692 0.032746 0.000000
C254  C     C_R   0.110835 0.230829 0.031645 0.000000
N39   N     N_R   0.153133 0.255624 0.058261 0.000000
C255  C     C_R   0.218159 0.238110 0.051151 0.000000
C256  C     C_R   0.285775 0.249542 0.064006 0.000000
C257  C     C_R   0.342157 0.224589 0.053364 0.000000
C258  C     C_R   0.332573 0.189638 0.029279 0.000000
C259  C     C_R   0.268206 0.182448 0.011682 0.000000
C260  C     C_R   0.214029 0.207453 0.022765 0.000000
N40   N     N_R   0.151214 0.205423 0.006504 0.000000
H153  H     H_    0.886462 0.217662 0.093684 0.000000
H154  H     H_    0.835798 0.172482 0.041563 0.000000
H155  H     H_    0.904404 0.165924 0.981097 0.000000
H156  H     H_    0.031108 0.192220 0.977839 0.000000
H157  H     H_    0.297388 0.278574 0.078482 0.000000
H158  H     H_    0.396264 0.233562 0.060718 0.000000
H159  H     H_    0.377792 0.171611 0.020660 0.000000
H160  H     H_    0.261251 0.158915 0.988783 0.000000
Br21  Br    Br    0.056802 0.350637 0.960472 0.000000
C261  C     C_R   0.994530 0.320781 0.993125 0.000000
C262  C     C_R   0.950874 0.287975 0.978413 0.000000
C263  C     C_R   0.884636 0.279189 0.995089 0.000000
C264  C     C_R   0.859290 0.307985 0.021467 0.000000
C265  C     C_R   0.904111 0.341190 0.035324 0.000000
C266  C     C_R   0.976692 0.343279 0.025474 0.000000
C267  C     C_R   0.032957 0.375252 0.039744 0.000000
N41   N     N_R   0.098931 0.363621 0.055814 0.000000
C268  C     C_R   0.143176 0.395546 0.043027 0.000000
C269  C     C_R   0.216126 0.396309 0.041115 0.000000
C270  C     C_R   0.252741 0.431269 0.025486 0.000000
C271  C     C_R   0.216375 0.464863 0.013812 0.000000
C272  C     C_R   0.142398 0.462787 0.014787 0.000000
C273  C     C_R   0.106807 0.426457 0.026519 0.000000
N42   N     N_R   0.035556 0.416086 0.024787 0.000000
H161  H     H_    0.966086 0.271322 0.952297 0.000000
H162  H     H_    0.848801 0.254266 0.983233 0.000000
H163  H     H_    0.802775 0.305870 0.028947 0.000000
H164  H     H_    0.880312 0.365189 0.052589 0.000000
H165  H     H_    0.242856 0.369310 0.049967 0.000000
H166  H     H_    0.310054 0.433276 0.022507 0.000000
H167  H     H_    0.246638 0.492124 0.002927 0.000000
H168  H     H_    0.113392 0.488934 0.007211 0.000000
Br22  Br    Br    0.631990 0.398409 0.313072 0.000000
C274  C     C_R   0.724446 0.421622 0.323074 0.000000
C275  C     C_R   0.727855 0.462247 0.338021 0.000000
C276  C     C_R   0.787770 0.480541 0.355020 0.000000
C277  C     C_R   0.848462 0.459175 0.352411 0.000000
C278  C     C_R   0.847412 0.422034 0.331145 0.000000
C279  C     C_R   0.786632 0.400672 0.318646 0.000000
C280  C     C_R   0.794711 0.355725 0.308193 0.000000
N43   N     N_R   0.750882 0.324098 0.326069 0.000000
C281  C     C_R   0.796712 0.292281 0.326053 0.000000
C282  C     C_R   0.784884 0.252264 0.340072 0.000000
C283  C     C_R   0.842692 0.228100 0.345053 0.000000
C284  C     C_R   0.911781 0.244888 0.338138 0.000000
C285  C     C_R   0.922704 0.284100 0.322307 0.000000
C286  C     C_R   0.863700 0.305021 0.312181 0.000000
N44   N     N_R   0.863210 0.343048 0.295934 0.000000
H169  H     H_    0.681211 0.478715 0.338593 0.000000
H170  H     H_    0.787625 0.511604 0.368783 0.000000
H171  H     H_    0.898110 0.473031 0.363358 0.000000
H172  H     H_    0.895756 0.411162 0.320421 0.000000
H173  H     H_    0.732575 0.238980 0.346664 0.000000
H174  H     H_    0.834045 0.196899 0.356546 0.000000
H175  H     H_    0.957221 0.227344 0.345136 0.000000
H176  H     H_    0.976634 0.298504 0.320024 0.000000
Br23  Br    Br    0.386545 0.385011 0.462340 0.000000
C287  C     C_R   0.428369 0.338325 0.443894 0.000000
C288  C     C_R   0.390426 0.301529 0.453260 0.000000
C289  C     C_R   0.407870 0.263737 0.437314 0.000000
C290  C     C_R   0.461310 0.263787 0.409827 0.000000
C291  C     C_R   0.498715 0.301154 0.399707 0.000000
C292  C     C_R   0.484984 0.339783 0.417413 0.000000
C293  C     C_R   0.538344 0.377215 0.411890 0.000000
N45   N     N_R   0.537763 0.417164 0.432440 0.000000
C294  C     C_R   0.608298 0.428974 0.431393 0.000000
C295  C     C_R   0.640410 0.463357 0.450470 0.000000
C296  C     C_R   0.714255 0.466945 0.452208 0.000000
C297  C     C_R   0.754457 0.437673 0.432788 0.000000
C298  C     C_R   0.721191 0.405843 0.410222 0.000000
C299  C     C_R   0.647617 0.400994 0.410355 0.000000
N46   N     N_R   0.605380 0.368748 0.394731 0.000000
H177  H     H_    0.343816 0.303578 0.471788 0.000000
H178  H     H_    0.376945 0.234882 0.444247 0.000000
H179  H     H_    0.470920 0.234367 0.395091 0.000000
H180  H     H_    0.537695 0.299492 0.377029 0.000000
H181  H     H_    0.608743 0.487054 0.463590 0.000000
H182  H     H_    0.740856 0.492716 0.468411 0.000000
H183  H     H_    0.812437 0.441035 0.433617 0.000000
H184  H     H_    0.753206 0.386649 0.392177 0.000000
Br24  Br    Br    0.755984 0.261386 0.515143 0.000000
C300  C     C_R   0.793427 0.273613 0.467327 0.000000
C301  C     C_R   0.864191 0.288969 0.466138 0.000000
C302  C     C_R   0.888499 0.314405 0.437213 0.000000
C303  C     C_R   0.839132 0.327573 0.412620 0.000000
C304  C     C_R   0.769722 0.310605 0.413591 0.000000
C305  C     C_R   0.747471 0.280150 0.438268 0.000000
C306  C     C_R   0.682547 0.252891 0.427837 0.000000
N47   N     N_R   0.668321 0.211708 0.441332 0.000000
C307  C     C_R   0.629668 0.193653 0.412190 0.000000
C308  C     C_R   0.612995 0.151469 0.405708 0.000000
C309  C     C_R   0.575317 0.138452 0.373209 0.000000
C310  C     C_R   0.555708 0.167828 0.347536 0.000000
C311  C     C_R   0.576676 0.210066 0.353363 0.000000
C312  C     C_R   0.615057 0.222278 0.385400 0.000000
N48   N     N_R   0.646611 0.260863 0.393885 0.000000
H185  H     H_    0.899990 0.282382 0.488745 0.000000
H186  H     H_    0.943961 0.326441 0.436028 0.000000
H187  H     H_    0.853741 0.350739 0.391782 0.000000
H188  H     H_    0.732637 0.320496 0.393921 0.000000
H189  H     H_    0.631934 0.128843 0.424322 0.000000
H190  H     H_    0.561324 0.105238 0.367773 0.000000
H191  H     H_    0.525078 0.157611 0.322519 0.000000
H192  H     H_    0.560176 0.233032 0.334339 0.000000
Br25  Br    Br    0.418702 0.238591 0.301065 0.000000
C313  C     C_R   0.406607 0.291988 0.326622 0.000000
C314  C     C_R   0.351203 0.293094 0.353502 0.000000
C315  C     C_R   0.336088 0.330530 0.371739 0.000000
C316  C     C_R   0.376471 0.366884 0.363065 0.000000
C317  C     C_R   0.433772 0.366123 0.337361 0.000000
C318  C     C_R   0.449100 0.328760 0.318692 0.000000
C319  C     C_R   0.510645 0.326823 0.291959 0.000000
N49   N     N_R   0.570834 0.307582 0.304939 0.000000
C320  C     C_R   0.585515 0.282082 0.274114 0.000000
C321  C     C_R   0.632925 0.250705 0.272052 0.000000
C322  C     C_R   0.626894 0.220956 0.242105 0.000000
C323  C     C_R   0.576287 0.224271 0.213985 0.000000
C324  C     C_R   0.534488 0.258761 0.214311 0.000000
C325  C     C_R   0.540436 0.287730 0.244307 0.000000
N50   N     N_R   0.496267 0.318902 0.252827 0.000000
H193  H     H_    0.318671 0.264565 0.359661 0.000000
H194  H     H_    0.291923 0.331561 0.392480 0.000000
H195  H     H_    0.364169 0.395763 0.377555 0.000000
H196  H     H_    0.466634 0.394732 0.332597 0.000000
H197  H     H_    0.669280 0.246893 0.294779 0.000000
H198  H     H_    0.660758 0.194548 0.241040 0.000000
H199  H     H_    0.570863 0.200412 0.191093 0.000000
H200  H     H_    0.494886 0.261179 0.193204 0.000000
Br26  Br    Br    0.582324 0.699865 0.352208 0.000000
C326  C     C_R   0.613262 0.702567 0.301336 0.000000
C327  C     C_R   0.638752 0.664206 0.289479 0.000000
C328  C     C_R   0.620272 0.645799 0.254953 0.000000
C329  C     C_R   0.582492 0.667682 0.230786 0.000000
C330  C     C_R   0.560999 0.706815 0.242366 0.000000
C331  C     C_R   0.579589 0.727436 0.276143 0.000000
C332  C     C_R   0.562034 0.773553 0.279885 0.000000
N51   N     N_R   0.595158 0.805062 0.305290 0.000000
C333  C     C_R   0.582863 0.840319 0.286071 0.000000
C334  C     C_R   0.612956 0.880175 0.293347 0.000000
C335  C     C_R   0.596136 0.912571 0.270100 0.000000
C336  C     C_R   0.556566 0.903882 0.237302 0.000000
C337  C     C_R   0.532388 0.862853 0.228060 0.000000
C338  C     C_R   0.542625 0.831880 0.253837 0.000000
N52   N     N_R   0.525172 0.790296 0.249118 0.000000
H201  H     H_    0.659760 0.644283 0.310452 0.000000
H202  H     H_    0.628977 0.613081 0.248339 0.000000
H203  H     H_    0.565502 0.652717 0.203935 0.000000
H204  H     H_    0.522164 0.719396 0.226361 0.000000
H205  H     H_    0.648367 0.886197 0.317121 0.000000
H206  H     H_    0.617111 0.944531 0.276455 0.000000
H207  H     H_    0.547558 0.928897 0.217966 0.000000
H208  H     H_    0.508134 0.855326 0.200569 0.000000
Br27  Br    Br    0.571583 0.836583 0.467484 0.000000
C339  C     C_R   0.500317 0.824221 0.430878 0.000000
C340  C     C_R   0.449100 0.852211 0.424628 0.000000
C341  C     C_R   0.389825 0.839334 0.403826 0.000000
C342  C     C_R   0.383814 0.798695 0.388923 0.000000
C343  C     C_R   0.439761 0.772971 0.391165 0.000000
C344  C     C_R   0.497835 0.785559 0.412470 0.000000
C345  C     C_R   0.557782 0.759164 0.416086 0.000000
N53   N     N_R   0.627188 0.772641 0.403407 0.000000
C346  C     C_R   0.666911 0.746708 0.423361 0.000000
C347  C     C_R   0.740631 0.746948 0.425828 0.000000
C348  C     C_R   0.769628 0.717503 0.448180 0.000000
C349  C     C_R   0.725448 0.688551 0.467916 0.000000
C350  C     C_R   0.651851 0.687469 0.464143 0.000000
C351  C     C_R   0.623518 0.716963 0.442266 0.000000
N54   N     N_R   0.553177 0.721959 0.436934 0.000000
H209  H     H_    0.455411 0.884143 0.436168 0.000000
H210  H     H_    0.347992 0.860653 0.399718 0.000000
H211  H     H_    0.337283 0.787893 0.373243 0.000000
H212  H     H_    0.439010 0.743458 0.375885 0.000000
H213  H     H_    0.776277 0.768591 0.410256 0.000000
H214  H     H_    0.827275 0.717003 0.450192 0.000000
H215  H     H_    0.748940 0.666430 0.485986 0.000000
H216  H     H_    0.617804 0.663848 0.477682 0.000000
Br28  Br    Br    0.774844 0.914679 0.278058 0.000000
C352  C     C_R   0.859039 0.909922 0.304751 0.000000
C353  C     C_R   0.902937 0.946510 0.307741 0.000000
C354  C     C_R   0.967844 0.946817 0.325281 0.000000
C355  C     C_R   0.988619 0.910234 0.340125 0.000000
C356  C     C_R   0.944788 0.873532 0.337173 0.000000
C357  C     C_R   0.879297 0.872409 0.319439 0.000000
C358  C     C_R   0.842959 0.829730 0.313274 0.000000
N55   N     N_R   0.776161 0.814910 0.330802 0.000000
C359  C     C_R   0.785670 0.773709 0.328778 0.000000
C360  C     C_R   0.738933 0.743685 0.340977 0.000000
C361  C     C_R   0.760375 0.703633 0.345495 0.000000
C362  C     C_R   0.828251 0.694715 0.334394 0.000000
C363  C     C_R   0.873715 0.725644 0.318515 0.000000
C364  C     C_R   0.849077 0.764106 0.313819 0.000000
N56   N     N_R   0.885640 0.797234 0.299268 0.000000
H217  H     H_    0.886133 0.975199 0.295811 0.000000
H218  H     H_    0.001756 0.975666 0.327838 0.000000
H219  H     H_    0.038081 0.910902 0.355492 0.000000
H220  H     H_    0.961328 0.845307 0.349958 0.000000
H221  H     H_    0.688115 0.753508 0.347765 0.000000
H222  H     H_    0.725768 0.679451 0.358616 0.000000
H223  H     H_    0.842917 0.662999 0.336579 0.000000
H224  H     H_    0.927553 0.720440 0.310647 0.000000
Br29  Br    Br    0.782097 0.971636 0.385920 0.000000
C365  C     C_R   0.816535 0.924479 0.411150 0.000000
C366  C     C_R   0.889395 0.921186 0.413628 0.000000
C367  C     C_R   0.915558 0.883280 0.422527 0.000000
C368  C     C_R   0.868519 0.848505 0.426687 0.000000
C369  C     C_R   0.795960 0.853732 0.430036 0.000000
C370  C     C_R   0.770076 0.891861 0.423585 0.000000
C371  C     C_R   0.693170 0.895314 0.422921 0.000000
N57   N     N_R   0.654001 0.876469 0.392367 0.000000
C372  C     C_R   0.599397 0.902312 0.391320 0.000000
C373  C     C_R   0.541774 0.899508 0.367514 0.000000
C374  C     C_R   0.501208 0.934244 0.365343 0.000000
C375  C     C_R   0.521040 0.971066 0.385952 0.000000
C376  C     C_R   0.575157 0.971356 0.412447 0.000000
C377  C     C_R   0.607030 0.934552 0.418295 0.000000
N58   N     N_R   0.661270 0.928931 0.442230 0.000000
H225  H     H_    0.926162 0.947322 0.405821 0.000000
H226  H     H_    0.972861 0.879957 0.422755 0.000000
H227  H     H_    0.888888 0.817767 0.429960 0.000000
H228  H     H_    0.758043 0.828553 0.437884 0.000000
H229  H     H_    0.527658 0.870661 0.351701 0.000000
H230  H     H_    0.456760 0.933489 0.345916 0.000000
H231  H     H_    0.494211 0.999586 0.381320 0.000000
H232  H     H_    0.597039 0.000636 0.424857 0.000000
Br30  Br    Br    0.304645 0.686919 0.089775 0.000000
C378  C     C_R   0.368068 0.735196 0.076441 0.000000
C379  C     C_R   0.411499 0.730486 0.043751 0.000000
C380  C     C_R   0.453420 0.763813 0.029443 0.000000
C381  C     C_R   0.455473 0.802060 0.048905 0.000000
C382  C     C_R   0.418399 0.806064 0.083458 0.000000
C383  C     C_R   0.373847 0.773342 0.097658 0.000000
C384  C     C_R   0.334576 0.783375 0.133845 0.000000
N59   N     N_R   0.274875 0.808731 0.131588 0.000000
C385  C     C_R   0.287021 0.835259 0.162340 0.000000
C386  C     C_R   0.257942 0.873318 0.169071 0.000000
C387  C     C_R   0.284752 0.900299 0.197944 0.000000
C388  C     C_R   0.338932 0.888097 0.220595 0.000000
C389  C     C_R   0.366324 0.848986 0.214151 0.000000
C390  C     C_R   0.343308 0.824505 0.183400 0.000000
N60   N     N_R   0.375026 0.790993 0.167719 0.000000
H233  H     H_    0.409996 0.700540 0.027930 0.000000
H234  H     H_    0.484292 0.759953 0.002927 0.000000
H235  H     H_    0.488586 0.828461 0.038011 0.000000
H236  H     H_    0.424265 0.835670 0.099679 0.000000
H237  H     H_    0.222496 0.884345 0.148864 0.000000
H238  H     H_    0.264312 0.931237 0.202343 0.000000
H239  H     H_    0.359416 0.909046 0.243509 0.000000
H240  H     H_    0.404350 0.837580 0.232912 0.000000
Br31  Br    Br    0.183578 0.738357 0.128028 0.000000
C391  C     C_R   0.134792 0.714171 0.166703 0.000000
C392  C     C_R   0.143053 0.671793 0.167918 0.000000
C393  C     C_R   0.095123 0.646896 0.188015 0.000000
C394  C     C_R   0.045881 0.665896 0.210598 0.000000
C395  C     C_R   0.043034 0.708782 0.211868 0.000000
C396  C     C_R   0.082797 0.734618 0.187393 0.000000
C397  C     C_R   0.071436 0.781712 0.187134 0.000000
N61   N     N_R   0.033501 0.799521 0.218178 0.000000
C398  C     C_R   0.046917 0.841105 0.213505 0.000000
C399  C     C_R   0.025694 0.873342 0.237585 0.000000
C400  C     C_R   0.041151 0.914421 0.226670 0.000000
C401  C     C_R   0.073629 0.922330 0.191166 0.000000
C402  C     C_R   0.093454 0.889327 0.166999 0.000000
C403  C     C_R   0.084468 0.848682 0.179853 0.000000
N62   N     N_R   0.101388 0.812123 0.160947 0.000000
H241  H     H_    0.182116 0.657665 0.148865 0.000000
H242  H     H_    0.095176 0.612873 0.185751 0.000000
H243  H     H_    0.007182 0.646566 0.226376 0.000000
H244  H     H_    0.007846 0.720435 0.232248 0.000000
H245  H     H_    0.994587 0.866939 0.263361 0.000000
H246  H     H_    0.024506 0.940419 0.244921 0.000000
H247  H     H_    0.082299 0.954519 0.182090 0.000000
H248  H     H_    0.114083 0.895597 0.138419 0.000000
Br32  Br    Br    0.066938 0.966232 0.095297 0.000000
C404  C     C_R   0.021020 0.928059 0.058705 0.000000
C405  C     C_R   0.952232 0.935684 0.048446 0.000000
C406  C     C_R   0.922543 0.915381 0.016456 0.000000
C407  C     C_R   0.959632 0.885053 0.996711 0.000000
C408  C     C_R   0.025175 0.874356 0.009455 0.000000
C409  C     C_R   0.057735 0.896349 0.039850 0.000000
C410  C     C_R   0.135936 0.897269 0.043319 0.000000
N63   N     N_R   0.175270 0.931036 0.026603 0.000000
C411  C     C_R   0.233477 0.934234 0.048360 0.000000
C412  C     C_R   0.274676 0.970240 0.057471 0.000000
C413  C     C_R   0.335229 0.966676 0.078780 0.000000
C414  C     C_R   0.351745 0.927183 0.090080 0.000000
C415  C     C_R   0.301605 0.893381 0.085947 0.000000
C416  C     C_R   0.236791 0.899838 0.070305 0.000000
N64   N     N_R   0.174058 0.875232 0.070160 0.000000
H249  H     H_    0.924112 0.960264 0.063514 0.000000
H250  H     H_    0.870055 0.922798 0.007221 0.000000
H251  H     H_    0.936004 0.868140 0.972209 0.000000
H252  H     H_    0.050574 0.848595 0.995262 0.000000
H253  H     H_    0.256924 0.000686 0.050875 0.000000
H254  H     H_    0.370603 0.994174 0.085341 0.000000
H255  H     H_    0.402117 0.923128 0.103780 0.000000
H256  H     H_    0.315270 0.862955 0.092848 0.000000
Br33  Br    Br    0.999334 0.833102 0.106248 0.000000
C417  C     C_R   0.949166 0.812170 0.064692 0.000000
C418  C     C_R   0.887487 0.832081 0.058562 0.000000
C419  C     C_R   0.840592 0.817634 0.031059 0.000000
C420  C     C_R   0.858684 0.784299 0.008159 0.000000
C421  C     C_R   0.924511 0.767526 0.011310 0.000000
C422  C     C_R   0.970795 0.779639 0.040741 0.000000
C423  C     C_R   0.036908 0.755433 0.043925 0.000000
N65   N     N_R   0.104758 0.769315 0.060248 0.000000
C424  C     C_R   0.146169 0.740921 0.041994 0.000000
C425  C     C_R   0.218853 0.744291 0.036244 0.000000
C426  C     C_R   0.248989 0.713904 0.012154 0.000000
C427  C     C_R   0.208992 0.679295 0.997915 0.000000
C428  C     C_R   0.136448 0.676228 0.004820 0.000000
C429  C     C_R   0.106428 0.709250 0.023215 0.000000
N66   N     N_R   0.036840 0.716189 0.023768 0.000000
H257  H     H_    0.877005 0.860134 0.075346 0.000000
H258  H     H_    0.790629 0.832340 0.027446 0.000000
H259  H     H_    0.820471 0.771182 0.987943 0.000000
H260  H     H_    0.937539 0.743532 0.990785 0.000000
H261  H     H_    0.250397 0.771600 0.047187 0.000000
H262  H     H_    0.304056 0.717497 0.002760 0.000000
H263  H     H_    0.234409 0.656243 0.979683 0.000000
H264  H     H_    0.103339 0.649740 0.995060 0.000000
Br34  Br    Br    0.737674 0.392987 0.808664 0.000000
C430  C     C_R   0.816406 0.393445 0.773637 0.000000
C431  C     C_R   0.832807 0.429752 0.753641 0.000000
C432  C     C_R   0.886916 0.430927 0.726095 0.000000
C433  C     C_R   0.924713 0.395688 0.718861 0.000000
C434  C     C_R   0.909668 0.359682 0.739614 0.000000
C435  C     C_R   0.854420 0.357725 0.767114 0.000000
C436  C     C_R   0.833633 0.319017 0.788771 0.000000
N67   N     N_R   0.869449 0.312373 0.822938 0.000000
C437  C     C_R   0.816890 0.293686 0.844220 0.000000
C438  C     C_R   0.821912 0.284267 0.882255 0.000000
C439  C     C_R   0.767545 0.259465 0.899058 0.000000
C440  C     C_R   0.711000 0.243895 0.877068 0.000000
C441  C     C_R   0.706465 0.254415 0.838966 0.000000
C442  C     C_R   0.758044 0.281996 0.822700 0.000000
N68   N     N_R   0.764909 0.297147 0.786038 0.000000
H265  H     H_    0.802001 0.457107 0.759158 0.000000
H266  H     H_    0.899221 0.459158 0.709994 0.000000
H267  H     H_    0.966866 0.396216 0.696890 0.000000
H268  H     H_    0.940198 0.333068 0.732424 0.000000
H269  H     H_    0.870186 0.293465 0.897748 0.000000
H270  H     H_    0.770974 0.250288 0.928583 0.000000
H271  H     H_    0.671078 0.222101 0.889514 0.000000
H272  H     H_    0.665630 0.238014 0.823312 0.000000
Br35  Br    Br    0.929182 0.252083 0.749829 0.000000
C443  C     C_R   0.000749 0.232960 0.780461 0.000000
C444  C     C_R   0.992857 0.194024 0.796273 0.000000
C445  C     C_R   0.049006 0.176777 0.812503 0.000000
C446  C     C_R   0.114367 0.198769 0.812612 0.000000
C447  C     C_R   0.122420 0.236580 0.795366 0.000000
C448  C     C_R   0.066093 0.254208 0.780158 0.000000
C449  C     C_R   0.072942 0.297984 0.770543 0.000000
N69   N     N_R   0.115693 0.313428 0.740183 0.000000
C450  C     C_R   0.103332 0.355072 0.742900 0.000000
C451  C     C_R   0.130883 0.386783 0.719797 0.000000
C452  C     C_R   0.112941 0.427709 0.728520 0.000000
C453  C     C_R   0.066607 0.436248 0.759321 0.000000
C454  C     C_R   0.037828 0.403944 0.781918 0.000000
C455  C     C_R   0.058964 0.363682 0.774057 0.000000
N70   N     N_R   0.039919 0.328150 0.793354 0.000000
H273  H     H_    0.941275 0.178699 0.800234 0.000000
H274  H     H_    0.039340 0.147126 0.826201 0.000000
H275  H     H_    0.158921 0.187805 0.826913 0.000000
H276  H     H_    0.171542 0.254475 0.796188 0.000000
H277  H     H_    0.166709 0.380364 0.696013 0.000000
H278  H     H_    0.134560 0.453192 0.710916 0.000000
H279  H     H_    0.051846 0.468236 0.765265 0.000000
H280  H     H_    0.999692 0.410295 0.805005 0.000000
Br36  Br    Br    0.865170 0.454190 0.863093 0.000000
C456  C     C_R   0.814216 0.411791 0.892892 0.000000
C457  C     C_R   0.739908 0.409542 0.894887 0.000000
C458  C     C_R   0.702742 0.377067 0.913644 0.000000
C459  C     C_R   0.739533 0.351485 0.936157 0.000000
C460  C     C_R   0.813300 0.357005 0.937529 0.000000
C461  C     C_R   0.851204 0.384520 0.913857 0.000000
C462  C     C_R   0.929385 0.390395 0.915625 0.000000
N71   N     N_R   0.975067 0.376280 0.885544 0.000000
C463  C     C_R   0.031127 0.405437 0.888784 0.000000
C464  C     C_R   0.092947 0.409382 0.866820 0.000000
C465  C     C_R   0.146784 0.439066 0.877171 0.000000
C466  C     C_R   0.138061 0.464753 0.909485 0.000000
C467  C     C_R   0.074088 0.461945 0.930384 0.000000
C468  C     C_R   0.021890 0.432301 0.919698 0.000000
N72   N     N_R   0.959959 0.423102 0.939075 0.000000
H281  H     H_    0.710533 0.432691 0.880840 0.000000
H282  H     H_    0.644690 0.374003 0.913348 0.000000
H283  H     H_    0.710693 0.327915 0.953398 0.000000
H284  H     H_    0.842300 0.337928 0.955212 0.000000
H285  H     H_    0.100002 0.390491 0.841786 0.000000
H286  H     H_    0.196055 0.441961 0.860102 0.000000
H287  H     H_    0.180921 0.487363 0.917809 0.000000
H288  H     H_    0.063776 0.483092 0.953946 0.000000
Br37  Br    Br    0.164570 0.321671 0.843670 0.000000
C469  C     C_R   0.172780 0.317183 0.895879 0.000000
C470  C     C_R   0.217546 0.347294 0.914364 0.000000
C471  C     C_R   0.231838 0.344077 0.952545 0.000000
C472  C     C_R   0.198593 0.311292 0.972316 0.000000
C473  C     C_R   0.155614 0.280861 0.952942 0.000000
C474  C     C_R   0.140855 0.283267 0.914927 0.000000
C475  C     C_R   0.083824 0.252543 0.900134 0.000000
N73   N     N_R   0.023208 0.263911 0.878990 0.000000
C476  C     C_R   0.981807 0.227191 0.881744 0.000000
C477  C     C_R   0.916462 0.217528 0.865720 0.000000
C478  C     C_R   0.879339 0.179466 0.872882 0.000000
C479  C     C_R   0.912918 0.148492 0.890764 0.000000
C480  C     C_R   0.982248 0.156420 0.902839 0.000000
C481  C     C_R   0.014373 0.196592 0.901005 0.000000
N74   N     N_R   0.079580 0.210622 0.914025 0.000000
H289  H     H_    0.242076 0.373402 0.898532 0.000000
H290  H     H_    0.267203 0.367512 0.966867 0.000000
H291  H     H_    0.204882 0.309901 0.003027 0.000000
H292  H     H_    0.120620 0.259929 0.968274 0.000000
H293  H     H_    0.898813 0.236557 0.843691 0.000000
H294  H     H_    0.826581 0.172443 0.861434 0.000000
H295  H     H_    0.886633 0.117285 0.893140 0.000000
H296  H     H_    0.010258 0.130494 0.911393 0.000000
Br38  Br    Br    0.211141 0.762183 0.238215 0.000000
C482  C     C_R   0.271758 0.792086 0.272514 0.000000
C483  C     C_R   0.260821 0.833247 0.283528 0.000000
C484  C     C_R   0.312311 0.856315 0.304290 0.000000
C485  C     C_R   0.375851 0.838641 0.311279 0.000000
C486  C     C_R   0.384775 0.796740 0.301330 0.000000
C487  C     C_R   0.331219 0.772917 0.282944 0.000000
C488  C     C_R   0.341796 0.730069 0.267988 0.000000
N75   N     N_R   0.310389 0.693427 0.284321 0.000000
C489  C     C_R   0.340010 0.663573 0.261752 0.000000
C490  C     C_R   0.347997 0.622599 0.270566 0.000000
C491  C     C_R   0.385721 0.597817 0.245143 0.000000
C492  C     C_R   0.415364 0.614182 0.211997 0.000000
C493  C     C_R   0.416991 0.656514 0.207529 0.000000
C494  C     C_R   0.380560 0.680694 0.232761 0.000000
N76   N     N_R   0.386618 0.722690 0.236225 0.000000
H297  H     H_    0.213772 0.847950 0.274343 0.000000
H298  H     H_    0.305032 0.888903 0.312653 0.000000
H299  H     H_    0.418145 0.857461 0.325295 0.000000
H300  H     H_    0.432910 0.782426 0.308807 0.000000
H301  H     H_    0.333039 0.611552 0.298715 0.000000
H302  H     H_    0.395471 0.566384 0.252108 0.000000
H303  H     H_    0.444878 0.595354 0.191988 0.000000
H304  H     H_    0.453331 0.670553 0.188047 0.000000
Br39  Br    Br    0.589543 0.804707 0.108599 0.000000
C495  C     C_R   0.632873 0.807711 0.157501 0.000000
C496  C     C_R   0.658064 0.846522 0.171225 0.000000
C497  C     C_R   0.694956 0.849745 0.204799 0.000000
C498  C     C_R   0.709213 0.814067 0.224135 0.000000
C499  C     C_R   0.685201 0.774793 0.209901 0.000000
C500  C     C_R   0.645167 0.771728 0.177074 0.000000
C501  C     C_R   0.609421 0.732084 0.163753 0.000000
N77   N     N_R   0.534930 0.729247 0.162103 0.000000
C502  C     C_R   0.525417 0.699464 0.133589 0.000000
C503  C     C_R   0.463112 0.682324 0.119201 0.000000
C504  C     C_R   0.466436 0.655378 0.086991 0.000000
C505  C     C_R   0.531630 0.648409 0.069465 0.000000
C506  C     C_R   0.593289 0.658000 0.089589 0.000000
C507  C     C_R   0.588542 0.684012 0.121365 0.000000
N78   N     N_R   0.643451 0.701789 0.141026 0.000000
H305  H     H_    0.649331 0.874506 0.155526 0.000000
H306  H     H_    0.714061 0.880626 0.214653 0.000000
H307  H     H_    0.739433 0.816828 0.250286 0.000000
H308  H     H_    0.696410 0.746872 0.224976 0.000000
H309  H     H_    0.414307 0.690162 0.133766 0.000000
H310  H     H_    0.418970 0.640688 0.073970 0.000000
H311  H     H_    0.533568 0.632284 0.041681 0.000000
H312  H     H_    0.644109 0.647027 0.079568 0.000000
Br40  Br    Br    0.403330 0.874172 0.718723 0.000000
C508  C     C_R   0.369353 0.835216 0.755726 0.000000
C509  C     C_R   0.377610 0.792409 0.755598 0.000000
C510  C     C_R   0.334894 0.765778 0.777999 0.000000
C511  C     C_R   0.272569 0.780571 0.792508 0.000000
C512  C     C_R   0.262190 0.822700 0.788892 0.000000
C513  C     C_R   0.315496 0.850613 0.775879 0.000000
C514  C     C_R   0.305002 0.894853 0.770340 0.000000
N79   N     N_R   0.337736 0.927476 0.793168 0.000000
C515  C     C_R   0.295693 0.958310 0.786687 0.000000
C516  C     C_R   0.287430 0.990877 0.812443 0.000000
C517  C     C_R   0.231914 0.014920 0.808994 0.000000
C518  C     C_R   0.182700 0.004358 0.781457 0.000000
C519  C     C_R   0.188611 0.969124 0.757106 0.000000
C520  C     C_R   0.246902 0.947122 0.759155 0.000000
N80   N     N_R   0.251540 0.906882 0.746694 0.000000
H313  H     H_    0.406805 0.778033 0.733202 0.000000
H314  H     H_    0.342194 0.732248 0.777243 0.000000
H315  H     H_    0.230946 0.759094 0.804186 0.000000
H316  H     H_    0.211683 0.833798 0.795109 0.000000
H317  H     H_    0.315847 0.994595 0.838581 0.000000
H318  H     H_    0.219577 0.035343 0.833053 0.000000
H319  H     H_    0.132763 0.018804 0.785459 0.000000
H320  H     H_    0.144312 0.953557 0.742918 0.000000
Br41  Br    Br    0.322570 0.951680 0.657917 0.000000
C521  C     C_R   0.289358 0.918417 0.615182 0.000000
C522  C     C_R   0.252082 0.936707 0.586956 0.000000
C523  C     C_R   0.218924 0.912064 0.558444 0.000000
C524  C     C_R   0.228982 0.869599 0.555940 0.000000
C525  C     C_R   0.270593 0.852101 0.582571 0.000000
C526  C     C_R   0.299694 0.875886 0.612713 0.000000
C527  C     C_R   0.325644 0.852390 0.644482 0.000000
N81   N     N_R   0.382535 0.825637 0.637710 0.000000
C528  C     C_R   0.357354 0.791553 0.657173 0.000000
C529  C     C_R   0.386044 0.753108 0.656972 0.000000
C530  C     C_R   0.349951 0.720449 0.676256 0.000000
C531  C     C_R   0.287634 0.727685 0.697185 0.000000
C532  C     C_R   0.261863 0.767606 0.698878 0.000000
C533  C     C_R   0.295076 0.798544 0.677206 0.000000
N82   N     N_R   0.274417 0.837903 0.672311 0.000000
H321  H     H_    0.247648 0.970437 0.587311 0.000000
H322  H     H_    0.187189 0.926273 0.537367 0.000000
H323  H     H_    0.203918 0.850023 0.533349 0.000000
H324  H     H_    0.275462 0.818674 0.582328 0.000000
H325  H     H_    0.433345 0.748033 0.640457 0.000000
H326  H     H_    0.371174 0.689537 0.675615 0.000000
H327  H     H_    0.261574 0.702831 0.714067 0.000000
H328  H     H_    0.221634 0.775314 0.719520 0.000000
Br42  Br    Br    0.002455 0.923957 0.715262 0.000000
C534  C     C_R   0.048875 0.973906 0.701072 0.000000
C535  C     C_R   0.058638 0.008651 0.723819 0.000000
C536  C     C_R   0.115269 0.035755 0.715603 0.000000
C537  C     C_R   0.164682 0.026718 0.686528 0.000000
C538  C     C_R   0.150573 0.992740 0.662883 0.000000
C539  C     C_R   0.092087 0.967086 0.671561 0.000000
C540  C     C_R   0.077699 0.927174 0.654774 0.000000
N83   N     N_R   0.118111 0.892744 0.661656 0.000000
C541  C     C_R   0.090329 0.865461 0.634561 0.000000
C542  C     C_R   0.114216 0.826875 0.623634 0.000000
C543  C     C_R   0.079934 0.804646 0.593831 0.000000
C544  C     C_R   0.023227 0.820977 0.575768 0.000000
C545  C     C_R   0.998690 0.859573 0.587907 0.000000
C546  C     C_R   0.032979 0.881382 0.616827 0.000000
N84   N     N_R   0.018850 0.920018 0.631053 0.000000
H329  H     H_    0.029777 0.012138 0.750769 0.000000
H330  H     H_    0.124966 0.059732 0.737260 0.000000
H331  H     H_    0.215710 0.044266 0.682918 0.000000
H332  H     H_    0.186577 0.985233 0.639701 0.000000
H333  H     H_    0.160183 0.814844 0.636435 0.000000
H334  H     H_    0.096743 0.774177 0.584521 0.000000
H335  H     H_    0.996473 0.802174 0.553355 0.000000
H336  H     H_    0.952399 0.872163 0.576955 0.000000
Br43  Br    Br    0.100293 0.492954 0.253280 0.000000
C547  C     C_R   0.157242 0.445398 0.241511 0.000000
C548  C     C_R   0.213582 0.441427 0.216113 0.000000
C549  C     C_R   0.234910 0.401938 0.205348 0.000000
C550  C     C_R   0.196986 0.366468 0.218538 0.000000
C551  C     C_R   0.145593 0.371114 0.246607 0.000000
C552  C     C_R   0.130240 0.410988 0.258117 0.000000
C553  C     C_R   0.094683 0.419835 0.292577 0.000000
N85   N     N_R   0.129961 0.441919 0.322843 0.000000
C554  C     C_R   0.078348 0.438337 0.350390 0.000000
C555  C     C_R   0.076470 0.457850 0.386020 0.000000
C556  C     C_R   0.023677 0.444351 0.412101 0.000000
C557  C     C_R   0.978449 0.409622 0.402802 0.000000
C558  C     C_R   0.979920 0.391859 0.365815 0.000000
C559  C     C_R   0.022137 0.411956 0.338321 0.000000
N86   N     N_R   0.025773 0.403765 0.299579 0.000000
H337  H     H_    0.236514 0.468355 0.202217 0.000000
H338  H     H_    0.277488 0.398967 0.184298 0.000000
H339  H     H_    0.209984 0.335332 0.209361 0.000000
H340  H     H_    0.120114 0.343999 0.260608 0.000000
H341  H     H_    0.116646 0.482122 0.394052 0.000000
H342  H     H_    0.021248 0.458787 0.440720 0.000000
H343  H     H_    0.940766 0.397654 0.424416 0.000000
H344  H     H_    0.946895 0.364333 0.357817 0.000000
Br44  Br    Br    0.840288 0.299864 0.222457 0.000000
C560  C     C_R   0.847069 0.323511 0.174059 0.000000
C561  C     C_R   0.846692 0.292871 0.145120 0.000000
C562  C     C_R   0.815798 0.299126 0.110729 0.000000
C563  C     C_R   0.783426 0.335948 0.105862 0.000000
C564  C     C_R   0.786515 0.366991 0.134206 0.000000
C565  C     C_R   0.823788 0.363365 0.167521 0.000000
C566  C     C_R   0.828606 0.401248 0.194311 0.000000
N87   N     N_R   0.788703 0.435705 0.187353 0.000000
C567  C     C_R   0.798247 0.459268 0.219875 0.000000
C568  C     C_R   0.764628 0.494739 0.230907 0.000000
C569  C     C_R   0.790265 0.517597 0.262611 0.000000
C570  C     C_R   0.854858 0.508516 0.277865 0.000000
C571  C     C_R   0.886761 0.471956 0.266659 0.000000
C572  C     C_R   0.850617 0.444830 0.241270 0.000000
N88   N     N_R   0.870585 0.407067 0.227389 0.000000
H345  H     H_    0.861993 0.261652 0.151509 0.000000
H346  H     H_    0.809522 0.273455 0.089697 0.000000
H347  H     H_    0.752324 0.340066 0.080625 0.000000
H348  H     H_    0.753860 0.392718 0.131173 0.000000
H349  H     H_    0.721317 0.504731 0.214688 0.000000
H350  H     H_    0.761846 0.543399 0.274934 0.000000
H351  H     H_    0.876739 0.528011 0.301163 0.000000
H352  H     H_    0.936524 0.464255 0.279048 0.000000
Br45  Br    Br    0.468972 0.177589 0.724232 0.000000
C573  C     C_R   0.542174 0.144545 0.739352 0.000000
C574  C     C_R   0.566791 0.109670 0.720403 0.000000
C575  C     C_R   0.628669 0.094364 0.731603 0.000000
C576  C     C_R   0.664157 0.112332 0.762829 0.000000
C577  C     C_R   0.637513 0.146223 0.782368 0.000000
C578  C     C_R   0.578871 0.163131 0.768134 0.000000
C579  C     C_R   0.555963 0.203514 0.779720 0.000000
N89   N     N_R   0.595204 0.241111 0.770542 0.000000
C580  C     C_R   0.559430 0.268622 0.792761 0.000000
C581  C     C_R   0.583601 0.309481 0.801069 0.000000
C582  C     C_R   0.553676 0.330182 0.832411 0.000000
C583  C     C_R   0.501514 0.309236 0.854884 0.000000
C584  C     C_R   0.474398 0.268886 0.844420 0.000000
C585  C     C_R   0.502612 0.249016 0.812611 0.000000
N90   N     N_R   0.494305 0.207374 0.802805 0.000000
H353  H     H_    0.542990 0.096347 0.694576 0.000000
H354  H     H_    0.648490 0.069041 0.714414 0.000000
H355  H     H_    0.715243 0.102302 0.770396 0.000000
H356  H     H_    0.665536 0.161210 0.806524 0.000000
H357  H     H_    0.629405 0.323439 0.785885 0.000000
H358  H     H_    0.574151 0.361679 0.840882 0.000000
H359  H     H_    0.482495 0.324454 0.881165 0.000000
H360  H     H_    0.436530 0.252363 0.862727 0.000000
Br46  Br    Br    0.770661 0.333813 0.696274 0.000000
C586  C     C_R   0.825592 0.316432 0.655050 0.000000
C587  C     C_R   0.861925 0.348696 0.635606 0.000000
C588  C     C_R   0.881103 0.342814 0.597863 0.000000
C589  C     C_R   0.863511 0.304480 0.580384 0.000000
C590  C     C_R   0.835831 0.270763 0.601522 0.000000
C591  C     C_R   0.816301 0.275819 0.639582 0.000000
C592  C     C_R   0.795775 0.237921 0.663001 0.000000
N91   N     N_R   0.756541 0.239466 0.698304 0.000000
C593  C     C_R   0.775723 0.204859 0.714485 0.000000
C594  C     C_R   0.766815 0.197779 0.752639 0.000000
C595  C     C_R   0.809799 0.170032 0.768370 0.000000
C596  C     C_R   0.864403 0.154190 0.746047 0.000000
C597  C     C_R   0.872301 0.162677 0.707520 0.000000
C598  C     C_R   0.822273 0.183902 0.691461 0.000000
N92   N     N_R   0.832576 0.200869 0.657127 0.000000
H361  H     H_    0.866181 0.380236 0.648253 0.000000
H362  H     H_    0.905204 0.368658 0.581482 0.000000
H363  H     H_    0.877796 0.300093 0.550460 0.000000
H364  H     H_    0.827976 0.240623 0.587768 0.000000
H365  H     H_    0.730177 0.215092 0.770040 0.000000
H366  H     H_    0.804374 0.163099 0.798460 0.000000
H367  H     H_    0.901806 0.135197 0.759240 0.000000
H368  H     H_    0.919375 0.156893 0.690325 0.000000
Br47  Br    Br    0.608150 0.996819 0.759038 0.000000
C599  C     C_R   0.645612 0.997098 0.808880 0.000000
C600  C     C_R   0.692129 0.028104 0.825048 0.000000
C601  C     C_R   0.710317 0.027052 0.863130 0.000000
C602  C     C_R   0.680084 0.995641 0.885520 0.000000
C603  C     C_R   0.635773 0.964214 0.868941 0.000000
C604  C     C_R   0.621851 0.963844 0.829773 0.000000
C605  C     C_R   0.579605 0.928742 0.811030 0.000000
N93   N     N_R   0.512452 0.922990 0.829091 0.000000
C606  C     C_R   0.521474 0.888330 0.848914 0.000000
C607  C     C_R   0.493914 0.881604 0.885286 0.000000
C608  C     C_R   0.524211 0.852554 0.907628 0.000000
C609  C     C_R   0.577210 0.828335 0.892449 0.000000
C610  C     C_R   0.607076 0.836937 0.856740 0.000000
C611  C     C_R   0.582158 0.869500 0.836239 0.000000
N94   N     N_R   0.616269 0.891216 0.806753 0.000000
H369  H     H_    0.715079 0.053517 0.808747 0.000000
H370  H     H_    0.746442 0.051540 0.875558 0.000000
H371  H     H_    0.692257 0.995042 0.915766 0.000000
H372  H     H_    0.614897 0.939160 0.887021 0.000000
H373  H     H_    0.456806 0.902586 0.898085 0.000000
H374  H     H_    0.508064 0.849285 0.937486 0.000000
H375  H     H_    0.599375 0.805001 0.909847 0.000000
H376  H     H_    0.652439 0.820200 0.847218 0.000000
Br48  Br    Br    0.563235 0.886090 0.734272 0.000000
C612  C     C_R   0.537005 0.827747 0.747733 0.000000
C613  C     C_R   0.562456 0.805417 0.777284 0.000000
C614  C     C_R   0.544339 0.763273 0.781341 0.000000
C615  C     C_R   0.524394 0.740608 0.749084 0.000000
C616  C     C_R   0.526661 0.761708 0.715205 0.000000
C617  C     C_R   0.531209 0.805822 0.714883 0.000000
C618  C     C_R   0.583731 0.825947 0.690860 0.000000
N95   N     N_R   0.580394 0.815205 0.651713 0.000000
C619  C     C_R   0.645669 0.798212 0.647081 0.000000
C620  C     C_R   0.671580 0.774966 0.616248 0.000000
C621  C     C_R   0.723420 0.746867 0.623053 0.000000
C622  C     C_R   0.754940 0.746552 0.658797 0.000000
C623  C     C_R   0.738105 0.776178 0.687132 0.000000
C624  C     C_R   0.684280 0.801848 0.680679 0.000000
N96   N     N_R   0.651235 0.824774 0.707977 0.000000
H377  H     H_    0.613794 0.815449 0.787888 0.000000
H378  H     H_    0.560500 0.747095 0.806260 0.000000
H379  H     H_    0.518566 0.706502 0.749078 0.000000
H380  H     H_    0.523786 0.742637 0.689692 0.000000
H381  H     H_    0.647709 0.774757 0.588435 0.000000
H382  H     H_    0.740093 0.725433 0.600169 0.000000
H383  H     H_    0.795283 0.724525 0.663764 0.000000
H384  H     H_    0.761574 0.777330 0.714880 0.000000
Br49  Br    Br    0.723316 0.888782 0.628192 0.000000
C625  C     C_R   0.799824 0.854715 0.635864 0.000000
C626  C     C_R   0.822920 0.823103 0.611582 0.000000
C627  C     C_R   0.879807 0.800660 0.621047 0.000000
C628  C     C_R   0.916318 0.812071 0.653806 0.000000
C629  C     C_R   0.890684 0.842693 0.678609 0.000000
C630  C     C_R   0.829564 0.862021 0.670247 0.000000
C631  C     C_R   0.809977 0.899994 0.690460 0.000000
N97   N     N_R   0.850962 0.936546 0.681565 0.000000
C632  C     C_R   0.847869 0.956658 0.716566 0.000000
C633  C     C_R   0.892350 0.988678 0.729515 0.000000
C634  C     C_R   0.888770 0.001608 0.768050 0.000000
C635  C     C_R   0.837241 0.983353 0.792494 0.000000
C636  C     C_R   0.792596 0.950270 0.779088 0.000000
C637  C     C_R   0.800946 0.936778 0.741758 0.000000
N98   N     N_R   0.773192 0.900704 0.726525 0.000000
H385  H     H_    0.793694 0.813047 0.586914 0.000000
H386  H     H_    0.896574 0.775007 0.602366 0.000000
H387  H     H_    0.964531 0.796752 0.660090 0.000000
H388  H     H_    0.918168 0.850959 0.704761 0.000000
H389  H     H_    0.927534 0.002960 0.708705 0.000000
H390  H     H_    0.923132 0.027882 0.778781 0.000000
H391  H     H_    0.832223 0.995205 0.821778 0.000000
H392  H     H_    0.752936 0.934922 0.797118 0.000000
Br50  Br    Br    0.008538 0.722563 0.389250 0.000000
C638  C     C_R   0.999841 0.672922 0.356468 0.000000
C639  C     C_R   0.953001 0.640611 0.368591 0.000000
C640  C     C_R   0.936340 0.606843 0.343966 0.000000
C641  C     C_R   0.977117 0.601295 0.310790 0.000000
C642  C     C_R   0.029199 0.631425 0.300666 0.000000
C643  C     C_R   0.034430 0.669459 0.320547 0.000000
C644  C     C_R   0.080578 0.704593 0.305912 0.000000
N99   N     N_R   0.050059 0.742131 0.296089 0.000000
C645  C     C_R   0.095153 0.771033 0.314088 0.000000
C646  C     C_R   0.087544 0.813338 0.318974 0.000000
C647  C     C_R   0.132535 0.836086 0.344453 0.000000
C648  C     C_R   0.183609 0.816216 0.364347 0.000000
C649  C     C_R   0.193562 0.773977 0.356939 0.000000
C650  C     C_R   0.150011 0.752616 0.330898 0.000000
N100  N     N_R   0.146706 0.711044 0.323322 0.000000
H393  H     H_    0.923858 0.643850 0.395748 0.000000
H394  H     H_    0.894156 0.583580 0.351927 0.000000
H395  H     H_    0.969876 0.573169 0.292737 0.000000
H396  H     H_    0.061896 0.625929 0.275544 0.000000
H397  H     H_    0.046586 0.827836 0.304206 0.000000
H398  H     H_    0.128452 0.869539 0.349071 0.000000
H399  H     H_    0.216659 0.834061 0.385049 0.000000
H400  H     H_    0.230768 0.757423 0.372887 0.000000
Br51  Br    Br    0.771409 0.769687 0.109811 0.000000
C651  C     C_R   0.820551 0.803805 0.146302 0.000000
C652  C     C_R   0.815914 0.846435 0.141126 0.000000
C653  C     C_R   0.845469 0.876047 0.166367 0.000000
C654  C     C_R   0.875058 0.862563 0.198793 0.000000
C655  C     C_R   0.879330 0.819996 0.204419 0.000000
C656  C     C_R   0.854399 0.789125 0.178048 0.000000
C657  C     C_R   0.855407 0.743694 0.189179 0.000000
N101  N     N_R   0.809858 0.710123 0.174330 0.000000
C658  C     C_R   0.808113 0.684164 0.203800 0.000000
C659  C     C_R   0.759303 0.651262 0.209494 0.000000
C660  C     C_R   0.774478 0.622384 0.236136 0.000000
C661  C     C_R   0.835739 0.628469 0.257422 0.000000
C662  C     C_R   0.879011 0.665143 0.254090 0.000000
C663  C     C_R   0.860323 0.694602 0.229068 0.000000
N102  N     N_R   0.890847 0.733412 0.222511 0.000000
H401  H     H_    0.785180 0.856608 0.117575 0.000000
H402  H     H_    0.840280 0.909317 0.162318 0.000000
H403  H     H_    0.891994 0.885566 0.220755 0.000000
H404  H     H_    0.899499 0.811563 0.231151 0.000000
H405  H     H_    0.712394 0.646674 0.192060 0.000000
H406  H     H_    0.740123 0.594111 0.238430 0.000000
H407  H     H_    0.848526 0.604925 0.277262 0.000000
H408  H     H_    0.926985 0.669666 0.269935 0.000000
Br52  Br    Br    0.464050 0.989786 0.576395 0.000000
C664  C     C_R   0.428653 0.949431 0.538288 0.000000
C665  C     C_R   0.367434 0.960308 0.520827 0.000000
C666  C     C_R   0.332442 0.932827 0.495457 0.000000
C667  C     C_R   0.353434 0.892409 0.491516 0.000000
C668  C     C_R   0.414949 0.881015 0.508936 0.000000
C669  C     C_R   0.457786 0.910663 0.528664 0.000000
C670  C     C_R   0.527607 0.898863 0.543086 0.000000
N103  N     N_R   0.586014 0.929286 0.539640 0.000000
C671  C     C_R   0.601709 0.936181 0.576829 0.000000
C672  C     C_R   0.635895 0.972224 0.591628 0.000000
C673  C     C_R   0.625101 0.980907 0.630366 0.000000
C674  C     C_R   0.586234 0.952668 0.653716 0.000000
C675  C     C_R   0.555244 0.915347 0.638519 0.000000
C676  C     C_R   0.563454 0.907976 0.599833 0.000000
N104  N     N_R   0.523033 0.879710 0.578991 0.000000
H409  H     H_    0.346782 0.990869 0.527259 0.000000
H410  H     H_    0.284947 0.941747 0.481369 0.000000
H411  H     H_    0.321599 0.870247 0.473933 0.000000
H412  H     H_    0.431915 0.849332 0.505616 0.000000
H413  H     H_    0.661952 0.995579 0.573129 0.000000
H414  H     H_    0.643993 0.010970 0.642315 0.000000
H415  H     H_    0.577743 0.960895 0.683666 0.000000
H416  H     H_    0.519290 0.895024 0.655425 0.000000
Br53  Br    Br    0.833038 0.072360 0.541091 0.000000
C677  C     C_R   0.821140 0.082220 0.488238 0.000000
C678  C     C_R   0.882004 0.090567 0.465520 0.000000
C679  C     C_R   0.877455 0.091903 0.426053 0.000000
C680  C     C_R   0.811776 0.084866 0.409178 0.000000
C681  C     C_R   0.750941 0.077164 0.431835 0.000000
C682  C     C_R   0.754701 0.076401 0.471529 0.000000
C683  C     C_R   0.686348 0.072118 0.493477 0.000000
N105  N     N_R   0.650385 0.031364 0.496517 0.000000
C684  C     C_R   0.581995 0.041177 0.491476 0.000000
C685  C     C_R   0.524588 0.012721 0.485735 0.000000
C686  C     C_R   0.463654 0.026407 0.469453 0.000000
C687  C     C_R   0.460308 0.068109 0.460079 0.000000
C688  C     C_R   0.517296 0.096800 0.467459 0.000000
C689  C     C_R   0.577046 0.083473 0.485244 0.000000
N106  N     N_R   0.640737 0.105934 0.490956 0.000000
H417  H     H_    0.933962 0.094673 0.478717 0.000000
H418  H     H_    0.925427 0.097853 0.408414 0.000000
H419  H     H_    0.807850 0.085366 0.378186 0.000000
H420  H     H_    0.699746 0.071225 0.418203 0.000000
H421  H     H_    0.530521 0.979547 0.488967 0.000000
H422  H     H_    0.420378 0.004017 0.461197 0.000000
H423  H     H_    0.413542 0.078089 0.446004 0.000000
H424  H     H_    0.514552 0.128866 0.458587 0.000000
Br54  Br    Br    0.664911 0.847365 0.545648 0.000000
C690  C     C_R   0.759543 0.848051 0.528610 0.000000
C691  C     C_R   0.779462 0.809320 0.514164 0.000000
C692  C     C_R   0.850024 0.802530 0.506358 0.000000
C693  C     C_R   0.899275 0.836189 0.508372 0.000000
C694  C     C_R   0.878741 0.875337 0.520673 0.000000
C695  C     C_R   0.810238 0.881368 0.535796 0.000000
C696  C     C_R   0.795369 0.923855 0.554399 0.000000
N107  N     N_R   0.767165 0.950414 0.528009 0.000000
C697  C     C_R   0.825865 0.975188 0.519864 0.000000
C698  C     C_R   0.842182 0.989925 0.484043 0.000000
C699  C     C_R   0.913496 0.999750 0.474188 0.000000
C700  C     C_R   0.966771 0.993782 0.499945 0.000000
C701  C     C_R   0.948921 0.978310 0.535819 0.000000
C702  C     C_R   0.878111 0.971084 0.546300 0.000000
N108  N     N_R   0.855892 0.943314 0.573194 0.000000
H425  H     H_    0.739289 0.783343 0.511556 0.000000
H426  H     H_    0.866141 0.771819 0.496652 0.000000
H427  H     H_    0.954130 0.832483 0.498739 0.000000
H428  H     H_    0.920365 0.900086 0.519964 0.000000
H429  H     H_    0.800187 0.991734 0.463716 0.000000
H430  H     H_    0.928135 0.010189 0.445588 0.000000
H431  H     H_    0.022553 0.998103 0.490855 0.000000
H432  H     H_    0.988831 0.964137 0.551954 0.000000
Br55  Br    Br    0.363601 0.506409 0.193437 0.000000
C703  C     C_R   0.436536 0.492587 0.225536 0.000000
C704  C     C_R   0.500969 0.513596 0.216970 0.000000
C705  C     C_R   0.563996 0.499615 0.228098 0.000000
C706  C     C_R   0.563065 0.462471 0.246723 0.000000
C707  C     C_R   0.498094 0.442526 0.257930 0.000000
C708  C     C_R   0.432960 0.459148 0.250339 0.000000
C709  C     C_R   0.368225 0.431527 0.259227 0.000000
N109  N     N_R   0.311308 0.437667 0.286885 0.000000
C710  C     C_R   0.288248 0.396921 0.292177 0.000000
C711  C     C_R   0.239750 0.381478 0.319318 0.000000
C712  C     C_R   0.217054 0.339094 0.317791 0.000000
C713  C     C_R   0.249925 0.311922 0.291957 0.000000
C714  C     C_R   0.307377 0.327308 0.269532 0.000000
C715  C     C_R   0.323498 0.369773 0.269061 0.000000
N110  N     N_R   0.374175 0.390019 0.247611 0.000000
H433  H     H_    0.502275 0.540231 0.199356 0.000000
H434  H     H_    0.612814 0.517141 0.220214 0.000000
H435  H     H_    0.613398 0.449464 0.252342 0.000000
H436  H     H_    0.498727 0.413169 0.272323 0.000000
H437  H     H_    0.222224 0.401278 0.342231 0.000000
H438  H     H_    0.176903 0.326846 0.338232 0.000000
H439  H     H_    0.235600 0.278376 0.292166 0.000000
H440  H     H_    0.341660 0.306813 0.254566 0.000000
Br56  Br    Br    0.685250 0.354676 0.232040 0.000000
C716  C     C_R   0.657553 0.330066 0.184360 0.000000
C717  C     C_R   0.675979 0.290072 0.172964 0.000000
C718  C     C_R   0.656935 0.273212 0.137373 0.000000
C719  C     C_R   0.623676 0.297595 0.112189 0.000000
C720  C     C_R   0.605930 0.337714 0.123617 0.000000
C721  C     C_R   0.621782 0.353705 0.160057 0.000000
C722  C     C_R   0.595096 0.394301 0.172417 0.000000
N111  N     N_R   0.521288 0.393651 0.180725 0.000000
C723  C     C_R   0.502223 0.425442 0.159683 0.000000
C724  C     C_R   0.434049 0.432078 0.149549 0.000000
C725  C     C_R   0.425063 0.459870 0.120636 0.000000
C726  C     C_R   0.483877 0.478170 0.101485 0.000000
C727  C     C_R   0.552663 0.472515 0.113409 0.000000
C728  C     C_R   0.560744 0.446584 0.143189 0.000000
N112  N     N_R   0.622244 0.430118 0.152829 0.000000
H441  H     H_    0.704794 0.271532 0.191985 0.000000
H442  H     H_    0.670953 0.241718 0.128653 0.000000
H443  H     H_    0.611706 0.285196 0.083574 0.000000
H444  H     H_    0.578553 0.356561 0.104125 0.000000
H445  H     H_    0.388949 0.415276 0.163079 0.000000
H446  H     H_    0.371873 0.466047 0.111637 0.000000
H447  H     H_    0.474671 0.495759 0.076426 0.000000
H448  H     H_    0.599042 0.484086 0.097290 0.000000
Br57  Br    Br    0.328968 0.261624 0.965836 0.000000
C729  C     C_R   0.398303 0.226133 0.947723 0.000000
C730  C     C_R   0.464934 0.235825 0.963325 0.000000
C731  C     C_R   0.525596 0.220193 0.947021 0.000000
C732  C     C_R   0.519583 0.196179 0.913768 0.000000
C733  C     C_R   0.453176 0.185713 0.898555 0.000000
C734  C     C_R   0.389686 0.198137 0.916205 0.000000
C735  C     C_R   0.321544 0.181708 0.896895 0.000000
N113  N     N_R   0.250333 0.173288 0.912877 0.000000
C736  C     C_R   0.221894 0.148932 0.883629 0.000000
C737  C     C_R   0.156552 0.126726 0.883429 0.000000
C738  C     C_R   0.136381 0.103367 0.851009 0.000000
C739  C     C_R   0.179448 0.105152 0.818212 0.000000
C740  C     C_R   0.247547 0.124115 0.819686 0.000000
C741  C     C_R   0.267149 0.145725 0.852783 0.000000
N114  N     N_R   0.330127 0.166573 0.858816 0.000000
H449  H     H_    0.469685 0.257842 0.987677 0.000000
H450  H     H_    0.577660 0.228402 0.959127 0.000000
H451  H     H_    0.566683 0.184275 0.899705 0.000000
H452  H     H_    0.453187 0.166857 0.872255 0.000000
H453  H     H_    0.120780 0.127199 0.907226 0.000000
H454  H     H_    0.084856 0.085691 0.850539 0.000000
H455  H     H_    0.161700 0.089322 0.792172 0.000000
H456  H     H_    0.284015 0.121558 0.795660 0.000000
Br58  Br    Br    0.075451 0.088318 0.061197 0.000000
C742  C     C_R   0.177141 0.088010 0.054166 0.000000
C743  C     C_R   0.213447 0.095406 0.088174 0.000000
C744  C     C_R   0.286881 0.096495 0.088980 0.000000
C745  C     C_R   0.324795 0.090872 0.055199 0.000000
C746  C     C_R   0.289137 0.084079 0.021076 0.000000
C747  C     C_R   0.215263 0.081374 0.019075 0.000000
C748  C     C_R   0.179322 0.070726 0.981173 0.000000
N115  N     N_R   0.148408 0.028717 0.977496 0.000000
C749  C     C_R   0.078945 0.037083 0.977907 0.000000
C750  C     C_R   0.023085 0.010276 0.990204 0.000000
C751  C     C_R   0.954818 0.024779 0.992386 0.000000
C752  C     C_R   0.944872 0.066187 0.984024 0.000000
C753  C     C_R   0.003076 0.093173 0.974204 0.000000
C754  C     C_R   0.070077 0.078528 0.970651 0.000000
N116  N     N_R   0.133946 0.101619 0.968881 0.000000
H457  H     H_    0.183169 0.100254 0.114757 0.000000
H458  H     H_    0.314443 0.102096 0.115864 0.000000
H459  H     H_    0.382841 0.092168 0.055227 0.000000
H460  H     H_    0.320527 0.080335 0.995795 0.000000
H461  H     H_    0.033110 0.978357 0.996619 0.000000
H462  H     H_    0.909254 0.004163 0.000880 0.000000
H463  H     H_    0.891832 0.077972 0.986781 0.000000
H464  H     H_    0.996755 0.125425 0.971527 0.000000
Br59  Br    Br    0.871016 0.597853 0.052190 0.000000
C755  C     C_R   0.936342 0.639534 0.072896 0.000000
C756  C     C_R   0.007666 0.636753 0.077939 0.000000
C757  C     C_R   0.044764 0.668946 0.097009 0.000000
C758  C     C_R   0.009490 0.703507 0.111008 0.000000
C759  C     C_R   0.939670 0.707080 0.103171 0.000000
C760  C     C_R   0.906762 0.675743 0.081657 0.000000
C761  C     C_R   0.849644 0.683236 0.058443 0.000000
N117  N     N_R   0.857584 0.681857 0.018802 0.000000
C762  C     C_R   0.789076 0.687227 0.008649 0.000000
C763  C     C_R   0.758207 0.683105 0.973199 0.000000
C764  C     C_R   0.686160 0.690801 0.970685 0.000000
C765  C     C_R   0.649377 0.707761 0.001885 0.000000
C766  C     C_R   0.680806 0.710882 0.037330 0.000000
C767  C     C_R   0.746660 0.694590 0.040659 0.000000
N118  N     N_R   0.782239 0.688415 0.073108 0.000000
H465  H     H_    0.034864 0.610924 0.065736 0.000000
H466  H     H_    0.102131 0.667980 0.097375 0.000000
H467  H     H_    0.037267 0.731990 0.120757 0.000000
H468  H     H_    0.915433 0.736607 0.108672 0.000000
H469  H     H_    0.786978 0.672683 0.948140 0.000000
H470  H     H_    0.658811 0.685564 0.943804 0.000000
H471  H     H_    0.595342 0.717290 0.998737 0.000000
H472  H     H_    0.653587 0.725323 0.061549 0.000000
Br60  Br    Br    0.060495 0.559930 0.906859 0.000000
C768  C     C_R   0.119222 0.566064 0.951621 0.000000
C769  C     C_R   0.192888 0.568648 0.945973 0.000000
C770  C     C_R   0.237720 0.572207 0.976879 0.000000
C771  C     C_R   0.208889 0.573508 0.013726 0.000000
C772  C     C_R   0.135423 0.570720 0.019639 0.000000
C773  C     C_R   0.089510 0.567210 0.988819 0.000000
C774  C     C_R   0.010503 0.565574 0.994096 0.000000
N119  N     N_R   0.973452 0.601912 0.985221 0.000000
C775  C     C_R   0.916371 0.582562 0.967713 0.000000
C776  C     C_R   0.868400 0.601872 0.946474 0.000000
C777  C     C_R   0.814794 0.577116 0.928357 0.000000
C778  C     C_R   0.812946 0.533508 0.930401 0.000000
C779  C     C_R   0.864540 0.514613 0.950633 0.000000
C780  C     C_R   0.913928 0.539544 0.970365 0.000000
N120  N     N_R   0.970193 0.526037 0.989004 0.000000
H473  H     H_    0.215609 0.567512 0.917019 0.000000
H474  H     H_    0.295360 0.574044 0.972241 0.000000
H475  H     H_    0.243936 0.576085 0.038124 0.000000
H476  H     H_    0.115166 0.570465 0.048663 0.000000
H477  H     H_    0.876065 0.635157 0.942359 0.000000
H478  H     H_    0.776273 0.591589 0.911144 0.000000
H479  H     H_    0.772928 0.514227 0.914705 0.000000
H480  H     H_    0.870434 0.481414 0.948817 0.000000
Br61  Br    Br    0.373481 0.583015 0.412975 0.000000
C781  C     C_R   0.430032 0.618176 0.381025 0.000000
C782  C     C_R   0.480879 0.598793 0.360294 0.000000
C783  C     C_R   0.500930 0.612278 0.324630 0.000000
C784  C     C_R   0.471016 0.646894 0.311588 0.000000
C785  C     C_R   0.428902 0.670693 0.335415 0.000000
C786  C     C_R   0.409351 0.656520 0.370764 0.000000
C787  C     C_R   0.359439 0.678367 0.394774 0.000000
N121  N     N_R   0.290480 0.682793 0.382476 0.000000
C788  C     C_R   0.253771 0.685677 0.415817 0.000000
C789  C     C_R   0.180345 0.682842 0.419594 0.000000
C790  C     C_R   0.150215 0.678241 0.455921 0.000000
C791  C     C_R   0.194147 0.674965 0.487001 0.000000
C792  C     C_R   0.268490 0.678253 0.482577 0.000000
C793  C     C_R   0.298600 0.684554 0.446498 0.000000
N122  N     N_R   0.368593 0.682602 0.434274 0.000000
H481  H     H_    0.498825 0.570792 0.371552 0.000000
H482  H     H_    0.539001 0.596023 0.306808 0.000000
H483  H     H_    0.482831 0.656699 0.283141 0.000000
H484  H     H_    0.413042 0.700638 0.326520 0.000000
H485  H     H_    0.147246 0.681702 0.394593 0.000000
H486  H     H_    0.092475 0.674937 0.459864 0.000000
H487  H     H_    0.169837 0.668878 0.515000 0.000000
H488  H     H_    0.299978 0.675278 0.507268 0.000000
Br62  Br    Br    0.332547 0.784311 0.478657 0.000000
C794  C     C_R   0.312170 0.760998 0.526847 0.000000
C795  C     C_R   0.240867 0.754088 0.538159 0.000000
C796  C     C_R   0.222165 0.728810 0.568777 0.000000
C797  C     C_R   0.274411 0.709661 0.587385 0.000000
C798  C     C_R   0.345307 0.717258 0.576508 0.000000
C799  C     C_R   0.365538 0.744439 0.547255 0.000000
C800  C     C_R   0.443030 0.750113 0.537921 0.000000
N123  N     N_R   0.471938 0.715073 0.519087 0.000000
C801  C     C_R   0.519650 0.704018 0.544669 0.000000
C802  C     C_R   0.550613 0.665955 0.546342 0.000000
C803  C     C_R   0.582594 0.655377 0.579642 0.000000
C804  C     C_R   0.579414 0.681968 0.611519 0.000000
C805  C     C_R   0.548387 0.719892 0.608830 0.000000
C806  C     C_R   0.524038 0.732308 0.574585 0.000000
N124  N     N_R   0.483871 0.765546 0.569268 0.000000
H489  H     H_    0.199318 0.766482 0.521491 0.000000
H490  H     H_    0.166549 0.721099 0.576311 0.000000
H491  H     H_    0.259745 0.687954 0.610023 0.000000
H492  H     H_    0.385134 0.700475 0.590613 0.000000
H493  H     H_    0.546991 0.643116 0.523681 0.000000
H494  H     H_    0.606016 0.625286 0.581498 0.000000
H495  H     H_    0.600846 0.673161 0.638525 0.000000
H496  H     H_    0.545065 0.740286 0.632982 0.000000
Br63  Br    Br    0.640976 0.600503 0.388437 0.000000
C807  C     C_R   0.659500 0.584979 0.438948 0.000000
C808  C     C_R   0.731326 0.584611 0.447564 0.000000
C809  C     C_R   0.752260 0.579364 0.484641 0.000000
C810  C     C_R   0.700977 0.574899 0.513473 0.000000
C811  C     C_R   0.629196 0.573615 0.504833 0.000000
C812  C     C_R   0.606675 0.577598 0.467503 0.000000
C813  C     C_R   0.527605 0.573876 0.462295 0.000000
N125  N     N_R   0.488952 0.610675 0.470919 0.000000
C814  C     C_R   0.438144 0.594236 0.495347 0.000000
C815  C     C_R   0.393286 0.616680 0.518531 0.000000
C816  C     C_R   0.347219 0.595542 0.544016 0.000000
C817  C     C_R   0.349747 0.552445 0.547186 0.000000
C818  C     C_R   0.398425 0.530513 0.524984 0.000000
C819  C     C_R   0.440057 0.551623 0.498030 0.000000
N126  N     N_R   0.491889 0.535650 0.475290 0.000000
H497  H     H_    0.771720 0.590131 0.425085 0.000000
H498  H     H_    0.808667 0.580068 0.491212 0.000000
H499  H     H_    0.716974 0.572203 0.542937 0.000000
H500  H     H_    0.589813 0.569934 0.528022 0.000000
H501  H     H_    0.397008 0.650181 0.518270 0.000000
H502  H     H_    0.311289 0.612857 0.562592 0.000000
H503  H     H_    0.315090 0.536405 0.568043 0.000000
H504  H     H_    0.406189 0.498197 0.530115 0.000000
Br64  Br    Br    0.364825 0.526224 0.318361 0.000000
C820  C     C_R   0.439686 0.499550 0.334854 0.000000
C821  C     C_R   0.501822 0.512780 0.316186 0.000000
C822  C     C_R   0.566279 0.512564 0.332848 0.000000
C823  C     C_R   0.566957 0.501305 0.370236 0.000000
C824  C     C_R   0.504062 0.489182 0.388958 0.000000
C825  C     C_R   0.438595 0.485152 0.371418 0.000000
C826  C     C_R   0.371570 0.474438 0.394865 0.000000
N127  N     N_R   0.300510 0.467242 0.381660 0.000000
C827  C     C_R   0.264871 0.457551 0.415014 0.000000
C828  C     C_R   0.203253 0.432298 0.419986 0.000000
C829  C     C_R   0.172745 0.429454 0.456460 0.000000
C830  C     C_R   0.208305 0.448360 0.487289 0.000000
C831  C     C_R   0.280061 0.460719 0.482625 0.000000
C832  C     C_R   0.308064 0.463530 0.445788 0.000000
N128  N     N_R   0.377293 0.468923 0.434183 0.000000
H505  H     H_    0.497854 0.530139 0.290548 0.000000
H506  H     H_    0.613353 0.527045 0.318582 0.000000
H507  H     H_    0.615522 0.506273 0.386351 0.000000
H508  H     H_    0.507818 0.488469 0.418633 0.000000
H509  H     H_    0.179089 0.414029 0.396897 0.000000
H510  H     H_    0.121808 0.411947 0.461057 0.000000
H511  H     H_    0.183412 0.447260 0.515655 0.000000
H512  H     H_    0.312089 0.466398 0.507377 0.000000

loop_
_geom_bond_atom_site_label_1
_geom_bond_atom_site_label_2
_geom_bond_distance
_geom_bond_site_symmetry_2
_ccdc_geom_bond_type
Zn1   N2    2.201 1_565  S
Zn1   N7    2.110 .      S
Zn1   N79   2.140 .      S
Zn1   N93   2.169 .      S
Zn2   N3    2.108 .      S
Zn2   N75   2.150 .      S
Zn2   N100  2.126 .      S
Zn2   N121  2.093 .      S
Zn3   N4    2.189 .      S
Zn3   N85   2.238 .      S
Zn3   N109  2.221 .      S
Zn3   N127  2.195 .      S
Zn4   N1    2.346 .      S
Zn4   N6    2.251 .      S
Zn4   N90   2.243 .      S
Zn4   N114  2.144 .      S
Zn5   N8    2.192 .      S
Zn5   N32   2.260 .      S
Zn5   N63   2.208 1_556  S
Zn5   N115  2.298 1_565  S
Zn6   N9    2.215 1_556  S
Zn6   N42   2.244 1_656  S
Zn6   N72   2.173 .      S
Zn6   N120  2.321 .      S
Zn7   N12   2.169 1_655  S
Zn7   N14   2.101 .      S
Zn7   N15   2.323 .      S
Zn7   N92   2.200 .      S
Zn8   N10   2.148 .      S
Zn8   N18   2.229 .      S
Zn8   N87   2.149 .      S
Zn8   N112  2.207 .      S
Zn9   N17   2.295 .      S
Zn9   N78   2.113 .      S
Zn9   N101  2.178 .      S
Zn9   N118  2.118 .      S
Zn10  N16   2.234 1_565  S
Zn10  N84   2.260 1_655  S
Zn10  N97   2.269 .      S
Zn10  N108  2.258 .      S
Zn11  N19   2.134 .      S
Zn11  N21   2.097 .      S
Zn11  N23   2.220 .      S
Zn11  N25   2.171 .      S
Zn12  N27   2.159 1_655  S
Zn12  N29   2.207 .      S
Zn12  N31   2.342 1_655  S
Zn12  N34   2.183 .      S
Zn13  N36   2.252 .      S
Zn13  N37   2.344 .      S
Zn13  N39   2.272 .      S
Zn13  N41   2.350 .      S
Zn14  N43   2.236 .      S
Zn14  N46   2.262 .      S
Zn14  N48   2.239 .      S
Zn14  N49   2.235 .      S
Zn15  N51   2.276 .      S
Zn15  N53   2.245 .      S
Zn15  N55   2.269 .      S
Zn15  N57   2.186 .      S
Zn16  N59   2.338 .      S
Zn16  N62   2.265 .      S
Zn16  N64   2.246 .      S
Zn16  N65   2.331 .      S
Zn17  N67   2.188 .      S
Zn17  N70   2.162 1_655  S
Zn17  N71   2.211 .      S
Zn17  N73   2.362 1_655  S
Zn18  N52   2.248 .      S
Zn18  N60   2.241 .      S
Zn18  N76   2.108 .      S
Zn18  N77   2.229 .      S
Zn19  N28   2.210 .      S
Zn19  N80   2.161 .      S
Zn19  N82   2.213 .      S
Zn19  N83   2.229 .      S
Zn20  N35   2.323 1_655  S
Zn20  N44   2.251 .      S
Zn20  N86   2.233 1_655  S
Zn20  N88   2.132 .      S
Zn21  N20   2.223 .      S
Zn21  N68   2.300 .      S
Zn21  N89   2.205 .      S
Zn21  N91   2.207 .      S
Zn22  N30   2.238 .      S
Zn22  N94   2.401 .      S
Zn22  N96   2.347 .      S
Zn22  N98   2.168 .      S
Zn23  N56   2.187 .      S
Zn23  N61   2.136 1_655  S
Zn23  N99   2.241 1_655  S
Zn23  N102  2.201 .      S
Zn24  N58   2.217 .      S
Zn24  N103  2.218 .      S
Zn24  N105  2.292 1_565  S
Zn24  N107  2.183 .      S
Zn25  N38   2.249 .      S
Zn25  N50   2.214 .      S
Zn25  N110  2.077 .      S
Zn25  N111  2.170 .      S
Zn26  N40   2.147 1_556  S
Zn26  N74   2.332 .      S
Zn26  N113  2.241 .      S
Zn26  N116  2.340 .      S
Zn27  N33   2.174 .      S
Zn27  N66   2.214 1_656  S
Zn27  N117  2.169 1_556  S
Zn27  N119  2.318 .      S
Zn28  N54   2.177 .      S
Zn28  N122  2.200 .      S
Zn28  N123  2.143 .      S
Zn28  N125  2.303 .      S
Zn29  N26   2.191 .      S
Zn29  N45   2.292 .      S
Zn29  N126  2.303 .      S
Zn29  N128  2.139 .      S
Zn30  N5    2.190 .      S
Zn30  N11   2.175 .      S
Zn30  N22   2.244 .      S
Zn30  N69   2.167 .      S
Zn31  N13   2.177 .      S
Zn31  N24   2.377 .      S
Zn31  N47   2.193 .      S
Zn31  N106  2.337 .      S
Zn32  N81   2.220 .      S
Zn32  N95   2.295 .      S
Zn32  N104  2.204 .      S
Zn32  N124  2.210 .      S
Br1   C1    1.886 .      S
C2    H1    1.081 .      S
C3    H2    1.079 .      S
C4    H3    1.075 .      S
C5    H4    1.077 .      S
C6    C7    1.443 .      S
C9    H5    1.046 .      S
C10   H6    1.081 .      S
C11   H7    1.077 .      S
C12   H8    1.077 .      S
N2    Zn1   2.201 1_545  S
Br2   C14   1.875 .      S
C15   H9    1.081 .      S
C16   H10   1.081 1_455  S
C17   H11   1.072 1_455  S
C18   H12   1.077 .      S
C19   C20   1.488 .      S
C22   H13   1.080 .      S
C23   H14   1.069 .      S
C24   H15   1.074 .      S
C25   H16   1.068 .      S
H10   C16   1.081 1_655  S
H11   C17   1.072 1_655  S
Br3   C27   1.842 .      S
C28   H17   1.081 .      S
C29   H18   1.080 .      S
C30   H19   1.062 .      S
C31   H20   1.059 .      S
C32   C33   1.489 .      S
C35   H21   1.064 .      S
C36   H22   1.075 .      S
C37   H23   1.081 .      S
C38   H24   1.062 .      S
Br4   C40   1.899 .      S
C41   H25   1.081 .      S
C42   H26   1.081 .      S
C43   H27   1.067 .      S
C44   H28   1.070 .      S
C45   C46   1.477 .      S
C48   H29   1.080 .      S
C49   H30   1.081 .      S
C50   H31   1.081 1_556  S
C51   H32   1.050 .      S
H31   C50   1.081 1_554  S
Br5   C53   1.878 .      S
C54   H33   1.057 .      S
C55   H34   1.078 .      S
C56   H35   1.055 .      S
C57   H36   1.063 .      S
C58   C59   1.410 .      S
N9    Zn6   2.215 1_554  S
C61   H37   1.054 .      S
C62   H38   1.079 .      S
C63   H39   1.080 .      S
C64   H40   1.067 .      S
Br6   C66   1.899 .      S
C67   H41   1.080 .      S
C68   H42   1.064 .      S
C69   H43   1.069 .      S
C70   H44   1.055 .      S
C71   C72   1.399 .      S
C74   H45   1.071 .      S
C75   H46   1.081 .      S
C76   H47   1.081 .      S
C77   H48   1.066 1_455  S
N12   Zn7   2.169 1_455  S
H48   C77   1.066 1_655  S
Br7   C79   1.864 .      S
C80   H49   1.073 .      S
C81   H50   1.079 .      S
C82   H51   1.065 .      S
C83   H52   1.066 .      S
C84   C85   1.435 .      S
C87   H53   1.080 .      S
C88   H54   1.081 .      S
C89   H55   1.081 1_655  S
C90   H56   1.075 1_655  S
H55   C89   1.081 1_455  S
H56   C90   1.075 1_455  S
Br8   C92   1.917 .      S
C93   H57   1.077 .      S
C94   H58   1.053 .      S
C95   H59   1.075 1_545  S
C96   H60   1.081 .      S
C97   C98   1.405 .      S
C100  H61   1.063 .      S
C101  H62   1.081 .      S
C102  H63   1.081 .      S
C103  H64   1.077 1_545  S
N16   Zn10  2.234 1_545  S
H59   C95   1.075 1_565  S
H64   C103  1.077 1_565  S
Br9   C105  1.891 .      S
C106  H65   1.081 .      S
C107  H66   1.081 1_554  S
C108  H67   1.080 1_554  S
C109  H68   1.071 .      S
C110  C111  1.466 .      S
C113  H69   1.063 .      S
C114  H70   1.056 .      S
C115  H71   1.077 .      S
C116  H72   1.065 .      S
H66   C107  1.081 1_556  S
H67   C108  1.080 1_556  S
Br10  C118  1.839 .      S
C119  H73   1.076 .      S
C120  H74   1.073 .      S
C121  H75   1.076 .      S
C122  H76   1.040 .      S
C123  C124  1.476 .      S
C126  H77   1.079 .      S
C127  H78   1.081 .      S
C128  H79   1.081 .      S
C129  H80   1.054 .      S
Br11  C131  1.902 .      S
C132  H81   1.081 .      S
C133  H82   1.081 .      S
C134  H83   1.081 .      S
C135  H84   1.077 .      S
C136  C137  1.480 .      S
C139  H85   1.080 .      S
C140  H86   1.076 .      S
C141  H87   1.080 .      S
C142  H88   1.040 .      S
Br12  C144  1.836 .      S
C145  H89   1.079 .      S
C146  H90   1.081 .      S
C147  H91   1.070 .      S
C148  H92   1.074 .      S
C149  C150  1.465 .      S
C152  H93   1.063 .      S
C153  H94   1.079 .      S
C154  H95   1.080 .      S
C155  H96   1.045 .      S
Br13  C157  1.899 .      S
C158  H97   1.080 .      S
C159  H98   1.081 .      S
C160  H99   1.081 .      S
C161  H100  1.079 .      S
C162  C163  1.488 .      S
C165  H101  1.061 .      S
C166  H102  1.081 .      S
C167  H103  1.079 .      S
C168  H104  1.067 .      S
Br14  C170  1.891 1_655  S
C170  Br14  1.891 1_455  S
C171  H105  1.069 1_455  S
C172  H106  1.080 .      S
C173  H107  1.079 .      S
C174  H108  1.062 .      S
C175  C176  1.466 .      S
N27   Zn12  2.159 1_455  S
C178  H109  1.079 1_455  S
C179  H110  1.081 .      S
C180  H111  1.081 .      S
C181  H112  1.070 .      S
H105  C171  1.069 1_655  S
H109  C178  1.079 1_655  S
Br15  C183  1.848 .      S
C184  H113  1.081 .      S
C185  H114  1.081 .      S
C186  H115  1.080 .      S
C187  H116  1.073 .      S
C188  C189  1.487 .      S
C191  H117  1.080 .      S
C192  H118  1.080 .      S
C193  H119  1.079 .      S
C194  H120  1.046 .      S
Br16  C196  1.802 .      S
C197  H121  1.078 .      S
C198  H122  1.069 .      S
C199  H123  1.080 1_556  S
C200  H124  1.050 .      S
C201  C202  1.475 .      S
N31   Zn12  2.342 1_455  S
C204  H125  1.048 .      S
C205  H126  1.076 .      S
C206  H127  1.081 1_565  S
C207  H128  1.069 .      S
H123  C199  1.080 1_554  S
H127  C206  1.081 1_545  S
Br17  C209  1.910 .      S
C210  H129  1.081 .      S
C211  H130  1.081 .      S
C212  H131  1.080 .      S
C213  H132  1.061 .      S
C214  C215  1.476 .      S
C217  H133  1.063 .      S
C218  H134  1.078 .      S
C219  H135  1.081 .      S
C220  H136  1.061 .      S
Br18  C222  1.823 1_655  S
C222  Br18  1.823 1_455  S
C223  H137  1.081 .      S
C224  H138  1.081 .      S
C225  H139  1.069 .      S
C226  H140  1.047 .      S
C227  C228  1.534 .      S
N35   Zn20  2.323 1_455  S
C230  H141  1.049 .      S
C231  H142  1.081 1_455  S
C232  H143  1.081 .      S
C233  H144  1.074 .      S
H142  C231  1.081 1_655  S
Br19  C235  1.901 .      S
C236  H145  1.079 .      S
C237  H146  1.081 .      S
C238  H147  1.077 .      S
C239  H148  1.066 .      S
C240  C241  1.492 .      S
C243  H149  1.064 .      S
C244  H150  1.081 .      S
C245  H151  1.081 .      S
C246  H152  1.075 .      S
Br20  C248  1.835 .      S
C249  H153  1.078 .      S
C250  H154  1.081 .      S
C251  H155  1.080 1_554  S
C252  H156  1.065 1_654  S
C253  C254  1.498 .      S
C256  H157  1.047 .      S
C257  H158  1.066 .      S
C258  H159  1.080 .      S
C259  H160  1.077 1_554  S
N40   Zn26  2.147 1_554  S
H155  C251  1.080 1_556  S
H156  C252  1.065 1_456  S
H160  C259  1.077 1_556  S
Br21  C261  1.842 1_455  S
C261  Br21  1.842 1_655  S
C262  H161  1.075 .      S
C263  H162  1.080 .      S
C264  H163  1.077 .      S
C265  H164  1.066 .      S
C266  C267  1.494 1_655  S
C267  C266  1.494 1_455  S
C269  H165  1.076 .      S
C270  H166  1.069 .      S
C271  H167  1.076 .      S
C272  H168  1.064 .      S
N42   Zn6   2.244 1_454  S
Br22  C274  1.867 .      S
C275  H169  1.043 .      S
C276  H170  1.081 .      S
C277  H171  1.072 .      S
C278  H172  1.042 .      S
C279  C280  1.476 .      S
C282  H173  1.060 .      S
C283  H174  1.081 .      S
C284  H175  1.081 .      S
C285  H176  1.080 .      S
Br23  C287  1.810 .      S
C288  H177  1.072 .      S
C289  H178  1.081 .      S
C290  H179  1.073 .      S
C291  H180  1.060 .      S
C292  C293  1.514 .      S
C295  H181  1.069 .      S
C296  H182  1.078 .      S
C297  H183  1.081 .      S
C298  H184  1.059 .      S
Br24  C300  1.828 .      S
C301  H185  1.078 .      S
C302  H186  1.080 .      S
C303  H187  1.067 .      S
C304  H188  1.054 .      S
C305  C306  1.487 .      S
C308  H189  1.065 .      S
C309  H190  1.081 .      S
C310  H191  1.081 .      S
C311  H192  1.065 .      S
Br25  C313  1.910 .      S
C314  H193  1.081 .      S
C315  H194  1.081 .      S
C316  H195  1.066 .      S
C317  H196  1.077 .      S
C318  C319  1.460 .      S
C321  H197  1.069 .      S
C322  H198  1.081 .      S
C323  H199  1.081 .      S
C324  H200  1.062 .      S
Br26  C326  1.846 .      S
C327  H201  1.078 .      S
C328  H202  1.078 .      S
C329  H203  1.077 .      S
C330  H204  1.033 .      S
C331  C332  1.521 .      S
C334  H205  1.075 .      S
C335  H206  1.081 .      S
C336  H207  1.081 .      S
C337  H208  1.080 .      S
Br27  C339  1.877 .      S
C340  H209  1.078 .      S
C341  H210  1.081 .      S
C342  H211  1.068 .      S
C343  H212  1.060 .      S
C344  C345  1.451 .      S
C347  H213  1.074 .      S
C348  H214  1.080 .      S
C349  H215  1.078 .      S
C350  H216  1.064 .      S
Br28  C352  1.861 .      S
C353  H217  1.081 .      S
C354  H218  1.081 1_655  S
C355  H219  1.076 1_655  S
C356  H220  1.079 .      S
C357  C358  1.486 .      S
C360  H221  1.036 .      S
C361  H222  1.076 .      S
C362  H223  1.066 .      S
C363  H224  1.056 .      S
H218  C354  1.081 1_455  S
H219  C355  1.076 1_455  S
Br29  C365  1.914 .      S
C366  H225  1.079 .      S
C367  H226  1.081 .      S
C368  H227  1.080 .      S
C369  H228  1.070 .      S
C370  C371  1.447 .      S
C373  H229  1.073 .      S
C374  H230  1.081 .      S
C375  H231  1.081 .      S
C376  H232  1.072 1_565  S
H232  C376  1.072 1_545  S
Br30  C378  1.935 .      S
C379  H233  1.081 .      S
C380  H234  1.081 .      S
C381  H235  1.081 .      S
C382  H236  1.080 .      S
C383  C384  1.473 .      S
C386  H237  1.059 .      S
C387  H238  1.081 .      S
C388  H239  1.081 .      S
C389  H240  1.064 .      S
Br31  C391  1.771 .      S
C392  H241  1.080 .      S
C393  H242  1.080 .      S
C394  H243  1.069 .      S
C395  H244  1.028 .      S
C396  C397  1.524 .      S
N61   Zn23  2.136 1_455  S
C399  H245  1.072 1_455  S
C400  H246  1.080 .      S
C401  H247  1.080 .      S
C402  H248  1.075 .      S
H245  C399  1.072 1_655  S
Br32  C404  1.906 .      S
C405  H249  1.081 .      S
C406  H250  1.081 .      S
C407  H251  1.079 .      S
C408  H252  1.071 1_554  S
C409  C410  1.465 .      S
N63   Zn5   2.208 1_554  S
C412  H253  1.075 1_565  S
C413  H254  1.081 .      S
C414  H255  1.081 .      S
C415  H256  1.052 .      S
H252  C408  1.071 1_556  S
H253  C412  1.075 1_545  S
Br33  C417  1.823 .      S
C418  H257  1.073 .      S
C419  H258  1.081 .      S
C420  H259  1.068 1_554  S
C421  H260  1.061 1_554  S
C422  C423  1.503 1_655  S
C423  C422  1.503 1_455  S
C425  H261  1.079 .      S
C426  H262  1.070 .      S
C427  H263  1.076 .      S
C428  H264  1.062 1_554  S
N66   Zn27  2.214 1_454  S
H259  C420  1.068 1_556  S
H260  C421  1.061 1_556  S
H264  C428  1.062 1_556  S
Br34  C430  1.882 .      S
C431  H265  1.081 .      S
C432  H266  1.081 .      S
C433  H267  1.081 .      S
C434  H268  1.068 .      S
C435  C436  1.487 .      S
C438  H269  1.080 .      S
C439  H270  1.080 .      S
C440  H271  1.075 .      S
C441  H272  1.048 .      S
Br35  C443  1.872 1_655  S
C443  Br35  1.872 1_455  S
C444  H273  1.057 .      S
C445  H274  1.072 .      S
C446  H275  1.062 .      S
C447  H276  1.047 .      S
C448  C449  1.437 .      S
C451  H277  1.071 .      S
C452  H278  1.081 .      S
C453  H279  1.081 .      S
C454  H280  1.080 1_455  S
N70   Zn17  2.162 1_455  S
H280  C454  1.080 1_655  S
Br36  C456  1.913 .      S
C457  H281  1.081 .      S
C458  H282  1.081 .      S
C459  H283  1.081 .      S
C460  H284  1.059 .      S
C461  C462  1.461 .      S
C464  H285  1.049 .      S
C465  H286  1.081 .      S
C466  H287  1.078 .      S
C467  H288  1.062 .      S
Br37  C469  1.834 .      S
C470  H289  1.080 .      S
C471  H290  1.079 .      S
C472  H291  1.078 1_556  S
C473  H292  1.049 .      S
C474  C475  1.485 .      S
N73   Zn17  2.362 1_455  S
C477  H293  1.062 .      S
C478  H294  1.078 .      S
C479  H295  1.081 .      S
C480  H296  1.058 1_655  S
H291  C472  1.078 1_554  S
H296  C480  1.058 1_455  S
Br38  C482  1.858 .      S
C483  H297  1.080 .      S
C484  H298  1.081 .      S
C485  H299  1.075 .      S
C486  H300  1.074 .      S
C487  C488  1.463 .      S
C490  H301  1.073 .      S
C491  H302  1.063 .      S
C492  H303  1.066 .      S
C493  H304  1.036 .      S
Br39  C495  1.896 .      S
C496  H305  1.081 .      S
C497  H306  1.069 .      S
C498  H307  1.079 .      S
C499  H308  1.079 .      S
C500  C501  1.452 .      S
C503  H309  1.069 .      S
C504  H310  1.076 .      S
C505  H311  1.077 .      S
C506  H312  1.076 .      S
Br40  C508  1.882 .      S
C509  H313  1.047 .      S
C510  H314  1.081 .      S
C511  H315  1.079 .      S
C512  H316  1.042 .      S
C513  C514  1.450 .      S
C516  H317  1.062 .      S
C517  H318  1.069 .      S
C518  H319  1.068 .      S
C519  H320  1.059 .      S
Br41  C521  1.886 .      S
C522  H321  1.079 .      S
C523  H322  1.081 .      S
C524  H323  1.081 .      S
C525  H324  1.070 .      S
C526  C527  1.462 .      S
C529  H325  1.058 .      S
C530  H326  1.081 .      S
C531  H327  1.081 .      S
C532  H328  1.058 .      S
Br42  C534  1.833 .      S
C535  H329  1.073 .      S
C536  H330  1.062 .      S
C537  H331  1.078 .      S
C538  H332  1.065 .      S
C539  C540  1.389 .      S
C542  H333  1.073 .      S
C543  H334  1.073 .      S
C544  H335  1.077 1_455  S
C545  H336  1.059 .      S
N84   Zn10  2.260 1_455  S
H335  C544  1.077 1_655  S
Br43  C547  1.928 .      S
C548  H337  1.056 .      S
C549  H338  1.072 .      S
C550  H339  1.069 .      S
C551  H340  1.080 .      S
C552  C553  1.382 .      S
C555  H341  1.074 .      S
C556  H342  1.081 .      S
C557  H343  1.076 .      S
C558  H344  1.069 .      S
N86   Zn20  2.233 1_455  S
Br44  C560  1.861 .      S
C561  H345  1.081 .      S
C562  H346  1.078 .      S
C563  H347  1.079 .      S
C564  H348  1.060 .      S
C565  C566  1.494 .      S
C568  H349  1.067 .      S
C569  H350  1.075 .      S
C570  H351  1.074 .      S
C571  H352  1.079 .      S
Br45  C573  1.871 .      S
C574  H353  1.073 .      S
C575  H354  1.065 .      S
C576  H355  1.066 .      S
C577  H356  1.080 .      S
C578  C579  1.419 .      S
C581  H357  1.071 .      S
C582  H358  1.081 .      S
C583  H359  1.080 .      S
C584  H360  1.062 .      S
Br46  C586  1.829 .      S
C587  H361  1.078 .      S
C588  H362  1.081 .      S
C589  H363  1.072 .      S
C590  H364  1.058 .      S
C591  C592  1.498 .      S
C594  H365  1.067 .      S
C595  H366  1.076 .      S
C596  H367  1.072 .      S
C597  H368  1.071 .      S
Br47  C599  1.882 .      S
C600  H369  1.062 .      S
C601  H370  1.081 .      S
C602  H371  1.081 .      S
C603  H372  1.076 .      S
C604  C605  1.466 .      S
C607  H373  1.070 .      S
C608  H374  1.078 .      S
C609  H375  1.080 .      S
C610  H376  1.067 .      S
Br48  C612  1.953 .      S
C613  H377  1.060 .      S
C614  H378  1.080 .      S
C615  H379  1.081 .      S
C616  H380  1.056 .      S
C617  C618  1.405 .      S
C620  H381  1.073 .      S
C621  H382  1.081 .      S
C622  H383  1.081 .      S
C623  H384  1.067 .      S
Br49  C625  1.875 .      S
C626  H385  1.056 .      S
C627  H386  1.081 .      S
C628  H387  1.080 .      S
C629  H388  1.071 .      S
C630  C631  1.437 .      S
C633  H389  1.057 1_565  S
C634  H390  1.080 .      S
C635  H391  1.076 .      S
C636  H392  1.061 .      S
H389  C633  1.057 1_545  S
Br50  C638  1.913 1_455  S
C638  Br50  1.913 1_655  S
C639  H393  1.081 .      S
C640  H394  1.081 .      S
C641  H395  1.076 .      S
C642  H396  1.067 .      S
C643  C644  1.461 .      S
N99   Zn23  2.241 1_455  S
C646  H397  1.068 .      S
C647  H398  1.076 .      S
C648  H399  1.080 .      S
C649  H400  1.073 .      S
Br51  C651  1.859 .      S
C652  H401  1.080 .      S
C653  H402  1.081 .      S
C654  H403  1.077 .      S
C655  H404  1.059 .      S
C656  C657  1.507 .      S
C659  H405  1.076 .      S
C660  H406  1.072 .      S
C661  H407  1.075 .      S
C662  H408  1.062 .      S
Br52  C664  1.910 .      S
C665  H409  1.081 .      S
C666  H410  1.081 .      S
C667  H411  1.075 .      S
C668  H412  1.075 .      S
C669  C670  1.482 .      S
C672  H413  1.080 .      S
C673  H414  1.070 1_565  S
C674  H415  1.074 .      S
C675  H416  1.077 .      S
H414  C673  1.070 1_545  S
Br53  C677  1.893 .      S
C678  H417  1.081 .      S
C679  H418  1.081 .      S
C680  H419  1.081 .      S
C681  H420  1.080 .      S
C682  C683  1.469 .      S
N105  Zn24  2.292 1_545  S
C685  H421  1.076 1_545  S
C686  H422  1.078 .      S
C687  H423  1.081 .      S
C688  H424  1.078 .      S
H421  C685  1.076 1_565  S
Br54  C690  1.846 .      S
C691  H425  1.081 .      S
C692  H426  1.079 .      S
C693  H427  1.081 .      S
C694  H428  1.068 .      S
C695  C696  1.514 .      S
C698  H429  1.073 .      S
C699  H430  1.080 1_565  S
C700  H431  1.081 1_655  S
C701  H432  1.074 .      S
H430  C699  1.080 1_545  S
H431  C700  1.081 1_455  S
Br55  C703  1.864 .      S
C704  H433  1.059 .      S
C705  H434  1.070 .      S
C706  H435  1.075 .      S
C707  H436  1.073 .      S
C708  C709  1.478 .      S
C711  H437  1.055 .      S
C712  H438  1.081 .      S
C713  H439  1.081 .      S
C714  H440  1.056 .      S
Br56  C716  1.876 .      S
C717  H441  1.076 .      S
C718  H442  1.081 .      S
C719  H443  1.079 .      S
C720  H444  1.078 .      S
C721  C722  1.458 .      S
C724  H445  1.073 .      S
C725  H446  1.080 .      S
C726  H447  1.073 .      S
C727  H448  1.069 .      S
Br57  C729  1.854 .      S
C730  H449  1.080 .      S
C731  H450  1.081 .      S
C732  H451  1.078 .      S
C733  H452  1.075 .      S
C734  C735  1.507 .      S
C737  H453  1.049 .      S
C738  H454  1.081 .      S
C739  H455  1.069 .      S
C740  H456  1.067 .      S
Br58  C742  1.907 .      S
C743  H457  1.081 .      S
C744  H458  1.081 .      S
C745  H459  1.081 .      S
C746  H460  1.050 1_554  S
C747  C748  1.510 1_554  S
C748  C747  1.510 1_556  S
N115  Zn5   2.298 1_545  S
C750  H461  1.074 1_545  S
C751  H462  1.079 1_556  S
C752  H463  1.081 .      S
C753  H464  1.046 1_455  S
H460  C746  1.050 1_556  S
H461  C750  1.074 1_565  S
H462  C751  1.079 1_554  S
H464  C753  1.046 1_655  S
Br59  C755  1.877 .      S
C756  H465  1.062 .      S
C757  H466  1.073 .      S
C758  H467  1.062 .      S
C759  H468  1.076 .      S
C760  C761  1.390 .      S
N117  Zn27  2.169 1_554  S
C763  H469  1.065 .      S
C764  H470  1.078 .      S
C765  H471  1.080 1_554  S
C766  H472  1.075 .      S
H471  C765  1.080 1_556  S
Br60  C768  1.922 .      S
C769  H473  1.081 .      S
C770  H474  1.081 .      S
C771  H475  1.081 .      S
C772  H476  1.067 .      S
C773  C774  1.478 .      S
C776  H477  1.071 .      S
C777  H478  1.081 .      S
C778  H479  1.081 .      S
C779  H480  1.066 .      S
Br61  C781  1.860 .      S
C782  H481  1.060 .      S
C783  H482  1.075 .      S
C784  H483  1.059 .      S
C785  H484  1.071 .      S
C786  C787  1.431 .      S
C789  H485  1.076 .      S
C790  H486  1.081 .      S
C791  H487  1.080 .      S
C792  H488  1.062 .      S
Br62  C794  1.872 .      S
C795  H489  1.081 .      S
C796  H490  1.078 .      S
C797  H491  1.081 .      S
C798  H492  1.079 .      S
C799  C800  1.474 .      S
C802  H493  1.052 .      S
C803  H494  1.080 .      S
C804  H495  1.081 .      S
C805  H496  1.045 .      S
Br63  C807  1.884 .      S
C808  H497  1.081 .      S
C809  H498  1.081 .      S
C810  H499  1.080 .      S
C811  H500  1.080 .      S
C812  C813  1.487 .      S
C815  H501  1.061 .      S
C816  H502  1.081 .      S
C817  H503  1.077 .      S
C818  H504  1.067 .      S
Br64  C820  1.795 .      S
C821  H505  1.069 .      S
C822  H506  1.081 .      S
C823  H507  1.077 .      S
C824  H508  1.035 .      S
C825  C826  1.500 .      S
C828  H509  1.065 .      S
C829  H510  1.080 .      S
C830  H511  1.078 .      S
C831  H512  1.063 .      S
C1    C2    1.373 .      A
C1    C6    1.377 .      A
C2    C3    1.373 .      A
C3    C4    1.382 .      A
C4    C5    1.366 .      A
C5    C6    1.365 .      A
C7    N1    1.411 .      A
C7    N2    1.403 .      A
N1    C8    1.390 .      A
C8    C9    1.384 .      A
C8    C13   1.373 .      A
C9    C10   1.381 .      A
C10   C11   1.369 1_545  A
C11   C10   1.369 1_565  A
C11   C12   1.363 .      A
C12   C13   1.370 1_565  A
C13   C12   1.370 1_545  A
C13   N2    1.323 .      A
C14   C15   1.380 .      A
C14   C19   1.402 .      A
C15   C16   1.366 .      A
C16   C17   1.366 .      A
C17   C18   1.373 .      A
C18   C19   1.377 .      A
C20   N3    1.403 .      A
C20   N4    1.401 .      A
N3    C21   1.331 .      A
C21   C22   1.370 .      A
C21   C26   1.347 .      A
C22   C23   1.377 .      A
C23   C24   1.368 .      A
C24   C25   1.383 .      A
C25   C26   1.355 .      A
C26   N4    1.346 .      A
C27   C28   1.376 .      A
C27   C32   1.380 .      A
C28   C29   1.363 .      A
C29   C30   1.370 .      A
C30   C31   1.369 .      A
C31   C32   1.358 .      A
C33   N5    1.417 .      A
C33   N6    1.408 .      A
N5    C34   1.333 .      A
C34   C35   1.363 .      A
C34   C39   1.354 .      A
C35   C36   1.383 .      A
C36   C37   1.381 .      A
C37   C38   1.384 .      A
C38   C39   1.344 .      A
C39   N6    1.344 .      A
C40   C41   1.377 .      A
C40   C45   1.407 .      A
C41   C42   1.365 .      A
C42   C43   1.364 .      A
C43   C44   1.381 .      A
C44   C45   1.373 .      A
C46   N7    1.388 .      A
C46   N8    1.397 .      A
N7    C47   1.328 .      A
C47   C48   1.372 .      A
C47   C52   1.361 .      A
C48   C49   1.381 1_565  A
C49   C48   1.381 1_545  A
C49   C50   1.385 .      A
C50   C51   1.385 .      A
C51   C52   1.350 1_545  A
C52   C51   1.350 1_565  A
C52   N8    1.353 .      A
C53   C54   1.356 1_655  A
C53   C58   1.338 .      A
C54   C53   1.356 1_455  A
C54   C55   1.362 .      A
C55   C56   1.355 1_455  A
C56   C55   1.355 1_655  A
C56   C57   1.363 .      A
C57   C58   1.342 .      A
C59   N9    1.388 .      A
C59   N10   1.385 .      A
N9    C60   1.361 .      A
C60   C61   1.366 1_554  A
C60   C65   1.371 .      A
C61   C60   1.366 1_556  A
C61   C62   1.387 .      A
C62   C63   1.378 1_556  A
C63   C62   1.378 1_554  A
C63   C64   1.373 .      A
C64   C65   1.365 .      A
C65   N10   1.337 .      A
C66   C67   1.351 .      A
C66   C71   1.371 .      A
C67   C68   1.371 .      A
C68   C69   1.353 .      A
C69   C70   1.345 .      A
C70   C71   1.347 .      A
C72   N11   1.390 .      A
C72   N12   1.380 .      A
N11   C73   1.347 .      A
C73   C74   1.372 .      A
C73   C78   1.374 .      A
C74   C75   1.378 .      A
C75   C76   1.383 .      A
C76   C77   1.386 .      A
C77   C78   1.367 .      A
C78   N12   1.352 .      A
C79   C80   1.371 .      A
C79   C84   1.320 .      A
C80   C81   1.365 .      A
C81   C82   1.370 .      A
C82   C83   1.373 .      A
C83   C84   1.363 .      A
C85   N13   1.383 .      A
C85   N14   1.380 .      A
N13   C86   1.351 .      A
C86   C87   1.375 .      A
C86   C91   1.374 .      A
C87   C88   1.383 .      A
C88   C89   1.387 .      A
C89   C90   1.385 .      A
C90   C91   1.381 .      A
C91   N14   1.361 .      A
C92   C93   1.359 .      A
C92   C97   1.352 .      A
C93   C94   1.351 .      A
C94   C95   1.368 .      A
C95   C96   1.369 .      A
C96   C97   1.371 .      A
C98   N15   1.414 .      A
C98   N16   1.395 .      A
N15   C99   1.354 .      A
C99   C100  1.358 1_655  A
C99   C104  1.377 .      A
C100  C99   1.358 1_455  A
C100  C101  1.386 .      A
C101  C102  1.385 .      A
C102  C103  1.381 .      A
C103  C104  1.374 1_455  A
C104  C103  1.374 1_655  A
C104  N16   1.347 .      A
C105  C106  1.383 .      A
C105  C110  1.368 .      A
C106  C107  1.374 .      A
C107  C108  1.372 .      A
C108  C109  1.376 .      A
C109  C110  1.380 .      A
C111  N17   1.419 .      A
C111  N18   1.412 .      A
N17   C112  1.346 .      A
C112  C113  1.360 .      A
C112  C117  1.364 .      A
C113  C114  1.363 .      A
C114  C115  1.368 .      A
C115  C116  1.373 .      A
C116  C117  1.371 .      A
C117  N18   1.346 .      A
C118  C119  1.368 .      A
C118  C123  1.374 .      A
C119  C120  1.350 .      A
C120  C121  1.371 .      A
C121  C122  1.364 .      A
C122  C123  1.356 .      A
C124  N19   1.398 .      A
C124  N20   1.402 .      A
N19   C125  1.345 .      A
C125  C126  1.377 .      A
C125  C130  1.367 .      A
C126  C127  1.382 .      A
C127  C128  1.385 .      A
C128  C129  1.383 .      A
C129  C130  1.363 .      A
C130  N20   1.360 .      A
C131  C132  1.383 .      A
C131  C136  1.399 .      A
C132  C133  1.373 .      A
C133  C134  1.371 .      A
C134  C135  1.379 .      A
C135  C136  1.377 .      A
C137  N21   1.397 .      A
C137  N22   1.410 .      A
N21   C138  1.325 .      A
C138  C139  1.375 .      A
C138  C143  1.359 .      A
C139  C140  1.380 .      A
C140  C141  1.370 .      A
C141  C142  1.379 .      A
C142  C143  1.373 .      A
C143  N22   1.375 .      A
C144  C145  1.374 .      A
C144  C149  1.361 .      A
C145  C146  1.370 .      A
C146  C147  1.379 .      A
C147  C148  1.378 .      A
C148  C149  1.373 .      A
C150  N23   1.395 .      A
C150  N24   1.436 .      A
N23   C151  1.357 .      A
C151  C152  1.382 .      A
C151  C156  1.369 .      A
C152  C153  1.381 .      A
C153  C154  1.373 .      A
C154  C155  1.375 .      A
C155  C156  1.338 .      A
C156  N24   1.344 .      A
C157  C158  1.382 .      A
C157  C162  1.401 .      A
C158  C159  1.372 .      A
C159  C160  1.370 .      A
C160  C161  1.374 .      A
C161  C162  1.389 .      A
C163  N25   1.406 .      A
C163  N26   1.407 .      A
N25   C164  1.347 .      A
C164  C165  1.362 .      A
C164  C169  1.355 .      A
C165  C166  1.381 .      A
C166  C167  1.379 .      A
C167  C168  1.379 .      A
C168  C169  1.367 .      A
C169  N26   1.340 .      A
C170  C171  1.368 .      A
C170  C175  1.369 .      A
C171  C172  1.361 .      A
C172  C173  1.369 .      A
C173  C174  1.368 .      A
C174  C175  1.382 .      A
C176  N27   1.390 .      A
C176  N28   1.409 .      A
N27   C177  1.347 .      A
C177  C178  1.379 .      A
C177  C182  1.375 .      A
C178  C179  1.384 .      A
C179  C180  1.387 .      A
C180  C181  1.385 .      A
C181  C182  1.377 .      A
C182  N28   1.360 .      A
C183  C184  1.379 .      A
C183  C188  1.374 .      A
C184  C185  1.371 .      A
C185  C186  1.372 .      A
C186  C187  1.382 .      A
C187  C188  1.382 .      A
C189  N29   1.420 .      A
C189  N30   1.400 .      A
N29   C190  1.326 .      A
C190  C191  1.375 .      A
C190  C195  1.358 .      A
C191  C192  1.375 .      A
C192  C193  1.377 .      A
C193  C194  1.385 .      A
C194  C195  1.376 .      A
C195  N30   1.374 .      A
C196  C197  1.366 .      A
C196  C201  1.351 .      A
C197  C198  1.356 .      A
C198  C199  1.365 .      A
C199  C200  1.367 .      A
C200  C201  1.362 .      A
C202  N31   1.430 .      A
C202  N32   1.412 .      A
N31   C203  1.368 1_455  A
C203  N31   1.368 1_655  A
C203  C204  1.374 .      A
C203  C208  1.370 1_655  A
C204  C205  1.380 .      A
C205  C206  1.371 .      A
C206  C207  1.374 1_655  A
C207  C206  1.374 1_455  A
C207  C208  1.360 .      A
C208  C203  1.370 1_455  A
C208  N32   1.337 .      A
C209  C210  1.378 .      A
C209  C214  1.397 .      A
C210  C211  1.373 .      A
C211  C212  1.373 .      A
C212  C213  1.375 .      A
C213  C214  1.373 .      A
C215  N33   1.399 .      A
C215  N34   1.398 .      A
N33   C216  1.341 1_655  A
C216  N33   1.341 1_455  A
C216  C217  1.362 .      A
C216  C221  1.362 .      A
C217  C218  1.378 .      A
C218  C219  1.375 .      A
C219  C220  1.379 .      A
C220  C221  1.383 .      A
C221  N34   1.359 1_455  A
N34   C221  1.359 1_655  A
C222  C223  1.389 .      A
C222  C227  1.392 .      A
C223  C224  1.365 .      A
C224  C225  1.360 .      A
C225  C226  1.385 .      A
C226  C227  1.389 .      A
C228  N35   1.442 .      A
C228  N36   1.413 .      A
N35   C229  1.348 .      A
C229  C230  1.351 1_455  A
C229  C234  1.362 .      A
C230  C229  1.351 1_655  A
C230  C231  1.378 1_655  A
C231  C230  1.378 1_455  A
C231  C232  1.381 .      A
C232  C233  1.382 .      A
C233  C234  1.386 .      A
C234  N36   1.356 .      A
C235  C236  1.378 .      A
C235  C240  1.400 .      A
C236  C237  1.365 .      A
C237  C238  1.367 .      A
C238  C239  1.383 .      A
C239  C240  1.373 .      A
C241  N37   1.427 .      A
C241  N38   1.413 .      A
N37   C242  1.356 .      A
C242  C243  1.365 .      A
C242  C247  1.372 .      A
C243  C244  1.381 .      A
C244  C245  1.381 .      A
C245  C246  1.380 .      A
C246  C247  1.380 .      A
C247  N38   1.348 .      A
C248  C249  1.378 .      A
C248  C253  1.379 1_655  A
C249  C250  1.364 .      A
C250  C251  1.365 .      A
C251  C252  1.385 .      A
C252  C253  1.374 1_655  A
C253  C248  1.379 1_455  A
C253  C252  1.374 1_455  A
C254  N39   1.415 .      A
C254  N40   1.406 .      A
N39   C255  1.380 .      A
C255  C256  1.371 .      A
C255  C260  1.361 .      A
C256  C257  1.392 .      A
C257  C258  1.371 .      A
C258  C259  1.364 .      A
C259  C260  1.365 .      A
C260  N40   1.311 .      A
C261  C262  1.372 .      A
C261  C266  1.356 1_556  A
C262  C263  1.367 .      A
C263  C264  1.369 1_556  A
C264  C263  1.369 1_554  A
C264  C265  1.383 .      A
C265  C266  1.386 .      A
C266  C261  1.356 1_554  A
C267  N41   1.439 .      A
C267  N42   1.410 .      A
N41   C268  1.344 .      A
C268  C269  1.359 .      A
C268  C273  1.377 .      A
C269  C270  1.384 .      A
C270  C271  1.378 .      A
C271  C272  1.377 .      A
C272  C273  1.362 .      A
C273  N42   1.351 .      A
C274  C275  1.372 .      A
C274  C279  1.377 .      A
C275  C276  1.364 .      A
C276  C277  1.356 .      A
C277  C278  1.369 .      A
C278  C279  1.356 .      A
C280  N43   1.404 .      A
C280  N44   1.415 .      A
N43   C281  1.365 .      A
C281  C282  1.378 .      A
C281  C286  1.369 .      A
C282  C283  1.381 .      A
C283  C284  1.380 .      A
C284  C285  1.378 .      A
C285  C286  1.381 .      A
C286  N44   1.350 .      A
C287  C288  1.370 .      A
C287  C292  1.381 .      A
C288  C289  1.359 .      A
C289  C290  1.362 .      A
C290  C291  1.387 .      A
C291  C292  1.389 .      A
C293  N45   1.434 .      A
C293  N46   1.409 .      A
N45   C294  1.344 .      A
C294  C295  1.369 .      A
C294  C299  1.368 .      A
C295  C296  1.377 .      A
C296  C297  1.379 .      A
C297  C298  1.382 .      A
C298  C299  1.371 .      A
C299  N46   1.357 .      A
C300  C301  1.377 .      A
C300  C305  1.370 .      A
C301  C302  1.360 .      A
C302  C303  1.366 .      A
C303  C304  1.370 .      A
C304  C305  1.351 .      A
C306  N47   1.410 .      A
C306  N48   1.409 .      A
N47   C307  1.348 .      A
C307  C308  1.367 .      A
C307  C312  1.366 .      A
C308  C309  1.382 .      A
C309  C310  1.384 .      A
C310  C311  1.382 .      A
C311  C312  1.370 .      A
C312  N48   1.351 .      A
C313  C314  1.376 .      A
C313  C318  1.399 .      A
C314  C315  1.369 .      A
C315  C316  1.374 .      A
C316  C317  1.375 .      A
C317  C318  1.375 .      A
C319  N49   1.404 .      A
C319  N50   1.403 .      A
N49   C320  1.353 .      A
C320  C321  1.373 .      A
C320  C325  1.374 .      A
C321  C322  1.382 .      A
C322  C323  1.387 .      A
C323  C324  1.384 .      A
C324  C325  1.367 .      A
C325  N50   1.349 .      A
C326  C327  1.382 .      A
C326  C331  1.386 .      A
C327  C328  1.358 .      A
C328  C329  1.348 .      A
C329  C330  1.374 .      A
C330  C331  1.365 .      A
C332  N51   1.431 .      A
C332  N52   1.421 .      A
N51   C333  1.357 .      A
C333  C334  1.368 .      A
C333  C338  1.373 .      A
C334  C335  1.385 .      A
C335  C336  1.383 .      A
C336  C337  1.380 .      A
C337  C338  1.377 .      A
C338  N52   1.344 .      A
C339  C340  1.372 .      A
C339  C344  1.363 .      A
C340  C341  1.369 .      A
C341  C342  1.372 .      A
C342  C343  1.371 .      A
C343  C344  1.358 .      A
C345  N53   1.401 .      A
C345  N54   1.403 .      A
N53   C346  1.360 .      A
C346  C347  1.379 .      A
C346  C351  1.376 .      A
C347  C348  1.380 .      A
C348  C349  1.381 .      A
C349  C350  1.380 .      A
C350  C351  1.366 .      A
C351  N54   1.350 .      A
C352  C353  1.379 .      A
C352  C357  1.389 .      A
C353  C354  1.369 .      A
C354  C355  1.369 .      A
C355  C356  1.381 .      A
C356  C357  1.380 .      A
C358  N55   1.431 .      A
C358  N56   1.409 .      A
N55   C359  1.330 .      A
C359  C360  1.322 .      A
C359  C364  1.329 .      A
C360  C361  1.372 .      A
C361  C362  1.358 .      A
C362  C363  1.375 .      A
C363  C364  1.348 .      A
C364  N56   1.323 .      A
C365  C366  1.375 .      A
C365  C370  1.380 .      A
C366  C367  1.375 .      A
C367  C368  1.374 .      A
C368  C369  1.376 .      A
C369  C370  1.359 .      A
C371  N57   1.399 .      A
C371  N58   1.398 .      A
N57   C372  1.351 .      A
C372  C373  1.369 .      A
C372  C377  1.367 .      A
C373  C374  1.382 .      A
C374  C375  1.384 .      A
C375  C376  1.383 .      A
C376  C377  1.368 .      A
C377  N58   1.350 .      A
C378  C379  1.387 .      A
C378  C383  1.395 .      A
C379  C380  1.373 .      A
C380  C381  1.368 .      A
C381  C382  1.375 .      A
C382  C383  1.383 .      A
C384  N59   1.421 .      A
C384  N60   1.419 .      A
N59   C385  1.352 .      A
C385  C386  1.367 .      A
C385  C390  1.363 .      A
C386  C387  1.379 .      A
C387  C388  1.379 .      A
C388  C389  1.382 .      A
C389  C390  1.361 .      A
C390  N60   1.343 .      A
C391  C392  1.366 .      A
C391  C396  1.375 .      A
C392  C393  1.350 .      A
C393  C394  1.351 .      A
C394  C395  1.365 .      A
C395  C396  1.371 .      A
C397  N61   1.397 .      A
C397  N62   1.426 .      A
N61   C398  1.342 .      A
C398  C399  1.371 .      A
C398  C403  1.367 .      A
C399  C400  1.380 .      A
C400  C401  1.382 .      A
C401  C402  1.383 .      A
C402  C403  1.378 .      A
C403  N62   1.365 .      A
C404  C405  1.379 1_455  A
C404  C409  1.390 .      A
C405  C404  1.379 1_655  A
C405  C406  1.376 .      A
C406  C407  1.376 1_554  A
C407  C406  1.376 1_556  A
C407  C408  1.378 1_656  A
C408  C407  1.378 1_454  A
C408  C409  1.378 .      A
C410  N63   1.393 .      A
C410  N64   1.416 .      A
N63   C411  1.335 .      A
C411  C412  1.368 .      A
C411  C416  1.358 .      A
C412  C413  1.379 .      A
C413  C414  1.382 .      A
C414  C415  1.383 .      A
C415  C416  1.368 .      A
C416  N64   1.364 .      A
C417  C418  1.373 .      A
C417  C422  1.378 .      A
C418  C419  1.360 .      A
C419  C420  1.357 .      A
C420  C421  1.378 .      A
C421  C422  1.383 .      A
C423  N65   1.437 .      A
C423  N66   1.408 .      A
N65   C424  1.355 .      A
C424  C425  1.363 .      A
C424  C429  1.367 .      A
C425  C426  1.392 .      A
C426  C427  1.372 1_554  A
C427  C426  1.372 1_556  A
C427  C428  1.366 1_556  A
C428  C427  1.366 1_554  A
C428  C429  1.354 .      A
C429  N66   1.330 .      A
C430  C431  1.379 .      A
C430  C435  1.385 .      A
C431  C432  1.372 .      A
C432  C433  1.373 .      A
C433  C434  1.381 .      A
C434  C435  1.386 .      A
C436  N67   1.405 .      A
C436  N68   1.421 .      A
N67   C437  1.332 .      A
C437  C438  1.370 .      A
C437  C442  1.368 .      A
C438  C439  1.373 .      A
C439  C440  1.374 .      A
C440  C441  1.381 .      A
C441  C442  1.381 .      A
C442  N68   1.376 .      A
C443  C444  1.367 1_455  A
C443  C448  1.354 .      A
C444  C443  1.367 1_655  A
C444  C445  1.356 1_655  A
C445  C444  1.356 1_455  A
C445  C446  1.365 .      A
C446  C447  1.357 .      A
C447  C448  1.349 .      A
C449  N69   1.388 .      A
C449  N70   1.387 .      A
N69   C450  1.356 .      A
C450  C451  1.373 .      A
C450  C455  1.376 .      A
C451  C452  1.384 .      A
C452  C453  1.388 .      A
C453  C454  1.384 .      A
C454  C455  1.378 .      A
C455  N70   1.354 .      A
C456  C457  1.383 .      A
C456  C461  1.379 .      A
C457  C458  1.377 .      A
C458  C459  1.373 .      A
C459  C460  1.378 .      A
C460  C461  1.370 .      A
C462  N71   1.410 .      A
C462  N72   1.398 .      A
N71   C463  1.355 1_655  A
C463  N71   1.355 1_455  A
C463  C464  1.367 .      A
C463  C468  1.362 .      A
C464  C465  1.378 .      A
C465  C466  1.377 .      A
C466  C467  1.380 .      A
C467  C468  1.359 .      A
C468  N72   1.342 1_455  A
N72   C468  1.342 1_655  A
C469  C470  1.380 .      A
C469  C474  1.377 .      A
C470  C471  1.367 .      A
C471  C472  1.371 .      A
C472  C473  1.383 .      A
C473  C474  1.361 .      A
C475  N73   1.436 .      A
C475  N74   1.427 .      A
N73   C476  1.360 1_455  A
C476  N73   1.360 1_655  A
C476  C477  1.365 .      A
C476  C481  1.379 1_655  A
C477  C478  1.380 .      A
C478  C479  1.373 .      A
C479  C480  1.375 .      A
C480  C481  1.376 1_655  A
C481  C476  1.379 1_455  A
C481  C480  1.376 1_455  A
C481  N74   1.351 .      A
C482  C483  1.375 .      A
C482  C487  1.362 .      A
C483  C484  1.374 .      A
C484  C485  1.374 .      A
C485  C486  1.382 .      A
C486  C487  1.371 .      A
C488  N75   1.399 .      A
C488  N76   1.389 .      A
N75   C489  1.346 .      A
C489  C490  1.364 .      A
C489  C494  1.351 .      A
C490  C491  1.373 .      A
C491  C492  1.367 .      A
C492  C493  1.356 .      A
C493  C494  1.345 .      A
C494  N76   1.332 .      A
C495  C496  1.365 .      A
C495  C500  1.383 .      A
C496  C497  1.366 .      A
C497  C498  1.380 .      A
C498  C499  1.377 .      A
C499  C500  1.376 .      A
C501  N77   1.389 .      A
C501  N78   1.397 .      A
N77   C502  1.352 .      A
C502  C503  1.351 .      A
C502  C507  1.357 .      A
C503  C504  1.387 .      A
C504  C505  1.373 .      A
C505  C506  1.373 .      A
C506  C507  1.360 .      A
C507  N78   1.330 .      A
C508  C509  1.377 .      A
C508  C513  1.320 .      A
C509  C510  1.371 .      A
C510  C511  1.360 .      A
C511  C512  1.374 .      A
C512  C513  1.366 .      A
C514  N79   1.400 .      A
C514  N80   1.388 .      A
N79   C515  1.322 .      A
C515  C516  1.357 .      A
C515  C520  1.359 .      A
C516  C517  1.336 1_565  A
C517  C516  1.336 1_545  A
C517  C518  1.361 .      A
C518  C519  1.387 1_545  A
C519  C518  1.387 1_565  A
C519  C520  1.334 .      A
C520  N80   1.342 .      A
C521  C522  1.381 .      A
C521  C526  1.375 .      A
C522  C523  1.375 .      A
C523  C524  1.372 .      A
C524  C525  1.376 .      A
C525  C526  1.372 .      A
C527  N81   1.412 .      A
C527  N82   1.408 .      A
N81   C528  1.347 .      A
C528  C529  1.364 .      A
C528  C533  1.365 .      A
C529  C530  1.382 .      A
C530  C531  1.382 .      A
C531  C532  1.383 .      A
C532  C533  1.364 .      A
C533  N82   1.348 .      A
C534  C535  1.340 1_565  A
C534  C539  1.308 .      A
C535  C534  1.340 1_545  A
C535  C536  1.349 .      A
C536  C537  1.384 .      A
C537  C538  1.349 1_545  A
C538  C537  1.349 1_565  A
C538  C539  1.352 .      A
C540  N83   1.398 .      A
C540  N84   1.392 .      A
N83   C541  1.347 .      A
C541  C542  1.369 .      A
C541  C546  1.380 .      A
C542  C543  1.380 .      A
C543  C544  1.381 .      A
C544  C545  1.384 1_455  A
C545  C544  1.384 1_655  A
C545  C546  1.351 1_655  A
C546  C545  1.351 1_455  A
C546  N84   1.346 .      A
C547  C548  1.363 .      A
C547  C552  1.317 .      A
C548  C549  1.376 .      A
C549  C550  1.376 .      A
C550  C551  1.360 .      A
C551  C552  1.360 .      A
C553  N85   1.398 .      A
C553  N86   1.370 .      A
N85   C554  1.341 .      A
C554  C555  1.365 .      A
C554  C559  1.364 .      A
C555  C556  1.378 .      A
C556  C557  1.379 1_455  A
C557  C556  1.379 1_655  A
C557  C558  1.385 .      A
C558  C559  1.369 1_655  A
C559  C558  1.369 1_455  A
C559  N86   1.362 .      A
C560  C561  1.374 .      A
C560  C565  1.391 .      A
C561  C562  1.365 .      A
C562  C563  1.367 .      A
C563  C564  1.368 .      A
C564  C565  1.377 .      A
C566  N87   1.393 .      A
C566  N88   1.407 .      A
N87   C567  1.342 .      A
C567  C568  1.363 .      A
C567  C572  1.354 .      A
C568  C569  1.376 .      A
C569  C570  1.380 .      A
C570  C571  1.378 .      A
C571  C572  1.370 .      A
C572  N88   1.348 .      A
C573  C574  1.367 .      A
C573  C578  1.326 .      A
C574  C575  1.352 .      A
C575  C576  1.373 .      A
C576  C577  1.366 .      A
C577  C578  1.360 .      A
C579  N89   1.401 .      A
C579  N90   1.394 .      A
N89   C580  1.344 .      A
C580  C581  1.369 .      A
C580  C585  1.375 .      A
C581  C582  1.376 .      A
C582  C583  1.382 .      A
C583  C584  1.386 .      A
C584  C585  1.364 .      A
C585  N90   1.354 .      A
C586  C587  1.377 .      A
C586  C591  1.382 .      A
C587  C588  1.359 .      A
C588  C589  1.366 .      A
C589  C590  1.383 .      A
C590  C591  1.368 .      A
C592  N91   1.412 .      A
C592  N92   1.406 .      A
N91   C593  1.324 .      A
C593  C594  1.355 .      A
C593  C598  1.356 .      A
C594  C595  1.365 .      A
C595  C596  1.375 .      A
C596  C597  1.375 .      A
C597  C598  1.330 .      A
C598  N92   1.329 .      A
C599  C600  1.383 1_565  A
C599  C604  1.346 .      A
C600  C599  1.383 1_545  A
C600  C601  1.375 .      A
C601  C602  1.368 1_545  A
C602  C601  1.368 1_565  A
C602  C603  1.374 .      A
C603  C604  1.390 .      A
C605  N93   1.390 .      A
C605  N94   1.413 .      A
N93   C606  1.339 .      A
C606  C607  1.369 .      A
C606  C611  1.370 .      A
C607  C608  1.382 .      A
C608  C609  1.375 .      A
C609  C610  1.374 .      A
C610  C611  1.386 .      A
C611  N94   1.373 .      A
C612  C613  1.378 .      A
C612  C617  1.319 .      A
C613  C614  1.369 .      A
C614  C615  1.357 .      A
C615  C616  1.371 .      A
C616  C617  1.398 .      A
C618  N95   1.392 .      A
C618  N96   1.409 .      A
N95   C619  1.367 .      A
C619  C620  1.375 .      A
C619  C624  1.384 .      A
C620  C621  1.387 .      A
C621  C622  1.387 .      A
C622  C623  1.382 .      A
C623  C624  1.361 .      A
C624  N96   1.337 .      A
C625  C626  1.372 .      A
C625  C630  1.336 .      A
C626  C627  1.369 .      A
C627  C628  1.367 .      A
C628  C629  1.377 .      A
C629  C630  1.371 .      A
C631  N97   1.387 .      A
C631  N98   1.412 .      A
N97   C632  1.355 .      A
C632  C633  1.342 .      A
C632  C637  1.362 .      A
C633  C634  1.387 1_565  A
C634  C633  1.387 1_545  A
C634  C635  1.378 1_545  A
C635  C634  1.378 1_565  A
C635  C636  1.373 .      A
C636  C637  1.359 .      A
C637  N98   1.325 .      A
C638  C639  1.373 .      A
C638  C643  1.393 1_655  A
C639  C640  1.373 .      A
C640  C641  1.376 .      A
C641  C642  1.366 1_655  A
C642  C641  1.366 1_455  A
C642  C643  1.369 .      A
C643  C638  1.393 1_455  A
C644  N99   1.409 .      A
C644  N100  1.388 .      A
N99   C645  1.352 .      A
C645  C646  1.364 .      A
C645  C650  1.364 .      A
C646  C647  1.387 .      A
C647  C648  1.387 .      A
C648  C649  1.380 .      A
C649  C650  1.365 .      A
C650  N100  1.335 .      A
C651  C652  1.380 .      A
C651  C656  1.393 .      A
C652  C653  1.363 .      A
C653  C654  1.360 .      A
C654  C655  1.379 .      A
C655  C656  1.384 .      A
C657  N101  1.411 .      A
C657  N102  1.406 .      A
N101  C658  1.333 .      A
C658  C659  1.356 .      A
C658  C663  1.345 .      A
C659  C660  1.371 .      A
C660  C661  1.376 .      A
C661  C662  1.379 .      A
C662  C663  1.365 .      A
C663  N102  1.347 .      A
C664  C665  1.375 .      A
C664  C669  1.404 .      A
C665  C666  1.366 .      A
C666  C667  1.367 .      A
C667  C668  1.385 .      A
C668  C669  1.371 .      A
C670  N103  1.413 .      A
C670  N104  1.403 .      A
N103  C671  1.339 .      A
C671  C672  1.364 .      A
C671  C676  1.373 .      A
C672  C673  1.376 .      A
C673  C674  1.386 .      A
C674  C675  1.379 .      A
C675  C676  1.362 .      A
C676  N104  1.339 .      A
C677  C678  1.382 .      A
C677  C682  1.381 .      A
C678  C679  1.377 .      A
C679  C680  1.374 .      A
C680  C681  1.377 .      A
C681  C682  1.383 .      A
C683  N105  1.424 .      A
C683  N106  1.419 .      A
N105  C684  1.350 .      A
C684  C685  1.369 .      A
C684  C689  1.376 .      A
C685  C686  1.383 .      A
C686  C687  1.379 .      A
C687  C688  1.377 .      A
C688  C689  1.384 .      A
C689  N106  1.361 .      A
C690  C691  1.382 .      A
C690  C695  1.393 .      A
C691  C692  1.366 .      A
C692  C693  1.364 .      A
C693  C694  1.375 .      A
C694  C695  1.391 .      A
C696  N107  1.401 .      A
C696  N108  1.415 .      A
N107  C697  1.336 .      A
C697  C698  1.363 .      A
C697  C702  1.371 .      A
C698  C699  1.383 .      A
C699  C700  1.380 .      A
C700  C701  1.379 .      A
C701  C702  1.368 .      A
C702  N108  1.345 .      A
C703  C704  1.367 .      A
C703  C708  1.386 .      A
C704  C705  1.353 .      A
C705  C706  1.363 .      A
C706  C707  1.383 .      A
C707  C708  1.390 .      A
C709  N109  1.431 .      A
C709  N110  1.375 .      A
N109  C710  1.353 .      A
C710  C711  1.369 .      A
C710  C715  1.348 .      A
C711  C712  1.384 .      A
C712  C713  1.383 .      A
C713  C714  1.381 .      A
C714  C715  1.362 .      A
C715  N110  1.333 .      A
C716  C717  1.379 .      A
C716  C721  1.363 .      A
C717  C718  1.376 .      A
C718  C719  1.373 .      A
C719  C720  1.379 .      A
C720  C721  1.379 .      A
C722  N111  1.398 .      A
C722  N112  1.404 .      A
N111  C723  1.337 .      A
C723  C724  1.359 .      A
C723  C728  1.367 .      A
C724  C725  1.379 .      A
C725  C726  1.374 .      A
C726  C727  1.383 .      A
C727  C728  1.360 .      A
C728  N112  1.346 .      A
C729  C730  1.381 .      A
C729  C734  1.392 .      A
C730  C731  1.366 .      A
C731  C732  1.365 .      A
C732  C733  1.376 .      A
C733  C734  1.393 .      A
C735  N113  1.438 .      A
C735  N114  1.400 .      A
N113  C736  1.353 .      A
C736  C737  1.368 .      A
C736  C741  1.351 .      A
C737  C738  1.374 .      A
C738  C739  1.377 .      A
C739  C740  1.371 .      A
C740  C741  1.364 .      A
C741  N114  1.328 .      A
C742  C743  1.382 .      A
C742  C747  1.411 .      A
C743  C744  1.369 .      A
C744  C745  1.366 .      A
C745  C746  1.377 .      A
C746  C747  1.378 .      A
C748  N115  1.421 .      A
C748  N116  1.419 .      A
N115  C749  1.339 .      A
C749  C750  1.370 .      A
C749  C754  1.369 .      A
C750  C751  1.381 1_455  A
C751  C750  1.381 1_655  A
C751  C752  1.381 .      A
C752  C753  1.381 1_655  A
C753  C752  1.381 1_455  A
C753  C754  1.363 .      A
C754  N116  1.359 .      A
C755  C756  1.355 1_655  A
C755  C760  1.330 .      A
C756  C755  1.355 1_455  A
C756  C757  1.359 .      A
C757  C758  1.383 .      A
C758  C759  1.350 1_455  A
C759  C758  1.350 1_655  A
C759  C760  1.348 .      A
C761  N117  1.380 .      A
C761  N118  1.362 .      A
N117  C762  1.357 .      A
C762  C763  1.371 1_554  A
C762  C767  1.370 .      A
C763  C762  1.371 1_556  A
C763  C764  1.387 .      A
C764  C765  1.380 1_556  A
C765  C764  1.380 1_554  A
C765  C766  1.374 .      A
C766  C767  1.372 .      A
C767  N118  1.348 .      A
C768  C769  1.380 .      A
C768  C773  1.392 .      A
C769  C770  1.374 .      A
C770  C771  1.375 1_556  A
C771  C770  1.375 1_554  A
C771  C772  1.378 .      A
C772  C773  1.385 1_554  A
C773  C772  1.385 1_556  A
C774  N119  1.429 1_455  A
C774  N120  1.429 1_455  A
N119  C774  1.429 1_655  A
N119  C775  1.343 .      A
C775  C776  1.362 .      A
C775  C780  1.369 .      A
C776  C777  1.382 .      A
C777  C778  1.386 .      A
C778  C779  1.385 .      A
C779  C780  1.358 .      A
C780  N120  1.348 .      A
N120  C774  1.429 1_655  A
C781  C782  1.344 .      A
C781  C786  1.362 .      A
C782  C783  1.359 .      A
C783  C784  1.360 .      A
C784  C785  1.368 .      A
C785  C786  1.354 .      A
C787  N121  1.383 .      A
C787  N122  1.387 .      A
N121  C788  1.333 .      A
C788  C789  1.370 .      A
C788  C793  1.374 .      A
C789  C790  1.376 .      A
C790  C791  1.382 .      A
C791  C792  1.389 .      A
C792  C793  1.375 .      A
C793  N122  1.367 .      A
C794  C795  1.383 .      A
C794  C799  1.378 .      A
C795  C796  1.377 .      A
C796  C797  1.368 .      A
C797  C798  1.374 .      A
C798  C799  1.384 .      A
C800  N123  1.402 .      A
C800  N124  1.401 .      A
N123  C801  1.344 .      A
C801  C802  1.376 .      A
C801  C806  1.350 .      A
C802  C803  1.376 .      A
C803  C804  1.371 .      A
C804  C805  1.376 .      A
C805  C806  1.363 .      A
C806  N124  1.353 .      A
C807  C808  1.381 .      A
C807  C812  1.394 .      A
C808  C809  1.373 .      A
C809  C810  1.371 .      A
C810  C811  1.377 .      A
C811  C812  1.385 .      A
C813  N125  1.431 .      A
C813  N126  1.427 .      A
N125  C814  1.347 .      A
C814  C815  1.363 .      A
C814  C819  1.362 .      A
C815  C816  1.377 .      A
C816  C817  1.380 .      A
C817  C818  1.383 .      A
C818  C819  1.365 .      A
C819  N126  1.346 .      A
C820  C821  1.362 .      A
C820  C825  1.363 .      A
C821  C822  1.348 .      A
C822  C823  1.358 .      A
C823  C824  1.366 .      A
C824  C825  1.375 .      A
C826  N127  1.416 .      A
C826  N128  1.390 .      A
N127  C827  1.354 .      A
C827  C828  1.368 .      A
C827  C832  1.355 .      A
C828  C829  1.378 .      A
C829  C830  1.374 .      A
C830  C831  1.377 .      A
C831  C832  1.372 .      A
C832  N128  1.345 .      A
