data_str_m1_o12435_IWV
_audit_creation_date              2015-10-01T06:33:14-0700
_symmetry_space_group_name_H-M    P1
_symmetry_Int_Tables_number       1
_space_group_crystal_system       triclinic
loop_
_symmetry_equiv_pos_as_xyz
  x,y,z
_cell_length_a                    29.0911649
_cell_length_b                    28.0507395
_cell_length_c                    31.5553221
_cell_angle_alpha                 114.997582
_cell_angle_beta                  78.0347283
_cell_angle_gamma                 119.807351
_cell_volume                      20250.2367229

loop_
_atom_site_label
_atom_site_type_symbol
_atom_site_description
_atom_site_fract_x
_atom_site_fract_y
_atom_site_fract_z
_atom_type_partial_charge
Zn1   Zn    Zn3+2 0.584093 0.239837 0.321394 0.000000
Zn2   Zn    Zn3+2 0.418247 0.862652 0.316350 0.000000
Zn3   Zn    Zn3+2 0.795710 0.602033 0.304242 0.000000
Zn4   Zn    Zn3+2 0.795391 0.387295 0.438593 0.000000
Zn5   Zn    Zn3+2 0.594203 0.371424 0.198265 0.000000
Zn6   Zn    Zn3+2 0.805374 0.203599 0.501013 0.000000
Zn7   Zn    Zn3+2 0.399678 0.017353 0.520054 0.000000
Zn8   Zn    Zn3+2 0.792362 0.014806 0.295457 0.000000
Zn9   Zn    Zn3+2 0.780080 0.833961 0.366023 0.000000
Zn10  Zn    Zn3+2 0.398941 0.665269 0.369880 0.000000
Zn11  Zn    Zn3+2 0.685789 0.905760 0.808475 0.000000
Zn12  Zn    Zn3+2 0.676317 0.111030 0.799353 0.000000
Zn13  Zn    Zn3+2 0.918667 0.026611 0.800914 0.000000
Zn14  Zn    Zn3+2 0.600737 0.691100 0.624576 0.000000
Zn15  Zn    Zn3+2 0.684321 0.021928 0.018215 0.000000
Zn16  Zn    Zn3+2 0.913922 0.245741 0.804555 0.000000
Zn17  Zn    Zn3+2 0.974021 0.875947 0.604421 0.000000
Zn18  Zn    Zn3+2 0.681473 0.233502 0.014705 0.000000
Zn19  Zn    Zn3+2 0.918527 0.126419 0.012441 0.000000
Zn20  Zn    Zn3+2 0.998502 0.414222 0.322649 0.000000
Zn21  Zn    Zn3+2 0.612026 0.009640 0.213491 0.000000
Zn22  Zn    Zn3+2 0.607358 0.058935 0.600222 0.000000
Zn23  Zn    Zn3+2 0.588954 0.804147 0.499372 0.000000
Zn24  Zn    Zn3+2 0.778688 0.620114 0.512383 0.000000
Zn25  Zn    Zn3+2 0.167526 0.827089 0.511881 0.000000
Zn26  Zn    Zn3+2 0.418833 0.456802 0.510476 0.000000
Zn27  Zn    Zn3+2 0.996380 0.259975 0.608847 0.000000
Zn28  Zn    Zn3+2 0.977939 0.012837 0.495027 0.000000
Zn29  Zn    Zn3+2 0.994580 0.172351 0.205090 0.000000
Zn30  Zn    Zn3+2 0.919458 0.347577 0.014472 0.000000
Zn31  Zn    Zn3+2 0.394339 0.205864 0.461438 0.000000
Zn32  Zn    Zn3+2 0.409574 0.429620 0.310208 0.000000
Zn33  Zn    Zn3+2 0.186451 0.227788 0.307195 0.000000
Zn34  Zn    Zn3+2 0.993271 0.550934 0.215731 0.000000
Zn35  Zn    Zn3+2 0.177135 0.041363 0.367867 0.000000
Zn36  Zn    Zn3+2 0.183789 0.805760 0.310777 0.000000
Zn37  Zn    Zn3+2 0.182790 0.600902 0.461541 0.000000
Zn38  Zn    Zn3+2 0.186358 0.405814 0.502188 0.000000
Br1   Br    Br    0.417511 0.976023 0.244674 0.000000
C1    C     C_R   0.423066 0.045639 0.296236 0.000000
C2    C     C_R   0.381685 0.041511 0.327619 0.000000
C3    C     C_R   0.385745 0.090841 0.366264 0.000000
C4    C     C_R   0.430234 0.143688 0.370925 0.000000
N1    N     N_R   0.441190 0.195441 0.406277 0.000000
C5    C     C_R   0.490224 0.233279 0.395420 0.000000
N2    N     N_R   0.510956 0.206449 0.354538 0.000000
C6    C     C_R   0.471276 0.149237 0.340141 0.000000
C7    C     C_R   0.468886 0.098847 0.303025 0.000000
H1    H     H_    0.346933 0.999250 0.322558 0.000000
H2    H     H_    0.354992 0.087344 0.392236 0.000000
H3    H     H_    0.509717 0.278885 0.417936 0.000000
H4    H     H_    0.501660 0.098093 0.280619 0.000000
Br2   Br    Br    0.577304 0.433247 0.513792 0.000000
C8    C     C_R   0.615411 0.390296 0.480522 0.000000
C9    C     C_R   0.652963 0.396360 0.505477 0.000000
C10   C     C_R   0.690412 0.378610 0.482351 0.000000
C11   C     C_R   0.688438 0.355185 0.434645 0.000000
N3    N     N_R   0.724890 0.342671 0.405631 0.000000
C12   C     C_R   0.699060 0.310357 0.363075 0.000000
N4    N     N_R   0.648521 0.304463 0.365645 0.000000
C13   C     C_R   0.645307 0.337031 0.410972 0.000000
C14   C     C_R   0.609138 0.357272 0.432677 0.000000
H5    H     H_    0.655081 0.418731 0.542842 0.000000
H6    H     H_    0.720230 0.383311 0.501286 0.000000
H7    H     H_    0.715470 0.289038 0.331406 0.000000
H8    H     H_    0.580895 0.352716 0.412249 0.000000
Br3   Br    Br    0.569015 0.683012 0.223065 0.000000
C15   C     C_R   0.528059 0.723413 0.254744 0.000000
C16   C     C_R   0.530255 0.764496 0.239931 0.000000
C17   C     C_R   0.499927 0.793681 0.261270 0.000000
C18   C     C_R   0.466383 0.779472 0.296554 0.000000
N5    N     N_R   0.431385 0.799723 0.320852 0.000000
C19   C     C_R   0.404942 0.764866 0.346788 0.000000
N6    N     N_R   0.423269 0.725413 0.340209 0.000000
C20   C     C_R   0.462568 0.736824 0.309288 0.000000
C21   C     C_R   0.494669 0.709975 0.290664 0.000000
H9    H     H_    0.556018 0.773832 0.211409 0.000000
H10   H     H_    0.502617 0.825137 0.249142 0.000000
H11   H     H_    0.372151 0.767538 0.369302 0.000000
H12   H     H_    0.492461 0.677742 0.302250 0.000000
Br4   Br    Br    0.307109 0.602364 0.205412 0.000000
C22   C     C_R   0.288609 0.665116 0.234594 0.000000
C23   C     C_R   0.236200 0.652242 0.234238 0.000000
C24   C     C_R   0.221456 0.696739 0.254471 0.000000
C25   C     C_R   0.259676 0.753645 0.275674 0.000000
N7    N     N_R   0.253839 0.803127 0.298409 0.000000
C26   C     C_R   0.304514 0.846311 0.313402 0.000000
N8    N     N_R   0.340857 0.824844 0.300350 0.000000
C27   C     C_R   0.311057 0.766363 0.276892 0.000000
C28   C     C_R   0.326962 0.722830 0.255767 0.000000
H13   H     H_    0.206588 0.607113 0.217788 0.000000
H14   H     H_    0.181175 0.686012 0.253137 0.000000
H15   H     H_    0.314375 0.892061 0.334934 0.000000
H16   H     H_    0.367894 0.732752 0.254052 0.000000
Br5   Br    Br    0.976365 0.757510 0.205156 0.000000
C29   C     C_R   0.924125 0.764259 0.251108 0.000000
C30   C     C_R   0.923393 0.818445 0.273202 0.000000
C31   C     C_R   0.883051 0.823452 0.303654 0.000000
C32   C     C_R   0.844488 0.773380 0.310735 0.000000
N9    N     N_R   0.799580 0.766925 0.335137 0.000000
C33   C     C_R   0.777683 0.709850 0.333213 0.000000
N10   N     N_R   0.807561 0.681441 0.308403 0.000000
C34   C     C_R   0.847909 0.721875 0.292793 0.000000
C35   C     C_R   0.886633 0.715304 0.261402 0.000000
H17   H     H_    0.953415 0.856288 0.265165 0.000000
H18   H     H_    0.880685 0.864580 0.319629 0.000000
H19   H     H_    0.741024 0.689329 0.350111 0.000000
H20   H     H_    0.885714 0.672742 0.243025 0.000000
Br6   Br    Br    0.812616 0.356065 0.286224 0.000000
C36   C     C_R   0.828027 0.426679 0.281047 0.000000
C37   C     C_R   0.791905 0.447296 0.302003 0.000000
C38   C     C_R   0.799303 0.498507 0.301034 0.000000
C39   C     C_R   0.844245 0.529890 0.281194 0.000000
N11   N     N_R   0.857955 0.582118 0.279642 0.000000
C40   C     C_R   0.907290 0.595437 0.258518 0.000000
N12   N     N_R   0.922617 0.551776 0.245803 0.000000
C41   C     C_R   0.881101 0.510923 0.260715 0.000000
C42   C     C_R   0.872038 0.456534 0.257712 0.000000
H21   H     H_    0.757410 0.422669 0.318906 0.000000
H22   H     H_    0.770232 0.512790 0.316407 0.000000
H23   H     H_    0.932039 0.635826 0.252208 0.000000
H24   H     H_    0.897618 0.437270 0.237829 0.000000
Br7   Br    Br    0.017867 0.622423 0.362100 0.000000
C43   C     C_R   0.965396 0.562991 0.383317 0.000000
C44   C     C_R   0.913313 0.553663 0.390833 0.000000
C45   C     C_R   0.874518 0.503740 0.399152 0.000000
C46   C     C_R   0.888538 0.462602 0.396519 0.000000
N13   N     N_R   0.857328 0.407780 0.396970 0.000000
C47   C     C_R   0.888145 0.379738 0.375896 0.000000
N14   N     N_R   0.936507 0.415743 0.362536 0.000000
C48   C     C_R   0.936584 0.468023 0.379936 0.000000
C49   C     C_R   0.977519 0.520047 0.379111 0.000000
H25   H     H_    0.902192 0.583253 0.387337 0.000000
H26   H     H_    0.833881 0.492901 0.398566 0.000000
H27   H     H_    0.875595 0.334210 0.370318 0.000000
H28   H     H_    0.016667 0.524760 0.368451 0.000000
Br8   Br    Br    0.439213 0.135401 0.107874 0.000000
C50   C     C_R   0.484695 0.175189 0.160491 0.000000
C51   C     C_R   0.479334 0.146079 0.188640 0.000000
C52   C     C_R   0.513039 0.174244 0.226041 0.000000
C53   C     C_R   0.548825 0.232350 0.236650 0.000000
N15   N     N_R   0.580260 0.269427 0.274503 0.000000
C54   C     C_R   0.603162 0.323197 0.269618 0.000000
N16   N     N_R   0.587011 0.319233 0.229680 0.000000
C55   C     C_R   0.552799 0.261550 0.210342 0.000000
C56   C     C_R   0.522226 0.233602 0.171238 0.000000
H29   H     H_    0.447976 0.101803 0.182047 0.000000
H30   H     H_    0.509688 0.152429 0.247544 0.000000
H31   H     H_    0.630255 0.364314 0.294934 0.000000
H32   H     H_    0.526349 0.256217 0.149847 0.000000
Br9   Br    Br    0.755920 0.646668 0.150494 0.000000
C57   C     C_R   0.722029 0.584365 0.173573 0.000000
C58   C     C_R   0.673674 0.536559 0.154795 0.000000
C59   C     C_R   0.649151 0.490381 0.170492 0.000000
C60   C     C_R   0.674075 0.492921 0.204106 0.000000
N17   N     N_R   0.658200 0.451705 0.222363 0.000000
C61   C     C_R   0.696239 0.478036 0.255442 0.000000
N18   N     N_R   0.734257 0.534622 0.258753 0.000000
C62   C     C_R   0.719691 0.541206 0.224601 0.000000
C63   C     C_R   0.745323 0.587382 0.209306 0.000000
H33   H     H_    0.655024 0.535548 0.127941 0.000000
H34   H     H_    0.610911 0.454607 0.158226 0.000000
H35   H     H_    0.694478 0.456765 0.277716 0.000000
H36   H     H_    0.783217 0.623770 0.222939 0.000000
Br10  Br    Br    0.317886 0.275838 0.125324 0.000000
C64   C     C_R   0.382291 0.302304 0.153705 0.000000
C65   C     C_R   0.419687 0.285043 0.127409 0.000000
C66   C     C_R   0.468668 0.308200 0.146210 0.000000
C67   C     C_R   0.480052 0.350098 0.191016 0.000000
N19   N     N_R   0.525449 0.380389 0.215877 0.000000
C68   C     C_R   0.512145 0.413712 0.258394 0.000000
N20   N     N_R   0.460963 0.405539 0.260214 0.000000
C69   C     C_R   0.442286 0.365117 0.217255 0.000000
C70   C     C_R   0.392660 0.341042 0.199724 0.000000
H37   H     H_    0.410949 0.254161 0.091533 0.000000
H38   H     H_    0.496735 0.294333 0.124883 0.000000
H39   H     H_    0.538433 0.441038 0.288072 0.000000
H40   H     H_    0.363788 0.355161 0.219839 0.000000
Br11  Br    Br    0.965133 0.537473 0.571687 0.000000
C71   C     C_R   0.916326 0.455041 0.550279 0.000000
C72   C     C_R   0.914539 0.419910 0.571649 0.000000
C73   C     C_R   0.881228 0.359339 0.554701 0.000000
C74   C     C_R   0.846734 0.335809 0.518843 0.000000
N21   N     N_R   0.813088 0.278405 0.494685 0.000000
C75   C     C_R   0.790525 0.283451 0.463322 0.000000
N22   N     N_R   0.807710 0.341284 0.468408 0.000000
C76   C     C_R   0.845451 0.371969 0.501302 0.000000
C77   C     C_R   0.882777 0.430416 0.513384 0.000000
H41   H     H_    0.941860 0.439251 0.599730 0.000000
H42   H     H_    0.885477 0.332217 0.567902 0.000000
H43   H     H_    0.764838 0.245527 0.435413 0.000000
H44   H     H_    0.884613 0.457082 0.495880 0.000000
Br12  Br    Br    0.594381 0.094702 0.461722 0.000000
C78   C     C_R   0.649216 0.079018 0.426457 0.000000
C79   C     C_R   0.640771 0.033170 0.382842 0.000000
C80   C     C_R   0.682647 0.023961 0.358012 0.000000
C81   C     C_R   0.732065 0.062709 0.377505 0.000000
N23   N     N_R   0.778405 0.063304 0.360337 0.000000
C82   C     C_R   0.812525 0.106359 0.396469 0.000000
N24   N     N_R   0.789789 0.135661 0.434543 0.000000
C83   C     C_R   0.739393 0.106588 0.420485 0.000000
C84   C     C_R   0.699135 0.117326 0.444738 0.000000
H45   H     H_    0.601620 0.005455 0.367563 0.000000
H46   H     H_    0.676084 0.987396 0.324956 0.000000
H47   H     H_    0.852070 0.112616 0.393594 0.000000
H48   H     H_    0.705964 0.156150 0.475935 0.000000
Br13  Br    Br    0.529863 0.191993 0.462010 0.000000
C85   C     C_R   0.504631 0.108481 0.432057 0.000000
C86   C     C_R   0.505729 0.080135 0.383989 0.000000
C87   C     C_R   0.481678 0.018823 0.362848 0.000000
C88   C     C_R   0.458139 0.986741 0.390946 0.000000
N25   N     N_R   0.428011 0.927631 0.379298 0.000000
C89   C     C_R   0.403896 0.923527 0.420750 0.000000
N26   N     N_R   0.419364 0.977717 0.456749 0.000000
C90   C     C_R   0.455006 0.015314 0.437294 0.000000
C91   C     C_R   0.480519 0.075336 0.459281 0.000000
H49   H     H_    0.523790 0.105874 0.362624 0.000000
H50   H     H_    0.476916 0.998262 0.325755 0.000000
H51   H     H_    0.373462 0.882430 0.423920 0.000000
H52   H     H_    0.479942 0.096643 0.496798 0.000000
Br14  Br    Br    0.325708 0.157342 0.692593 0.000000
C92   C     C_R   0.353048 0.164301 0.633971 0.000000
C93   C     C_R   0.369564 0.216912 0.628448 0.000000
C94   C     C_R   0.383401 0.220178 0.584737 0.000000
C95   C     C_R   0.386676 0.172543 0.548234 0.000000
N27   N     N_R   0.395122 0.162662 0.501966 0.000000
C96   C     C_R   0.394739 0.108189 0.484574 0.000000
N28   N     N_R   0.388480 0.085731 0.518143 0.000000
C97   C     C_R   0.379351 0.125288 0.556612 0.000000
C98   C     C_R   0.355905 0.116861 0.596808 0.000000
H53   H     H_    0.367173 0.253979 0.657570 0.000000
H54   H     H_    0.389836 0.258961 0.580527 0.000000
H55   H     H_    0.398541 0.084962 0.447866 0.000000
H56   H     H_    0.338886 0.073763 0.598740 0.000000
Br15  Br    Br    0.870211 0.864110 0.132381 0.000000
C99   C     C_R   0.839723 0.862800 0.191716 0.000000
C100  C     C_R   0.827328 0.815279 0.203492 0.000000
C101  C     C_R   0.804980 0.813470 0.246416 0.000000
C102  C     C_R   0.797752 0.861156 0.277596 0.000000
N29   N     N_R   0.778817 0.870611 0.321707 0.000000
C103  C     C_R   0.771180 0.919129 0.331804 0.000000
N30   N     N_R   0.788075 0.941610 0.297380 0.000000
C104  C     C_R   0.805799 0.905012 0.264324 0.000000
C105  C     C_R   0.827879 0.907916 0.221997 0.000000
H57   H     H_    0.834862 0.779166 0.178713 0.000000
H58   H     H_    0.792010 0.774705 0.254009 0.000000
H59   H     H_    0.753853 0.938804 0.363207 0.000000
H60   H     H_    0.834386 0.943199 0.212037 0.000000
Br16  Br    Br    0.437007 0.876728 0.524197 0.000000
C106  C     C_R   0.375778 0.803865 0.496962 0.000000
C107  C     C_R   0.328454 0.790645 0.521107 0.000000
C108  C     C_R   0.284355 0.736798 0.502488 0.000000
C109  C     C_R   0.288132 0.696936 0.459021 0.000000
N31   N     N_R   0.252310 0.640388 0.435575 0.000000
C110  C     C_R   0.280699 0.619364 0.399201 0.000000
N32   N     N_R   0.332142 0.661174 0.399497 0.000000
C111  C     C_R   0.335055 0.709427 0.436673 0.000000
C112  C     C_R   0.379459 0.762936 0.454303 0.000000
H61   H     H_    0.326248 0.822076 0.555279 0.000000
H62   H     H_    0.249663 0.727422 0.523505 0.000000
H63   H     H_    0.265692 0.573379 0.375807 0.000000
H64   H     H_    0.416669 0.773339 0.436104 0.000000
Br17  Br    Br    0.425578 0.590238 0.161112 0.000000
C113  C     C_R   0.414516 0.556701 0.206027 0.000000
C114  C     C_R   0.423898 0.508577 0.193354 0.000000
C115  C     C_R   0.419132 0.485172 0.225703 0.000000
C116  C     C_R   0.405116 0.510760 0.270574 0.000000
N33   N     N_R   0.402103 0.498008 0.308146 0.000000
C117  C     C_R   0.396311 0.544127 0.344403 0.000000
N34   N     N_R   0.394649 0.583611 0.330294 0.000000
C118  C     C_R   0.398885 0.560194 0.283554 0.000000
C119  C     C_R   0.401029 0.582613 0.251621 0.000000
H65   H     H_    0.436232 0.490011 0.158095 0.000000
H66   H     H_    0.429949 0.450875 0.216195 0.000000
H67   H     H_    0.395990 0.550228 0.380581 0.000000
H68   H     H_    0.394018 0.620279 0.261925 0.000000
Br18  Br    Br    0.727286 0.994870 0.608727 0.000000
C120  C     C_R   0.723196 0.986901 0.666460 0.000000
C121  C     C_R   0.731150 0.943341 0.669166 0.000000
C122  C     C_R   0.723450 0.935347 0.710777 0.000000
C123  C     C_R   0.701860 0.966568 0.746767 0.000000
N35   N     N_R   0.685981 0.962312 0.788554 0.000000
C124  C     C_R   0.674392 0.008400 0.812673 0.000000
N36   N     N_R   0.681672 0.039786 0.786461 0.000000
C125  C     C_R   0.698222 0.011827 0.745235 0.000000
C126  C     C_R   0.711073 0.024921 0.706095 0.000000
H69   H     H_    0.744200 0.916073 0.639300 0.000000
H70   H     H_    0.734287 0.905867 0.714660 0.000000
H71   H     H_    0.662436 0.019756 0.848908 0.000000
H72   H     H_    0.710765 0.062484 0.705540 0.000000
Br19  Br    Br    0.746489 0.773474 0.875300 0.000000
C127  C     C_R   0.781206 0.837307 0.853848 0.000000
C128  C     C_R   0.836237 0.866603 0.852376 0.000000
C129  C     C_R   0.861987 0.912668 0.836400 0.000000
C130  C     C_R   0.831401 0.927455 0.821736 0.000000
N37   N     N_R   0.847165 0.971210 0.806338 0.000000
C131  C     C_R   0.801458 0.969278 0.800136 0.000000
N38   N     N_R   0.758184 0.925275 0.810510 0.000000
C132  C     C_R   0.778048 0.899776 0.824046 0.000000
C133  C     C_R   0.751428 0.854410 0.840059 0.000000
H73   H     H_    0.859090 0.853549 0.864026 0.000000
H74   H     H_    0.904436 0.936501 0.836323 0.000000
H75   H     H_    0.799827 0.000396 0.789648 0.000000
H76   H     H_    0.709009 0.832974 0.842170 0.000000
Br20  Br    Br    0.547993 0.709057 0.879308 0.000000
C134  C     C_R   0.567397 0.714598 0.819440 0.000000
C135  C     C_R   0.543596 0.665269 0.779438 0.000000
C136  C     C_R   0.557503 0.668614 0.735757 0.000000
C137  C     C_R   0.595687 0.722087 0.733076 0.000000
N39   N     N_R   0.615211 0.736338 0.694878 0.000000
C138  C     C_R   0.647410 0.796232 0.714002 0.000000
N40   N     N_R   0.647952 0.819831 0.762132 0.000000
C139  C     C_R   0.616306 0.771437 0.772801 0.000000
C140  C     C_R   0.603996 0.768399 0.816338 0.000000
H77   H     H_    0.513696 0.623859 0.782402 0.000000
H78   H     H_    0.536594 0.630410 0.705622 0.000000
H79   H     H_    0.666824 0.821483 0.692242 0.000000
H80   H     H_    0.621950 0.806376 0.847590 0.000000
Br21  Br    Br    0.452034 0.791722 0.849772 0.000000
C141  C     C_R   0.516044 0.846527 0.884917 0.000000
C142  C     C_R   0.514744 0.865352 0.933409 0.000000
C143  C     C_R   0.560855 0.905079 0.959591 0.000000
C144  C     C_R   0.607490 0.925312 0.936176 0.000000
N41   N     N_R   0.656825 0.964713 0.953639 0.000000
C145  C     C_R   0.687822 0.962239 0.914417 0.000000
N42   N     N_R   0.659386 0.923744 0.873844 0.000000
C146  C     C_R   0.608980 0.903069 0.888634 0.000000
C147  C     C_R   0.563800 0.865362 0.861884 0.000000
H81   H     H_    0.477415 0.848479 0.950870 0.000000
H82   H     H_    0.559975 0.916675 0.996707 0.000000
H83   H     H_    0.730358 0.989038 0.915336 0.000000
H84   H     H_    0.565471 0.849986 0.824181 0.000000
Br22  Br    Br    0.470140 0.019887 0.977308 0.000000
C148  C     C_R   0.530149 0.053757 0.942192 0.000000
C149  C     C_R   0.533169 0.020702 0.895246 0.000000
C150  C     C_R   0.574109 0.045479 0.867799 0.000000
C151  C     C_R   0.609469 0.104419 0.887636 0.000000
N43   N     N_R   0.652671 0.137019 0.867840 0.000000
C152  C     C_R   0.680488 0.186069 0.906233 0.000000
N44   N     N_R   0.654595 0.185929 0.947881 0.000000
C153  C     C_R   0.609629 0.134575 0.934757 0.000000
C154  C     C_R   0.570378 0.110527 0.963181 0.000000
H85   H     H_    0.503200 0.975220 0.879986 0.000000
H86   H     H_    0.578043 0.018711 0.832085 0.000000
H87   H     H_    0.721063 0.218225 0.904865 0.000000
H88   H     H_    0.570336 0.135412 0.000308 0.000000
Br23  Br    Br    0.414498 0.908738 0.673194 0.000000
C155  C     C_R   0.481561 0.972543 0.698913 0.000000
C156  C     C_R   0.491598 0.992829 0.746164 0.000000
C157  C     C_R   0.541588 0.035444 0.764591 0.000000
C158  C     C_R   0.580893 0.055623 0.734873 0.000000
N45   N     N_R   0.633001 0.093023 0.744065 0.000000
C159  C     C_R   0.650995 0.101442 0.702342 0.000000
N46   N     N_R   0.612410 0.069090 0.668112 0.000000
C160  C     C_R   0.569446 0.039885 0.689665 0.000000
C161  C     C_R   0.520387 0.997715 0.670308 0.000000
H89   H     H_    0.460206 0.974941 0.768700 0.000000
H90   H     H_    0.548353 0.054837 0.801383 0.000000
H91   H     H_    0.692092 0.128492 0.696231 0.000000
H92   H     H_    0.512827 0.983109 0.633692 0.000000
Br24  Br    Br    0.706421 0.352500 0.893471 0.000000
C162  C     C_R   0.750827 0.315135 0.866087 0.000000
C163  C     C_R   0.804346 0.346568 0.877495 0.000000
C164  C     C_R   0.836929 0.319648 0.858986 0.000000
C165  C     C_R   0.815192 0.261681 0.827967 0.000000
N47   N     N_R   0.837759 0.225179 0.808087 0.000000
C166  C     C_R   0.795331 0.170276 0.791471 0.000000
N48   N     N_R   0.748364 0.172260 0.798898 0.000000
C167  C     C_R   0.762191 0.230172 0.820252 0.000000
C168  C     C_R   0.728945 0.255670 0.837524 0.000000
H93   H     H_    0.820504 0.392126 0.901895 0.000000
H94   H     H_    0.877188 0.343161 0.870950 0.000000
H95   H     H_    0.798028 0.129391 0.777436 0.000000
H96   H     H_    0.686816 0.229652 0.830713 0.000000
Br25  Br    Br    0.153806 0.183979 0.852466 0.000000
C169  C     C_R   0.088171 0.158060 0.884416 0.000000
C170  C     C_R   0.087466 0.179878 0.933150 0.000000
C171  C     C_R   0.040139 0.162362 0.957207 0.000000
C172  C     C_R   0.994718 0.122131 0.931168 0.000000
N49   N     N_R   0.944536 0.101122 0.946659 0.000000
C173  C     C_R   0.915347 0.066098 0.906176 0.000000
N50   N     N_R   0.945764 0.064680 0.866510 0.000000
C174  C     C_R   0.995439 0.100609 0.883472 0.000000
C175  C     C_R   0.041559 0.118227 0.858907 0.000000
H97   H     H_    0.124197 0.211299 0.952419 0.000000
H98   H     H_    0.039059 0.179820 0.994990 0.000000
H99   H     H_    0.872544 0.044665 0.905671 0.000000
H100  H     H_    0.041527 0.101722 0.821130 0.000000
Br26  Br    Br    0.857043 0.087076 0.617527 0.000000
C176  C     C_R   0.864680 0.079983 0.672664 0.000000
C177  C     C_R   0.858579 0.027428 0.671910 0.000000
C178  C     C_R   0.871532 0.024931 0.710427 0.000000
C179  C     C_R   0.895410 0.077396 0.747149 0.000000
N51   N     N_R   0.915624 0.087745 0.786582 0.000000
C180  C     C_R   0.927820 0.146026 0.812852 0.000000
N52   N     N_R   0.916251 0.171249 0.790293 0.000000
C181  C     C_R   0.896795 0.127191 0.749181 0.000000
C182  C     C_R   0.878953 0.129003 0.713397 0.000000
H101  H     H_    0.842927 0.988290 0.641320 0.000000
H102  H     H_    0.863004 0.983365 0.711343 0.000000
H103  H     H_    0.942651 0.168763 0.848321 0.000000
H104  H     H_    0.877726 0.167722 0.715839 0.000000
Br27  Br    Br    0.076999 0.856979 0.740969 0.000000
C183  C     C_R   0.035949 0.894668 0.745274 0.000000
C184  C     C_R   0.027490 0.931782 0.788787 0.000000
C185  C     C_R   0.998917 0.960948 0.792893 0.000000
C186  C     C_R   0.978941 0.951612 0.752752 0.000000
N53   N     N_R   0.952101 0.976975 0.748036 0.000000
C187  C     C_R   0.946522 0.954528 0.700103 0.000000
N54   N     N_R   0.966385 0.914745 0.675732 0.000000
C188  C     C_R   0.987164 0.914744 0.709978 0.000000
C189  C     C_R   0.015663 0.885798 0.705071 0.000000
H105  H     H_    0.043991 0.938535 0.819745 0.000000
H106  H     H_    0.993695 0.990747 0.826554 0.000000
H107  H     H_    0.930847 0.968938 0.682787 0.000000
H108  H     H_    0.022453 0.857519 0.671082 0.000000
Br28  Br    Br    0.503030 0.848153 0.743500 0.000000
C190  C     C_R   0.532335 0.830738 0.682300 0.000000
C191  C     C_R   0.525031 0.849693 0.651486 0.000000
C192  C     C_R   0.545660 0.836782 0.607012 0.000000
C193  C     C_R   0.576274 0.808317 0.595388 0.000000
N55   N     N_R   0.595552 0.787518 0.552906 0.000000
C194  C     C_R   0.611272 0.751266 0.557436 0.000000
N56   N     N_R   0.601089 0.747751 0.600673 0.000000
C195  C     C_R   0.579850 0.785276 0.623982 0.000000
C196  C     C_R   0.557982 0.796235 0.668022 0.000000
H109  H     H_    0.501584 0.872787 0.661725 0.000000
H110  H     H_    0.534562 0.845139 0.581370 0.000000
H111  H     H_    0.627204 0.725889 0.529330 0.000000
H112  H     H_    0.559694 0.779082 0.691609 0.000000
Br29  Br    Br    0.672281 0.484758 0.640652 0.000000
C197  C     C_R   0.660597 0.534831 0.622729 0.000000
C198  C     C_R   0.623792 0.554264 0.646901 0.000000
C199  C     C_R   0.617322 0.593604 0.636483 0.000000
C200  C     C_R   0.650035 0.615342 0.604230 0.000000
N57   N     N_R   0.653205 0.658167 0.593223 0.000000
C201  C     C_R   0.693546 0.664333 0.561046 0.000000
N58   N     N_R   0.714554 0.626151 0.551776 0.000000
C202  C     C_R   0.685795 0.596118 0.579904 0.000000
C203  C     C_R   0.690099 0.553507 0.587181 0.000000
H113  H     H_    0.600447 0.539009 0.674224 0.000000
H114  H     H_    0.588712 0.608343 0.654004 0.000000
H115  H     H_    0.707691 0.697061 0.545773 0.000000
H116  H     H_    0.715059 0.534547 0.566337 0.000000
Br30  Br    Br    0.311314 0.562612 0.687629 0.000000
C204  C     C_R   0.380585 0.582658 0.662339 0.000000
C205  C     C_R   0.421704 0.636181 0.687560 0.000000
C206  C     C_R   0.472756 0.652925 0.670873 0.000000
C207  C     C_R   0.481553 0.614927 0.629246 0.000000
N59   N     N_R   0.528369 0.620223 0.608898 0.000000
C208  C     C_R   0.514345 0.567818 0.571131 0.000000
N60   N     N_R   0.460542 0.532892 0.564938 0.000000
C209  C     C_R   0.441173 0.562736 0.603577 0.000000
C210  C     C_R   0.389779 0.545122 0.619597 0.000000
H117  H     H_    0.413753 0.664802 0.720749 0.000000
H118  H     H_    0.504469 0.693103 0.691521 0.000000
H119  H     H_    0.543176 0.554491 0.549675 0.000000
H120  H     H_    0.357702 0.503085 0.600944 0.000000
Br31  Br    Br    0.693488 0.276761 0.217401 0.000000
C211  C     C_R   0.700671 0.222827 0.157795 0.000000
C212  C     C_R   0.706580 0.175733 0.155322 0.000000
C213  C     C_R   0.709621 0.134891 0.112300 0.000000
C214  C     C_R   0.698912 0.138036 0.073560 0.000000
N61   N     N_R   0.690259 0.097911 0.029674 0.000000
C215  C     C_R   0.682024 0.123208 0.005370 0.000000
N62   N     N_R   0.685049 0.177465 0.033258 0.000000
C216  C     C_R   0.695501 0.185101 0.075822 0.000000
C217  C     C_R   0.701576 0.231211 0.117289 0.000000
H121  H     H_    0.710112 0.171937 0.187049 0.000000
H122  H     H_    0.719245 0.101442 0.109621 0.000000
H123  H     H_    0.673443 0.102257 0.968342 0.000000
H124  H     H_    0.707972 0.272554 0.118041 0.000000
Br32  Br    Br    0.711681 0.821350 0.004865 0.000000
C218  C     C_R   0.755927 0.899590 0.005647 0.000000
C219  C     C_R   0.810294 0.919902 0.999140 0.000000
C220  C     C_R   0.843146 0.977208 0.000796 0.000000
C221  C     C_R   0.820578 0.013338 0.010029 0.000000
N63   N     N_R   0.843606 0.069889 0.012820 0.000000
C222  C     C_R   0.801800 0.080921 0.017748 0.000000
N64   N     N_R   0.754680 0.034099 0.019354 0.000000
C223  C     C_R   0.767466 0.992481 0.014591 0.000000
C224  C     C_R   0.733690 0.935859 0.012421 0.000000
H125  H     H_    0.827078 0.890575 0.992367 0.000000
H126  H     H_    0.884412 0.991695 0.993396 0.000000
H127  H     H_    0.805276 0.121562 0.018785 0.000000
H128  H     H_    0.691406 0.920367 0.016309 0.000000
Br33  Br    Br    0.430968 0.986772 0.132893 0.000000
C225  C     C_R   0.503132 0.006216 0.118273 0.000000
C226  C     C_R   0.522611 0.014643 0.076732 0.000000
C227  C     C_R   0.571091 0.017075 0.059930 0.000000
C228  C     C_R   0.597178 0.007548 0.084644 0.000000
N65   N     N_R   0.641825 0.001962 0.072695 0.000000
C229  C     C_R   0.652466 0.998333 0.111456 0.000000
N66   N     N_R   0.615828 0.001811 0.146479 0.000000
C230  C     C_R   0.581228 0.006399 0.127891 0.000000
C231  C     C_R   0.534149 0.006424 0.146247 0.000000
H129  H     H_    0.498317 0.016215 0.056404 0.000000
H130  H     H_    0.585556 0.021645 0.026776 0.000000
H131  H     H_    0.688656 0.998922 0.115819 0.000000
H132  H     H_    0.519905 0.001993 0.179462 0.000000
Br34  Br    Br    0.074926 0.502260 0.843541 0.000000
C232  C     C_R   0.033606 0.454381 0.879251 0.000000
C233  C     C_R   0.028686 0.480892 0.927241 0.000000
C234  C     C_R   0.998978 0.446698 0.953695 0.000000
C235  C     C_R   0.975400 0.386068 0.931166 0.000000
N67   N     N_R   0.943464 0.344145 0.949087 0.000000
C236  C     C_R   0.923801 0.293309 0.909909 0.000000
N68   N     N_R   0.943197 0.302233 0.868994 0.000000
C237  C     C_R   0.976935 0.360597 0.883661 0.000000
C238  C     C_R   0.007075 0.393433 0.856882 0.000000
H133  H     H_    0.048025 0.528682 0.944078 0.000000
H134  H     H_    0.993536 0.467666 0.990465 0.000000
H135  H     H_    0.893276 0.251150 0.911107 0.000000
H136  H     H_    0.010546 0.372708 0.819691 0.000000
Br35  Br    Br    0.908735 0.460451 0.805685 0.000000
C239  C     C_R   0.929323 0.402381 0.762307 0.000000
C240  C     C_R   0.945510 0.402200 0.717601 0.000000
C241  C     C_R   0.961864 0.361213 0.686337 0.000000
C242  C     C_R   0.961592 0.321775 0.701341 0.000000
N69   N     N_R   0.976100 0.279227 0.676925 0.000000
C243  C     C_R   0.968224 0.253047 0.707931 0.000000
N70   N     N_R   0.947546 0.276913 0.750288 0.000000
C244  C     C_R   0.944847 0.320821 0.744739 0.000000
C245  C     C_R   0.928657 0.361235 0.776029 0.000000
H137  H     H_    0.945814 0.434586 0.707371 0.000000
H138  H     H_    0.974910 0.360678 0.651542 0.000000
H139  H     H_    0.974797 0.215192 0.698746 0.000000
H140  H     H_    0.918584 0.363393 0.810969 0.000000
Br36  Br    Br    0.769753 0.765935 0.446513 0.000000
C246  C     C_R   0.822173 0.769653 0.476150 0.000000
C247  C     C_R   0.873763 0.812968 0.478894 0.000000
C248  C     C_R   0.910913 0.818886 0.504314 0.000000
C249  C     C_R   0.892766 0.785105 0.530770 0.000000
N71   N     N_R   0.915296 0.791653 0.567552 0.000000
C250  C     C_R   0.883002 0.737438 0.571748 0.000000
N72   N     N_R   0.841100 0.700767 0.540271 0.000000
C251  C     C_R   0.846716 0.735213 0.518931 0.000000
C252  C     C_R   0.808766 0.728297 0.494536 0.000000
H141  H     H_    0.883841 0.843461 0.462701 0.000000
H142  H     H_    0.952042 0.849342 0.503782 0.000000
H143  H     H_    0.889180 0.725644 0.597781 0.000000
H144  H     H_    0.768688 0.694216 0.491943 0.000000
Br37  Br    Br    0.157847 0.104557 0.691418 0.000000
C253  C     C_R   0.147002 0.030921 0.642086 0.000000
C254  C     C_R   0.190220 0.022994 0.618725 0.000000
C255  C     C_R   0.183709 0.967841 0.586683 0.000000
C256  C     C_R   0.133458 0.920983 0.579449 0.000000
N73   N     N_R   0.117576 0.862620 0.553321 0.000000
C257  C     C_R   0.063295 0.838336 0.560111 0.000000
N74   N     N_R   0.046007 0.879425 0.587305 0.000000
C258  C     C_R   0.091024 0.930325 0.600019 0.000000
C259  C     C_R   0.096281 0.984659 0.631299 0.000000
H145  H     H_    0.229560 0.059939 0.626396 0.000000
H146  H     H_    0.217632 0.963117 0.569104 0.000000
H147  H     H_    0.036128 0.791688 0.546719 0.000000
H148  H     H_    0.062297 0.990458 0.648783 0.000000
Br38  Br    Br    0.754872 0.877644 0.542982 0.000000
C260  C     C_R   0.822324 0.900301 0.562684 0.000000
C261  C     C_R   0.825296 0.875433 0.591078 0.000000
C262  C     C_R   0.873897 0.888339 0.603752 0.000000
C263  C     C_R   0.918417 0.924186 0.585791 0.000000
N75   N     N_R   0.966752 0.928002 0.582781 0.000000
C264  C     C_R   0.993931 0.958798 0.554216 0.000000
N76   N     N_R   0.963029 0.971877 0.538103 0.000000
C265  C     C_R   0.915757 0.949323 0.558572 0.000000
C266  C     C_R   0.867743 0.939843 0.547867 0.000000
H149  H     H_    0.789454 0.844612 0.602262 0.000000
H150  H     H_    0.876199 0.866378 0.623650 0.000000
H151  H     H_    0.033330 0.965666 0.541456 0.000000
H152  H     H_    0.864565 0.959175 0.526493 0.000000
Br39  Br    Br    0.883360 0.535159 0.012607 0.000000
C267  C     C_R   0.840383 0.457412 0.013107 0.000000
C268  C     C_R   0.785479 0.432710 0.011903 0.000000
C269  C     C_R   0.753597 0.376213 0.012186 0.000000
C270  C     C_R   0.777986 0.345822 0.013577 0.000000
N77   N     N_R   0.755927 0.290884 0.013824 0.000000
C271  C     C_R   0.798488 0.283061 0.014333 0.000000
N78   N     N_R   0.845635 0.331429 0.015029 0.000000
C272  C     C_R   0.831488 0.369939 0.014469 0.000000
C273  C     C_R   0.864045 0.425794 0.014489 0.000000
H153  H     H_    0.767487 0.457785 0.010655 0.000000
H154  H     H_    0.711344 0.357083 0.010909 0.000000
H155  H     H_    0.795226 0.242924 0.014247 0.000000
H156  H     H_    0.906499 0.444551 0.015761 0.000000
Br40  Br    Br    0.526451 0.385052 0.026344 0.000000
C274  C     C_R   0.563336 0.350107 0.035840 0.000000
C275  C     C_R   0.582735 0.317020 0.997685 0.000000
C276  C     C_R   0.608651 0.290442 0.003943 0.000000
C277  C     C_R   0.615042 0.298444 0.048809 0.000000
N79   N     N_R   0.639251 0.276740 0.062186 0.000000
C278  C     C_R   0.631811 0.296505 0.110218 0.000000
N80   N     N_R   0.606469 0.331206 0.126744 0.000000
C279  C     C_R   0.596109 0.331141 0.086726 0.000000
C280  C     C_R   0.569812 0.357401 0.080758 0.000000
H157  H     H_    0.577310 0.311739 0.962821 0.000000
H158  H     H_    0.623924 0.265038 0.974315 0.000000
H159  H     H_    0.642491 0.285464 0.133937 0.000000
H160  H     H_    0.552304 0.381060 0.109397 0.000000
Br41  Br    Br    0.007953 0.957151 0.966469 0.000000
C281  C     C_R   0.997202 0.014487 0.021747 0.000000
C282  C     C_R   0.005439 0.018674 0.065354 0.000000
C283  C     C_R   0.999041 0.060997 0.105879 0.000000
C284  C     C_R   0.984193 0.097946 0.101194 0.000000
N81   N     N_R   0.978900 0.144067 0.135289 0.000000
C285  C     C_R   0.961772 0.163398 0.110976 0.000000
N82   N     N_R   0.956281 0.130628 0.063520 0.000000
C286  C     C_R   0.973000 0.091554 0.058627 0.000000
C287  C     C_R   0.980906 0.051322 0.018041 0.000000
H161  H     H_    0.017831 0.989309 0.067561 0.000000
H162  H     H_    0.006654 0.065657 0.139874 0.000000
H163  H     H_    0.952462 0.199964 0.127666 0.000000
H164  H     H_    0.974639 0.048200 0.984239 0.000000
Br42  Br    Br    0.815687 0.334625 0.170250 0.000000
C288  C     C_R   0.847901 0.288778 0.128925 0.000000
C289  C     C_R   0.844349 0.239422 0.132393 0.000000
C290  C     C_R   0.869657 0.208075 0.100058 0.000000
C291  C     C_R   0.897241 0.227856 0.064893 0.000000
N83   N     N_R   0.920119 0.202603 0.026866 0.000000
C292  C     C_R   0.934409 0.236921 0.001080 0.000000
N84   N     N_R   0.920917 0.282106 0.022403 0.000000
C293  C     C_R   0.898295 0.274826 0.061836 0.000000
C294  C     C_R   0.874091 0.305725 0.092972 0.000000
H165  H     H_    0.820248 0.224627 0.159352 0.000000
H166  H     H_    0.865838 0.168514 0.101547 0.000000
H167  H     H_    0.951630 0.227312 0.966578 0.000000
H168  H     H_    0.872460 0.340495 0.088633 0.000000
Br43  Br    Br    0.663777 0.235286 0.456913 0.000000
C295  C     C_R   0.651563 0.188660 0.391736 0.000000
C296  C     C_R   0.673716 0.151054 0.367440 0.000000
C297  C     C_R   0.654494 0.108126 0.323875 0.000000
C298  C     C_R   0.628156 0.117152 0.299777 0.000000
N85   N     N_R   0.614582 0.089578 0.254408 0.000000
C299  C     C_R   0.597905 0.124761 0.248749 0.000000
N86   N     N_R   0.598817 0.170507 0.289769 0.000000
C300  C     C_R   0.616764 0.162739 0.320596 0.000000
C301  C     C_R   0.619967 0.192247 0.367927 0.000000
H169  H     H_    0.704220 0.153283 0.383041 0.000000
H170  H     H_    0.662642 0.071563 0.308748 0.000000
H171  H     H_    0.583507 0.116198 0.216105 0.000000
H172  H     H_    0.599961 0.218725 0.385894 0.000000
Br44  Br    Br    0.451466 0.809452 0.060259 0.000000
C302  C     C_R   0.454408 0.835807 0.126535 0.000000
C303  C     C_R   0.410453 0.808597 0.150755 0.000000
C304  C     C_R   0.412685 0.826579 0.198683 0.000000
C305  C     C_R   0.458756 0.872802 0.221623 0.000000
N87   N     N_R   0.469768 0.895978 0.267639 0.000000
C306  C     C_R   0.521561 0.939944 0.270090 0.000000
N88   N     N_R   0.541461 0.945846 0.227991 0.000000
C307  C     C_R   0.501359 0.901268 0.198070 0.000000
C308  C     C_R   0.500587 0.882019 0.150107 0.000000
H173  H     H_    0.374450 0.772535 0.131997 0.000000
H174  H     H_    0.378784 0.805076 0.216932 0.000000
H175  H     H_    0.544407 0.967635 0.302066 0.000000
H176  H     H_    0.534834 0.900482 0.130460 0.000000
Br45  Br    Br    0.667866 0.763234 0.150575 0.000000
C309  C     C_R   0.665977 0.836955 0.174152 0.000000
C310  C     C_R   0.629581 0.842086 0.156395 0.000000
C311  C     C_R   0.628805 0.895753 0.172833 0.000000
C312  C     C_R   0.665947 0.943369 0.205502 0.000000
N89   N     N_R   0.671967 0.998848 0.225097 0.000000
C313  C     C_R   0.717255 0.029061 0.251654 0.000000
N90   N     N_R   0.735943 0.992972 0.252135 0.000000
C314  C     C_R   0.702908 0.939262 0.221925 0.000000
C315  C     C_R   0.702086 0.885414 0.208023 0.000000
H177  H     H_    0.601669 0.804011 0.129774 0.000000
H178  H     H_    0.601351 0.900506 0.158893 0.000000
H179  H     H_    0.735290 0.076085 0.272254 0.000000
H180  H     H_    0.728348 0.879785 0.222001 0.000000
Br46  Br    Br    0.587656 0.868729 0.350967 0.000000
C316  C     C_R   0.586359 0.901896 0.417170 0.000000
C317  C     C_R   0.577835 0.951121 0.439993 0.000000
C318  C     C_R   0.589518 0.983861 0.486953 0.000000
C319  C     C_R   0.599423 0.959985 0.511159 0.000000
N91   N     N_R   0.605635 0.980675 0.557427 0.000000
C320  C     C_R   0.607917 0.936093 0.563148 0.000000
N92   N     N_R   0.602723 0.888878 0.521738 0.000000
C321  C     C_R   0.599168 0.906791 0.490017 0.000000
C322  C     C_R   0.596523 0.878537 0.442485 0.000000
H181  H     H_    0.563370 0.964673 0.420737 0.000000
H182  H     H_    0.589275 0.025721 0.504859 0.000000
H183  H     H_    0.611318 0.937583 0.597104 0.000000
H184  H     H_    0.602605 0.840010 0.424985 0.000000
Br47  Br    Br    0.815259 0.379591 0.693989 0.000000
C323  C     C_R   0.768277 0.298383 0.661430 0.000000
C324  C     C_R   0.725202 0.267631 0.684442 0.000000
C325  C     C_R   0.690818 0.208691 0.661102 0.000000
C326  C     C_R   0.700989 0.181563 0.615096 0.000000
N93   N     N_R   0.673249 0.125137 0.585890 0.000000
C327  C     C_R   0.701107 0.123718 0.545052 0.000000
N94   N     N_R   0.745426 0.176597 0.547854 0.000000
C328  C     C_R   0.743463 0.211849 0.592602 0.000000
C329  C     C_R   0.777287 0.270400 0.614954 0.000000
H185  H     H_    0.718338 0.289875 0.720783 0.000000
H186  H     H_    0.657634 0.185608 0.679177 0.000000
H187  H     H_    0.687294 0.085320 0.513783 0.000000
H188  H     H_    0.809649 0.293951 0.596953 0.000000
Br48  Br    Br    0.533013 0.201413 0.763091 0.000000
C330  C     C_R   0.509170 0.154493 0.699971 0.000000
C331  C     C_R   0.461096 0.143062 0.686929 0.000000
C332  C     C_R   0.443091 0.107716 0.641477 0.000000
C333  C     C_R   0.474026 0.085510 0.609143 0.000000
N95   N     N_R   0.462449 0.047482 0.563989 0.000000
C334  C     C_R   0.503117 0.032277 0.552736 0.000000
N96   N     N_R   0.539300 0.060102 0.588675 0.000000
C335  C     C_R   0.519587 0.093608 0.623101 0.000000
C336  C     C_R   0.538295 0.128651 0.668034 0.000000
H189  H     H_    0.436594 0.159983 0.712820 0.000000
H190  H     H_    0.403501 0.092694 0.633718 0.000000
H191  H     H_    0.504639 0.999992 0.519110 0.000000
H192  H     H_    0.573744 0.134929 0.679086 0.000000
Br49  Br    Br    0.615352 0.608355 0.253093 0.000000
C337  C     C_R   0.618994 0.667718 0.313202 0.000000
C338  C     C_R   0.574897 0.657667 0.341958 0.000000
C339  C     C_R   0.579084 0.694206 0.388724 0.000000
C340  C     C_R   0.626415 0.744110 0.404415 0.000000
N97   N     N_R   0.638784 0.788863 0.446832 0.000000
C341  C     C_R   0.690536 0.826178 0.441652 0.000000
N98   N     N_R   0.710346 0.806018 0.398013 0.000000
C342  C     C_R   0.668761 0.755077 0.375408 0.000000
C343  C     C_R   0.666546 0.717871 0.329566 0.000000
H193  H     H_    0.538014 0.618160 0.328671 0.000000
H194  H     H_    0.546882 0.681059 0.411962 0.000000
H195  H     H_    0.712065 0.868627 0.468458 0.000000
H196  H     H_    0.700660 0.726961 0.307030 0.000000
Br50  Br    Br    0.397419 0.662165 0.599107 0.000000
C344  C     C_R   0.413229 0.663990 0.538369 0.000000
C345  C     C_R   0.373337 0.630414 0.505238 0.000000
C346  C     C_R   0.382982 0.637136 0.463030 0.000000
C347  C     C_R   0.431708 0.680000 0.456628 0.000000
N99   N     N_R   0.446975 0.698118 0.420793 0.000000
C348  C     C_R   0.497541 0.742004 0.431861 0.000000
N100  N     N_R   0.514837 0.750774 0.473066 0.000000
C349  C     C_R   0.471665 0.711402 0.488095 0.000000
C350  C     C_R   0.463632 0.701916 0.528853 0.000000
H197  H     H_    0.334466 0.599812 0.512771 0.000000
H198  H     H_    0.352448 0.610248 0.436764 0.000000
H199  H     H_    0.521478 0.764676 0.408870 0.000000
H200  H     H_    0.493694 0.724099 0.554192 0.000000
Br51  Br    Br    0.561495 0.444152 0.417750 0.000000
C351  C     C_R   0.629761 0.499637 0.406296 0.000000
C352  C     C_R   0.634476 0.509757 0.366076 0.000000
C353  C     C_R   0.681445 0.550252 0.354962 0.000000
C354  C     C_R   0.724651 0.573683 0.381278 0.000000
N101  N     N_R   0.775607 0.603135 0.370790 0.000000
C355  C     C_R   0.801627 0.619582 0.410167 0.000000
N102  N     N_R   0.767989 0.600754 0.443989 0.000000
C356  C     C_R   0.720167 0.568789 0.423095 0.000000
C357  C     C_R   0.672456 0.531575 0.437105 0.000000
H201  H     H_    0.600373 0.486797 0.343975 0.000000
H202  H     H_    0.683446 0.563086 0.326765 0.000000
H203  H     H_    0.844077 0.645015 0.414215 0.000000
H204  H     H_    0.669038 0.525268 0.469308 0.000000
Br52  Br    Br    0.821216 0.495510 0.658008 0.000000
C358  C     C_R   0.818942 0.520019 0.611030 0.000000
C359  C     C_R   0.824918 0.576559 0.623595 0.000000
C360  C     C_R   0.818286 0.592874 0.590579 0.000000
C361  C     C_R   0.809426 0.553014 0.545159 0.000000
N103  N     N_R   0.792281 0.555356 0.510148 0.000000
C362  C     C_R   0.783830 0.502305 0.474464 0.000000
N104  N     N_R   0.796981 0.467957 0.485451 0.000000
C363  C     C_R   0.808996 0.499697 0.531614 0.000000
C364  C     C_R   0.809072 0.480386 0.565035 0.000000
H205  H     H_    0.831162 0.606397 0.659845 0.000000
H206  H     H_    0.817003 0.634063 0.600690 0.000000
H207  H     H_    0.765694 0.487732 0.441745 0.000000
H208  H     H_    0.798221 0.434799 0.556878 0.000000
Br53  Br    Br    0.086845 0.652684 0.664380 0.000000
C365  C     C_R   0.103323 0.682549 0.616091 0.000000
C366  C     C_R   0.094214 0.729397 0.623049 0.000000
C367  C     C_R   0.108994 0.753997 0.589581 0.000000
C368  C     C_R   0.131418 0.729556 0.549080 0.000000
N105  N     N_R   0.152387 0.749218 0.513864 0.000000
C369  C     C_R   0.167934 0.707992 0.482732 0.000000
N106  N     N_R   0.159612 0.665296 0.498349 0.000000
C370  C     C_R   0.137105 0.680808 0.540676 0.000000
C371  C     C_R   0.125225 0.657985 0.574792 0.000000
H209  H     H_    0.076969 0.747939 0.655464 0.000000
H210  H     H_    0.104040 0.792026 0.595922 0.000000
H211  H     H_    0.187896 0.710934 0.450301 0.000000
H212  H     H_    0.134405 0.623991 0.571493 0.000000
Br54  Br    Br    0.236749 0.874076 0.692846 0.000000
C372  C     C_R   0.269774 0.900054 0.642465 0.000000
C373  C     C_R   0.323080 0.940524 0.645056 0.000000
C374  C     C_R   0.347550 0.959859 0.608764 0.000000
C375  C     C_R   0.317138 0.939610 0.571151 0.000000
N107  N     N_R   0.330559 0.955702 0.533911 0.000000
C376  C     C_R   0.284647 0.921058 0.508129 0.000000
N108  N     N_R   0.243760 0.885025 0.528483 0.000000
C377  C     C_R   0.265474 0.898460 0.568126 0.000000
C378  C     C_R   0.240461 0.878465 0.603415 0.000000
H213  H     H_    0.345506 0.957608 0.675952 0.000000
H214  H     H_    0.389055 0.989121 0.610355 0.000000
H215  H     H_    0.280826 0.923552 0.475923 0.000000
H216  H     H_    0.198959 0.848754 0.601644 0.000000
Br55  Br    Br    0.951777 0.705088 0.455187 0.000000
C379  C     C_R   0.017940 0.744317 0.429140 0.000000
C380  C     C_R   0.020641 0.746629 0.385526 0.000000
C381  C     C_R   0.068894 0.770781 0.364802 0.000000
C382  C     C_R   0.113323 0.790240 0.388297 0.000000
N109  N     N_R   0.163579 0.808197 0.373479 0.000000
C383  C     C_R   0.191098 0.822272 0.410702 0.000000
N110  N     N_R   0.158841 0.812281 0.447377 0.000000
C384  C     C_R   0.110513 0.790327 0.431388 0.000000
C385  C     C_R   0.063603 0.764233 0.451435 0.000000
H217  H     H_    0.985096 0.723649 0.365373 0.000000
H218  H     H_    0.070746 0.772594 0.331070 0.000000
H219  H     H_    0.233440 0.838642 0.410710 0.000000
H220  H     H_    0.062688 0.753262 0.480349 0.000000
Br56  Br    Br    0.163827 0.212100 0.533468 0.000000
C386  C     C_R   0.221241 0.285117 0.533933 0.000000
C387  C     C_R   0.270525 0.304316 0.550416 0.000000
C388  C     C_R   0.313783 0.354374 0.546123 0.000000
C389  C     C_R   0.305722 0.384751 0.526317 0.000000
N111  N     N_R   0.341177 0.433131 0.517017 0.000000
C390  C     C_R   0.309704 0.450522 0.506575 0.000000
N112  N     N_R   0.256609 0.413463 0.508291 0.000000
C391  C     C_R   0.256136 0.371100 0.517899 0.000000
C392  C     C_R   0.213201 0.319566 0.518562 0.000000
H221  H     H_    0.275237 0.279991 0.566531 0.000000
H222  H     H_    0.351169 0.370469 0.560963 0.000000
H223  H     H_    0.325095 0.488487 0.496975 0.000000
H224  H     H_    0.174581 0.305574 0.506899 0.000000
Br57  Br    Br    0.531938 0.354499 0.631149 0.000000
C393  C     C_R   0.498886 0.367764 0.594018 0.000000
C394  C     C_R   0.496494 0.420863 0.610061 0.000000
C395  C     C_R   0.473751 0.431756 0.582923 0.000000
C396  C     C_R   0.451974 0.387622 0.540540 0.000000
N113  N     N_R   0.427447 0.387344 0.508302 0.000000
C397  C     C_R   0.406338 0.328837 0.478032 0.000000
N114  N     N_R   0.417855 0.294187 0.490235 0.000000
C398  C     C_R   0.448737 0.333253 0.528115 0.000000
C399  C     C_R   0.475376 0.323384 0.552015 0.000000
H225  H     H_    0.513201 0.454371 0.643764 0.000000
H226  H     H_    0.472111 0.472837 0.596081 0.000000
H227  H     H_    0.381484 0.311350 0.448563 0.000000
H228  H     H_    0.476088 0.281506 0.539530 0.000000
Br58  Br    Br    0.639810 0.640980 0.456164 0.000000
C400  C     C_R   0.570945 0.585328 0.430829 0.000000
C401  C     C_R   0.563623 0.570756 0.384413 0.000000
C402  C     C_R   0.515324 0.528822 0.363590 0.000000
C403  C     C_R   0.477486 0.498850 0.389254 0.000000
N115  N     N_R   0.430650 0.453191 0.373462 0.000000
C404  C     C_R   0.408503 0.436106 0.410607 0.000000
N116  N     N_R   0.440699 0.470284 0.449278 0.000000
C405  C     C_R   0.484033 0.510261 0.434421 0.000000
C406  C     C_R   0.530656 0.556391 0.456771 0.000000
H229  H     H_    0.596691 0.591134 0.364272 0.000000
H230  H     H_    0.508574 0.517780 0.327538 0.000000
H231  H     H_    0.369455 0.399712 0.409666 0.000000
H232  H     H_    0.537948 0.569052 0.492106 0.000000
Br59  Br    Br    0.168607 0.401100 0.745264 0.000000
C407  C     C_R   0.161101 0.394765 0.684269 0.000000
C408  C     C_R   0.205455 0.420260 0.659647 0.000000
C409  C     C_R   0.200704 0.419193 0.616421 0.000000
C410  C     C_R   0.150856 0.388751 0.597153 0.000000
N117  N     N_R   0.136506 0.377725 0.554368 0.000000
C411  C     C_R   0.083232 0.338942 0.553059 0.000000
N118  N     N_R   0.064938 0.324945 0.592596 0.000000
C412  C     C_R   0.108110 0.358893 0.619913 0.000000
C413  C     C_R   0.111580 0.363573 0.664268 0.000000
H233  H     H_    0.244122 0.441250 0.674625 0.000000
H234  H     H_    0.235840 0.439914 0.598499 0.000000
H235  H     H_    0.059113 0.320041 0.522915 0.000000
H236  H     H_    0.077007 0.343230 0.683053 0.000000
Br60  Br    Br    0.030105 0.140455 0.427547 0.000000
C414  C     C_R   0.986771 0.179132 0.455551 0.000000
C415  C     C_R   0.948844 0.172749 0.430515 0.000000
C416  C     C_R   0.916650 0.199445 0.453052 0.000000
C417  C     C_R   0.913460 0.216884 0.500018 0.000000
N119  N     N_R   0.873946 0.224245 0.527824 0.000000
C418  C     C_R   0.891568 0.240024 0.571395 0.000000
N120  N     N_R   0.939932 0.241686 0.570067 0.000000
C419  C     C_R   0.951052 0.224955 0.524497 0.000000
C420  C     C_R   0.990736 0.210285 0.502847 0.000000
H237  H     H_    0.944672 0.147588 0.393381 0.000000
H238  H     H_    0.892619 0.204008 0.434847 0.000000
H239  H     H_    0.869419 0.249128 0.603214 0.000000
H240  H     H_    0.021726 0.217406 0.521721 0.000000
Br61  Br    Br    0.733208 0.017828 0.467370 0.000000
C421  C     C_R   0.795382 0.011360 0.461119 0.000000
C422  C     C_R   0.844757 0.059188 0.475908 0.000000
C423  C     C_R   0.887940 0.049223 0.471606 0.000000
C424  C     C_R   0.879040 0.992284 0.456649 0.000000
N121  N     N_R   0.912829 0.971126 0.453237 0.000000
C425  C     C_R   0.885763 0.912945 0.423420 0.000000
N122  N     N_R   0.836438 0.898200 0.411873 0.000000
C426  C     C_R   0.833147 0.948172 0.435092 0.000000
C427  C     C_R   0.790326 0.955812 0.437941 0.000000
H241  H     H_    0.849249 0.103517 0.490129 0.000000
H242  H     H_    0.927644 0.083708 0.475405 0.000000
H243  H     H_    0.901160 0.881805 0.408618 0.000000
H244  H     H_    0.753133 0.919754 0.422734 0.000000
Br62  Br    Br    0.927238 0.778515 0.377855 0.000000
C428  C     C_R   0.987684 0.852076 0.383385 0.000000
C429  C     C_R   0.023469 0.856830 0.346887 0.000000
C430  C     C_R   0.065947 0.911256 0.350126 0.000000
C431  C     C_R   0.070937 0.959731 0.390085 0.000000
N123  N     N_R   0.107438 0.016815 0.400814 0.000000
C432  C     C_R   0.085479 0.046410 0.438599 0.000000
N124  N     N_R   0.038643 0.008840 0.452685 0.000000
C433  C     C_R   0.032415 0.955227 0.422564 0.000000
C434  C     C_R   0.992897 0.901949 0.422189 0.000000
H245  H     H_    0.017885 0.818018 0.315628 0.000000
H246  H     H_    0.091822 0.915137 0.320762 0.000000
H247  H     H_    0.103116 0.094104 0.455223 0.000000
H248  H     H_    0.965701 0.899915 0.450718 0.000000
Br63  Br    Br    0.152920 0.240723 0.696041 0.000000
C435  C     C_R   0.107530 0.194754 0.642760 0.000000
C436  C     C_R   0.104706 0.140412 0.611890 0.000000
C437  C     C_R   0.070241 0.105574 0.574137 0.000000
C438  C     C_R   0.038114 0.125777 0.569326 0.000000
N125  N     N_R   0.996615 0.096049 0.540105 0.000000
C439  C     C_R   0.974870 0.134019 0.555474 0.000000
N126  N     N_R   0.004383 0.187371 0.588600 0.000000
C440  C     C_R   0.042195 0.179741 0.598619 0.000000
C441  C     C_R   0.076362 0.215246 0.635864 0.000000
H249  H     H_    0.128949 0.124715 0.617775 0.000000
H250  H     H_    0.068526 0.063917 0.549843 0.000000
H251  H     H_    0.936875 0.123856 0.546413 0.000000
H252  H     H_    0.076015 0.255265 0.661200 0.000000
Br64  Br    Br    0.787240 0.122858 0.186655 0.000000
C442  C     C_R   0.849926 0.192820 0.215720 0.000000
C443  C     C_R   0.848402 0.245643 0.243411 0.000000
C444  C     C_R   0.894268 0.296463 0.264492 0.000000
C445  C     C_R   0.938878 0.291044 0.261306 0.000000
N127  N     N_R   0.985643 0.331759 0.283115 0.000000
C446  C     C_R   0.014728 0.301380 0.268137 0.000000
N128  N     N_R   0.986873 0.244075 0.238033 0.000000
C447  C     C_R   0.939893 0.239552 0.234566 0.000000
C448  C     C_R   0.897046 0.190558 0.209168 0.000000
H253  H     H_    0.811078 0.246397 0.247305 0.000000
H254  H     H_    0.895563 0.338800 0.283697 0.000000
H255  H     H_    0.054967 0.320304 0.279171 0.000000
H256  H     H_    0.898827 0.150121 0.186627 0.000000
Br65  Br    Br    0.158594 0.136542 0.050569 0.000000
C449  C     C_R   0.154720 0.161745 0.116955 0.000000
C450  C     C_R   0.193740 0.169167 0.141613 0.000000
C451  C     C_R   0.192947 0.190270 0.189979 0.000000
C452  C     C_R   0.150604 0.199674 0.212140 0.000000
N129  N     N_R   0.140193 0.216447 0.258289 0.000000
C453  C     C_R   0.092848 0.217338 0.259896 0.000000
N130  N     N_R   0.071258 0.195593 0.217016 0.000000
C454  C     C_R   0.110085 0.187869 0.187694 0.000000
C455  C     C_R   0.112696 0.171991 0.140130 0.000000
H257  H     H_    0.225395 0.159196 0.122858 0.000000
H258  H     H_    0.223486 0.196763 0.209328 0.000000
H259  H     H_    0.074690 0.235700 0.290871 0.000000
H260  H     H_    0.084145 0.169182 0.121237 0.000000
Br66  Br    Br    0.967391 0.990786 0.337149 0.000000
C456  C     C_R   0.959770 0.028182 0.302674 0.000000
C457  C     C_R   0.000989 0.051903 0.274785 0.000000
C458  C     C_R   0.997280 0.080745 0.250196 0.000000
C459  C     C_R   0.951106 0.084334 0.253955 0.000000
N131  N     N_R   0.938916 0.111691 0.234904 0.000000
C460  C     C_R   0.885920 0.094777 0.246766 0.000000
N132  N     N_R   0.866514 0.060436 0.273143 0.000000
C461  C     C_R   0.909060 0.056516 0.278300 0.000000
C462  C     C_R   0.913022 0.030433 0.304748 0.000000
H261  H     H_    0.036488 0.048323 0.273085 0.000000
H262  H     H_    0.029086 0.097759 0.227887 0.000000
H263  H     H_    0.860694 0.106065 0.236874 0.000000
H264  H     H_    0.881505 0.013354 0.327336 0.000000
Br67  Br    Br    0.185851 0.608116 0.089244 0.000000
C463  C     C_R   0.114319 0.547310 0.082093 0.000000
C464  C     C_R   0.099115 0.495732 0.042250 0.000000
C465  C     C_R   0.047161 0.451734 0.036519 0.000000
C466  C     C_R   0.011559 0.461472 0.070787 0.000000
N133  N     N_R   0.959353 0.425628 0.071179 0.000000
C467  C     C_R   0.945302 0.452812 0.116352 0.000000
N134  N     N_R   0.986917 0.503663 0.143132 0.000000
C468  C     C_R   0.027395 0.509070 0.112138 0.000000
C469  C     C_R   0.078519 0.554083 0.117684 0.000000
H265  H     H_    0.127932 0.490109 0.015442 0.000000
H266  H     H_    0.035053 0.411226 0.005890 0.000000
H267  H     H_    0.905982 0.435341 0.130490 0.000000
H268  H     H_    0.091776 0.592893 0.149297 0.000000
Br68  Br    Br    0.248940 0.192461 0.617283 0.000000
C470  C     C_R   0.245547 0.154966 0.550999 0.000000
C471  C     C_R   0.200555 0.103210 0.529802 0.000000
C472  C     C_R   0.194173 0.080582 0.481978 0.000000
C473  C     C_R   0.234223 0.110063 0.456840 0.000000
N135  N     N_R   0.236729 0.097929 0.410845 0.000000
C474  C     C_R   0.288993 0.132058 0.403476 0.000000
N136  N     N_R   0.318173 0.165533 0.443876 0.000000
C475  C     C_R   0.281560 0.152962 0.476650 0.000000
C476  C     C_R   0.287341 0.179452 0.523929 0.000000
H269  H     H_    0.169621 0.081472 0.550699 0.000000
H270  H     H_    0.160211 0.039456 0.465489 0.000000
H271  H     H_    0.305907 0.129319 0.369127 0.000000
H272  H     H_    0.321426 0.220932 0.538835 0.000000
Br69  Br    Br    0.451675 0.255752 0.310878 0.000000
C477  C     C_R   0.390493 0.256706 0.300179 0.000000
C478  C     C_R   0.342481 0.205445 0.289804 0.000000
C479  C     C_R   0.296900 0.207267 0.286134 0.000000
C480  C     C_R   0.300906 0.260976 0.292967 0.000000
N137  N     N_R   0.262228 0.275652 0.296786 0.000000
C481  C     C_R   0.289309 0.334280 0.302414 0.000000
N138  N     N_R   0.343046 0.355917 0.302838 0.000000
C482  C     C_R   0.348614 0.309295 0.298421 0.000000
C483  C     C_R   0.394140 0.309200 0.303837 0.000000
H273  H     H_    0.340426 0.164145 0.285660 0.000000
H274  H     H_    0.260488 0.167038 0.276675 0.000000
H275  H     H_    0.270284 0.361356 0.308646 0.000000
H276  H     H_    0.431325 0.349073 0.313193 0.000000
Br70  Br    Br    0.177884 0.493211 0.134991 0.000000
C484  C     C_R   0.127632 0.482739 0.183995 0.000000
C485  C     C_R   0.125059 0.449549 0.207697 0.000000
C486  C     C_R   0.087706 0.439956 0.242252 0.000000
C487  C     C_R   0.052588 0.462044 0.250358 0.000000
N139  N     N_R   0.012461 0.455845 0.280618 0.000000
C488  C     C_R   0.989966 0.485069 0.274287 0.000000
N140  N     N_R   0.014612 0.509204 0.241242 0.000000
C489  C     C_R   0.054499 0.494211 0.227212 0.000000
C490  C     C_R   0.093434 0.507335 0.195119 0.000000
H277  H     H_    0.152462 0.431349 0.199209 0.000000
H278  H     H_    0.085725 0.415055 0.261500 0.000000
H279  H     H_    0.956813 0.489444 0.293958 0.000000
H280  H     H_    0.098357 0.536865 0.179989 0.000000
Br71  Br    Br    0.079231 0.989573 0.144385 0.000000
C491  C     C_R   0.110390 0.016514 0.202841 0.000000
C492  C     C_R   0.111426 0.976342 0.216853 0.000000
C493  C     C_R   0.132289 0.995241 0.259922 0.000000
C494  C     C_R   0.152421 0.054499 0.287461 0.000000
N141  N     N_R   0.173736 0.081812 0.330289 0.000000
C495  C     C_R   0.185321 0.139752 0.342187 0.000000
N142  N     N_R   0.172559 0.149109 0.307773 0.000000
C496  C     C_R   0.151609 0.094162 0.273940 0.000000
C497  C     C_R   0.130391 0.075904 0.231564 0.000000
H281  H     H_    0.095256 0.929969 0.194272 0.000000
H282  H     H_    0.132860 0.964240 0.271095 0.000000
H283  H     H_    0.202681 0.174526 0.375356 0.000000
H284  H     H_    0.126115 0.105217 0.221528 0.000000
Br72  Br    Br    0.121021 0.806515 0.138831 0.000000
C498  C     C_R   0.096432 0.750892 0.168092 0.000000
C499  C     C_R   0.054309 0.694790 0.148675 0.000000
C500  C     C_R   0.035055 0.654732 0.170415 0.000000
C501  C     C_R   0.060904 0.671182 0.209843 0.000000
N143  N     N_R   0.051567 0.637549 0.233902 0.000000
C502  C     C_R   0.089302 0.675576 0.268874 0.000000
N144  N     N_R   0.122003 0.730884 0.266562 0.000000
C503  C     C_R   0.102688 0.725984 0.228718 0.000000
C504  C     C_R   0.120335 0.767213 0.208979 0.000000
H285  H     H_    0.035666 0.682860 0.116977 0.000000
H286  H     H_    0.001663 0.611552 0.156101 0.000000
H287  H     H_    0.094129 0.662919 0.294870 0.000000
H288  H     H_    0.151898 0.810727 0.224184 0.000000
Br73  Br    Br    0.301659 0.889976 0.157449 0.000000
C505  C     C_R   0.273149 0.922298 0.215977 0.000000
C506  C     C_R   0.273253 0.976412 0.228980 0.000000
C507  C     C_R   0.247846 0.997313 0.269401 0.000000
C508  C     C_R   0.221697 0.961929 0.294939 0.000000
N145  N     N_R   0.191881 0.970849 0.333450 0.000000
C509  C     C_R   0.177233 0.922656 0.344489 0.000000
N146  N     N_R   0.194515 0.883331 0.312857 0.000000
C510  C     C_R   0.223299 0.910059 0.282871 0.000000
C511  C     C_R   0.249745 0.889597 0.244080 0.000000
H289  H     H_    0.292364 0.001776 0.206856 0.000000
H290  H     H_    0.247535 0.039071 0.279587 0.000000
H291  H     H_    0.154353 0.916243 0.375075 0.000000
H292  H     H_    0.249347 0.847492 0.234100 0.000000
Br74  Br    Br    0.964844 0.345367 0.480281 0.000000
C512  C     C_R   0.006851 0.412460 0.464422 0.000000
C513  C     C_R   0.042147 0.462859 0.497523 0.000000
C514  C     C_R   0.080697 0.508531 0.484842 0.000000
C515  C     C_R   0.085582 0.500335 0.438596 0.000000
N147  N     N_R   0.124041 0.535946 0.418094 0.000000
C516  C     C_R   0.105471 0.510576 0.373322 0.000000
N148  N     N_R   0.057939 0.459965 0.366268 0.000000
C517  C     C_R   0.047813 0.454372 0.407658 0.000000
C518  C     C_R   0.006503 0.409782 0.419659 0.000000
H293  H     H_    0.040791 0.465456 0.532891 0.000000
H294  H     H_    0.107358 0.547797 0.510321 0.000000
H295  H     H_    0.124350 0.530380 0.347494 0.000000
H296  H     H_    0.977491 0.372130 0.394089 0.000000
Br75  Br    Br    0.280395 0.727521 0.655864 0.000000
C519  C     C_R   0.254203 0.649175 0.609490 0.000000
C520  C     C_R   0.254379 0.604490 0.617833 0.000000
C521  C     C_R   0.235490 0.547318 0.584471 0.000000
C522  C     C_R   0.216112 0.536242 0.543506 0.000000
N149  N     N_R   0.195477 0.484403 0.506625 0.000000
C523  C     C_R   0.183970 0.499920 0.475867 0.000000
N150  N     N_R   0.195420 0.558741 0.493136 0.000000
C524  C     C_R   0.216082 0.580203 0.535440 0.000000
C525  C     C_R   0.235008 0.637168 0.567713 0.000000
H297  H     H_    0.269458 0.614689 0.650704 0.000000
H298  H     H_    0.236240 0.513010 0.590528 0.000000
H299  H     H_    0.166797 0.468705 0.441717 0.000000
H300  H     H_    0.234050 0.671358 0.561448 0.000000
Br76  Br    Br    0.973569 0.263756 0.371055 0.000000
C526  C     C_R   0.030319 0.259747 0.387686 0.000000
C527  C     C_R   0.033770 0.208637 0.358941 0.000000
C528  C     C_R   0.080659 0.207345 0.354440 0.000000
C529  C     C_R   0.121238 0.257527 0.380657 0.000000
N151  N     N_R   0.171948 0.273554 0.370418 0.000000
C530  C     C_R   0.197415 0.325190 0.407195 0.000000
N152  N     N_R   0.163167 0.342857 0.438419 0.000000
C531  C     C_R   0.115148 0.300798 0.418528 0.000000
C532  C     C_R   0.069204 0.305141 0.421801 0.000000
H301  H     H_    0.002311 0.173793 0.334441 0.000000
H302  H     H_    0.086660 0.171555 0.327027 0.000000
H303  H     H_    0.240039 0.350107 0.410679 0.000000
H304  H     H_    0.067168 0.345427 0.444827 0.000000

loop_
_geom_bond_atom_site_label_1
_geom_bond_atom_site_label_2
_geom_bond_distance
_geom_bond_site_symmetry_2
_ccdc_geom_bond_type
Zn1   N2    2.103 .      S
Zn1   N4    2.078 .      S
Zn1   N15   2.022 .      S
Zn1   N86   1.993 .      S
Zn2   N5    2.046 .      S
Zn2   N8    2.023 .      S
Zn2   N25   2.002 .      S
Zn2   N87   2.085 .      S
Zn3   N10   2.026 .      S
Zn3   N11   2.062 .      S
Zn3   N18   2.059 .      S
Zn3   N101  2.051 .      S
Zn4   N3    2.022 .      S
Zn4   N13   1.982 .      S
Zn4   N22   2.075 .      S
Zn4   N104  2.099 .      S
Zn5   N16   2.001 .      S
Zn5   N17   2.022 .      S
Zn5   N19   2.072 .      S
Zn5   N80   2.100 .      S
Zn6   N21   2.088 .      S
Zn6   N24   2.096 .      S
Zn6   N94   2.089 .      S
Zn6   N119  2.041 .      S
Zn7   N26   1.959 1_545  S
Zn7   N28   2.125 .      S
Zn7   N95   2.120 .      S
Zn7   N107  2.011 1_545  S
Zn8   N23   2.014 .      S
Zn8   N30   2.020 1_545  S
Zn8   N90   2.040 1_545  S
Zn8   N132  2.043 .      S
Zn9   N9    2.022 .      S
Zn9   N29   2.071 .      S
Zn9   N98   1.997 .      S
Zn9   N122  1.968 .      S
Zn10  N6    2.024 .      S
Zn10  N32   1.944 .      S
Zn10  N34   2.046 .      S
Zn10  N99   1.945 .      S
Zn11  N35   1.935 .      S
Zn11  N38   1.902 .      S
Zn11  N40   2.052 .      S
Zn11  N42   1.987 .      S
Zn12  N36   1.944 .      S
Zn12  N43   2.056 .      S
Zn12  N45   2.103 .      S
Zn12  N48   1.942 .      S
Zn13  N37   1.906 1_545  S
Zn13  N50   2.004 .      S
Zn13  N51   1.994 .      S
Zn13  N53   2.093 1_545  S
Zn14  N39   2.046 .      S
Zn14  N56   2.022 .      S
Zn14  N57   2.041 .      S
Zn14  N59   2.017 .      S
Zn15  N41   2.001 1_544  S
Zn15  N61   1.927 .      S
Zn15  N64   1.906 .      S
Zn15  N65   2.010 .      S
Zn16  N47   1.984 .      S
Zn16  N52   1.977 .      S
Zn16  N68   2.006 .      S
Zn16  N70   2.092 .      S
Zn17  N54   2.064 .      S
Zn17  N71   2.085 .      S
Zn17  N74   2.015 1_655  S
Zn17  N75   1.963 .      S
Zn18  N44   2.026 1_554  S
Zn18  N62   1.947 .      S
Zn18  N77   1.957 .      S
Zn18  N79   2.099 .      S
Zn19  N49   2.006 1_554  S
Zn19  N63   1.958 .      S
Zn19  N82   2.065 .      S
Zn19  N83   1.966 .      S
Zn20  N14   1.982 .      S
Zn20  N127  1.985 .      S
Zn20  N139  1.975 1_655  S
Zn20  N148  1.954 1_655  S
Zn21  N66   2.017 .      S
Zn21  N85   2.032 .      S
Zn21  N88   2.068 1_545  S
Zn21  N89   2.037 1_545  S
Zn22  N46   2.065 .      S
Zn22  N91   2.015 1_545  S
Zn22  N93   2.034 .      S
Zn22  N96   2.104 .      S
Zn23  N55   1.999 .      S
Zn23  N92   2.015 .      S
Zn23  N97   2.014 .      S
Zn23  N100  2.015 .      S
Zn24  N58   2.057 .      S
Zn24  N72   2.021 .      S
Zn24  N102  2.042 .      S
Zn24  N103  2.014 .      S
Zn25  N73   2.089 .      S
Zn25  N105  2.029 .      S
Zn25  N108  2.003 .      S
Zn25  N110  1.943 .      S
Zn26  N60   2.042 .      S
Zn26  N111  2.005 .      S
Zn26  N113  2.056 .      S
Zn26  N116  2.036 .      S
Zn27  N69   2.016 .      S
Zn27  N118  2.077 1_655  S
Zn27  N120  1.980 .      S
Zn27  N126  1.980 1_655  S
Zn28  N76   1.984 1_545  S
Zn28  N121  2.055 1_545  S
Zn28  N124  2.002 1_655  S
Zn28  N125  2.005 .      S
Zn29  N81   2.066 .      S
Zn29  N128  1.940 .      S
Zn29  N130  2.059 1_655  S
Zn29  N131  2.094 .      S
Zn30  N67   2.014 1_554  S
Zn30  N78   1.960 .      S
Zn30  N84   1.977 .      S
Zn30  N133  2.090 .      S
Zn31  N1    1.989 .      S
Zn31  N27   2.110 .      S
Zn31  N114  2.025 .      S
Zn31  N136  1.996 .      S
Zn32  N20   2.075 .      S
Zn32  N33   2.063 .      S
Zn32  N115  1.946 .      S
Zn32  N138  1.969 .      S
Zn33  N129  2.077 .      S
Zn33  N137  1.975 .      S
Zn33  N142  2.044 .      S
Zn33  N151  1.957 .      S
Zn34  N12   2.085 .      S
Zn34  N134  2.099 .      S
Zn34  N140  2.032 1_655  S
Zn34  N143  2.058 1_655  S
Zn35  N123  2.002 .      S
Zn35  N135  1.945 .      S
Zn35  N141  2.000 .      S
Zn35  N145  2.027 1_545  S
Zn36  N7    2.026 .      S
Zn36  N109  1.926 .      S
Zn36  N144  2.097 .      S
Zn36  N146  2.012 .      S
Zn37  N31   1.960 .      S
Zn37  N106  2.044 .      S
Zn37  N147  1.971 .      S
Zn37  N150  2.027 .      S
Zn38  N112  1.988 .      S
Zn38  N117  2.099 .      S
Zn38  N149  2.030 .      S
Zn38  N152  2.000 .      S
Br1   C1    1.896 1_565  S
C1    Br1   1.896 1_545  S
C2    H1    1.081 1_545  S
C3    H2    1.076 .      S
C5    H3    1.068 .      S
C7    H4    1.066 .      S
H1    C2    1.081 1_565  S
Br2   C8    1.886 .      S
C9    H5    1.074 .      S
C10   H6    1.078 .      S
C12   H7    1.079 .      S
C14   H8    1.074 .      S
Br3   C15   1.896 .      S
C16   H9    1.079 .      S
C17   H10   1.066 .      S
C19   H11   1.080 .      S
C21   H12   1.080 .      S
Br4   C22   1.898 .      S
C23   H13   1.077 .      S
C24   H14   1.061 .      S
C26   H15   1.081 .      S
C28   H16   1.075 .      S
Br5   C29   1.894 .      S
C30   H17   1.081 .      S
C31   H18   1.078 .      S
C33   H19   1.080 .      S
C35   H20   1.073 .      S
Br6   C36   1.874 .      S
C37   H21   1.081 .      S
C38   H22   1.055 .      S
C40   H23   1.078 .      S
C42   H24   1.077 .      S
Br7   C43   1.883 1_455  S
C43   Br7   1.883 1_655  S
C44   H25   1.079 .      S
C45   H26   1.066 .      S
C47   H27   1.081 .      S
C49   H28   1.076 1_655  S
H28   C49   1.076 1_455  S
Br8   C50   1.905 .      S
C51   H29   1.073 .      S
C52   H30   1.053 .      S
C54   H31   1.081 .      S
C56   H32   1.061 .      S
Br9   C57   1.903 .      S
C58   H33   1.081 .      S
C59   H34   1.065 .      S
C61   H35   1.078 .      S
C63   H36   1.072 .      S
Br10  C64   1.901 .      S
C65   H37   1.081 .      S
C66   H38   1.067 .      S
C68   H39   1.076 .      S
C70   H40   1.078 .      S
Br11  C71   1.906 .      S
C72   H41   1.081 .      S
C73   H42   1.072 .      S
C75   H43   1.075 .      S
C77   H44   1.079 .      S
Br12  C78   1.877 .      S
C79   H45   1.079 .      S
C80   H46   1.077 1_545  S
C82   H47   1.064 .      S
C84   H48   1.074 .      S
H46   C80   1.077 1_565  S
Br13  C85   1.904 .      S
C86   H49   1.067 .      S
C87   H50   1.067 1_545  S
C89   H51   1.081 .      S
N26   Zn7   1.959 1_565  S
C91   H52   1.078 .      S
H50   C87   1.067 1_565  S
Br14  C92   1.906 .      S
C93   H53   1.081 .      S
C94   H54   1.070 .      S
C96   H55   1.077 .      S
C98   H56   1.079 .      S
Br15  C99   1.905 .      S
C100  H57   1.080 .      S
C101  H58   1.076 .      S
C103  H59   1.071 .      S
N30   Zn8   2.020 1_565  S
C105  H60   1.080 .      S
Br16  C106  1.903 .      S
C107  H61   1.081 .      S
C108  H62   1.065 .      S
C110  H63   1.081 .      S
C112  H64   1.075 .      S
Br17  C113  1.906 .      S
C114  H65   1.081 .      S
C115  H66   1.064 .      S
C117  H67   1.079 .      S
C119  H68   1.077 .      S
Br18  C120  1.900 .      S
C121  H69   1.072 .      S
C122  H70   1.077 .      S
C124  H71   1.080 .      S
C126  H72   1.066 .      S
Br19  C127  1.905 .      S
C128  H73   1.081 .      S
C129  H74   1.073 .      S
N37   Zn13  1.906 1_565  S
C131  H75   1.080 1_565  S
C133  H76   1.073 .      S
H75   C131  1.080 1_545  S
Br20  C134  1.905 .      S
C135  H77   1.081 .      S
C136  H78   1.074 .      S
C138  H79   1.070 .      S
C140  H80   1.074 .      S
Br21  C141  1.905 .      S
C142  H81   1.081 .      S
C143  H82   1.073 .      S
N41   Zn15  2.001 1_566  S
C145  H83   1.081 .      S
C147  H84   1.080 .      S
Br22  C148  1.902 .      S
C149  H85   1.081 1_545  S
C150  H86   1.079 .      S
C152  H87   1.078 .      S
N44   Zn18  2.026 1_556  S
C154  H88   1.081 1_556  S
H85   C149  1.081 1_565  S
H88   C154  1.081 1_554  S
Br23  C155  1.904 .      S
C156  H89   1.081 .      S
C157  H90   1.066 .      S
C159  H91   1.081 .      S
C161  H92   1.080 .      S
Br24  C162  1.906 .      S
C163  H93   1.081 .      S
C164  H94   1.074 .      S
C166  H95   1.079 .      S
C168  H96   1.081 .      S
Br25  C169  1.906 .      S
C170  H97   1.081 .      S
C171  H98   1.081 .      S
N49   Zn19  2.006 1_556  S
C173  H99   1.081 .      S
C175  H100  1.081 .      S
Br26  C176  1.901 .      S
C177  H101  1.065 1_545  S
C178  H102  1.077 1_545  S
C180  H103  1.081 .      S
C182  H104  1.074 .      S
H101  C177  1.065 1_565  S
H102  C178  1.077 1_565  S
Br27  C183  1.905 .      S
C184  H105  1.081 .      S
C185  H106  1.077 .      S
N53   Zn13  2.093 1_565  S
C187  H107  1.069 .      S
C189  H108  1.081 .      S
Br28  C190  1.905 .      S
C191  H109  1.077 .      S
C192  H110  1.076 .      S
C194  H111  1.064 .      S
C196  H112  1.063 .      S
Br29  C197  1.906 .      S
C198  H113  1.081 .      S
C199  H114  1.062 .      S
C201  H115  1.077 .      S
C203  H116  1.064 .      S
Br30  C204  1.897 .      S
C205  H117  1.081 .      S
C206  H118  1.068 .      S
C208  H119  1.079 .      S
C210  H120  1.075 .      S
Br31  C211  1.902 .      S
C212  H121  1.081 .      S
C213  H122  1.072 .      S
C215  H123  1.081 1_554  S
C217  H124  1.070 .      S
H123  C215  1.081 1_556  S
Br32  C218  1.906 .      S
C219  H125  1.081 .      S
C220  H126  1.068 1_554  S
C222  H127  1.080 .      S
C224  H128  1.081 .      S
H126  C220  1.068 1_556  S
Br33  C225  1.895 1_565  S
C225  Br33  1.895 1_545  S
C226  H129  1.075 .      S
C227  H130  1.079 .      S
C229  H131  1.081 .      S
C231  H132  1.079 .      S
Br34  C232  1.906 .      S
C233  H133  1.081 .      S
C234  H134  1.076 .      S
N67   Zn30  2.014 1_556  S
C236  H135  1.081 .      S
C238  H136  1.076 .      S
Br35  C239  1.906 .      S
C240  H137  1.081 .      S
C241  H138  1.081 .      S
C243  H139  1.080 .      S
C245  H140  1.064 .      S
Br36  C246  1.887 .      S
C247  H141  1.066 .      S
C248  H142  1.072 .      S
C250  H143  1.080 .      S
C252  H144  1.070 .      S
Br37  C253  1.905 .      S
C254  H145  1.080 .      S
C255  H146  1.068 .      S
C257  H147  1.076 .      S
N74   Zn17  2.015 1_455  S
C259  H148  1.080 .      S
Br38  C260  1.890 .      S
C261  H149  1.081 .      S
C262  H150  1.079 .      S
C264  H151  1.081 1_655  S
N76   Zn28  1.984 1_565  S
C266  H152  1.069 .      S
H151  C264  1.081 1_455  S
Br39  C267  1.905 .      S
C268  H153  1.081 .      S
C269  H154  1.071 .      S
C271  H155  1.081 .      S
C273  H156  1.077 .      S
Br40  C274  1.905 .      S
C275  H157  1.081 .      S
C276  H158  1.076 1_554  S
C278  H159  1.068 .      S
C280  H160  1.075 .      S
H158  C276  1.076 1_556  S
Br41  C281  1.905 1_466  S
C281  Br41  1.905 1_644  S
C282  H161  1.080 1_545  S
C283  H162  1.081 1_655  S
C285  H163  1.079 .      S
C287  H164  1.079 1_554  S
H161  C282  1.080 1_565  S
H162  C283  1.081 1_455  S
H164  C287  1.079 1_556  S
Br42  C288  1.873 .      S
C289  H165  1.072 .      S
C290  H166  1.080 .      S
C292  H167  1.081 1_554  S
C294  H168  1.065 .      S
H167  C292  1.081 1_556  S
Br43  C295  1.906 .      S
C296  H169  1.065 .      S
C297  H170  1.057 .      S
C299  H171  1.079 .      S
C301  H172  1.072 .      S
Br44  C302  1.906 .      S
C303  H173  1.081 .      S
C304  H174  1.065 .      S
C306  H175  1.080 .      S
N88   Zn21  2.068 1_565  S
C308  H176  1.071 .      S
Br45  C309  1.905 .      S
C310  H177  1.081 .      S
C311  H178  1.073 .      S
N89   Zn21  2.037 1_565  S
C313  H179  1.080 .      S
N90   Zn8   2.040 1_565  S
C315  H180  1.059 .      S
Br46  C316  1.895 .      S
C317  H181  1.073 .      S
C318  H182  1.070 1_565  S
N91   Zn22  2.015 1_565  S
C320  H183  1.078 .      S
C322  H184  1.072 .      S
H182  C318  1.070 1_545  S
Br47  C323  1.903 .      S
C324  H185  1.081 .      S
C325  H186  1.067 .      S
C327  H187  1.064 .      S
C329  H188  1.059 .      S
Br48  C330  1.905 .      S
C331  H189  1.081 .      S
C332  H190  1.054 .      S
C334  H191  1.075 1_545  S
C336  H192  1.064 .      S
H191  C334  1.075 1_565  S
Br49  C337  1.903 .      S
C338  H193  1.080 .      S
C339  H194  1.073 .      S
C341  H195  1.074 .      S
C343  H196  1.079 .      S
Br50  C344  1.893 .      S
C345  H197  1.081 .      S
C346  H198  1.075 .      S
C348  H199  1.075 .      S
C350  H200  1.058 .      S
Br51  C351  1.898 .      S
C352  H201  1.076 .      S
C353  H202  1.074 .      S
C355  H203  1.078 .      S
C357  H204  1.080 .      S
Br52  C358  1.903 .      S
C359  H205  1.081 .      S
C360  H206  1.079 .      S
C362  H207  1.080 .      S
C364  H208  1.075 .      S
Br53  C365  1.905 .      S
C366  H209  1.080 .      S
C367  H210  1.077 .      S
C369  H211  1.081 .      S
C371  H212  1.072 .      S
Br54  C372  1.906 .      S
C373  H213  1.079 .      S
C374  H214  1.067 .      S
N107  Zn7   2.011 1_565  S
C376  H215  1.079 .      S
C378  H216  1.069 .      S
Br55  C379  1.896 1_655  S
C379  Br55  1.896 1_455  S
C380  H217  1.074 1_455  S
C381  H218  1.076 .      S
C383  H219  1.080 .      S
C385  H220  1.071 .      S
H217  C380  1.074 1_655  S
Br56  C386  1.889 .      S
C387  H221  1.076 .      S
C388  H222  1.073 .      S
C390  H223  1.081 .      S
C392  H224  1.078 .      S
Br57  C393  1.904 .      S
C394  H225  1.080 .      S
C395  H226  1.070 .      S
C397  H227  1.081 .      S
C399  H228  1.079 .      S
Br58  C400  1.895 .      S
C401  H229  1.078 .      S
C402  H230  1.078 .      S
C404  H231  1.081 .      S
C406  H232  1.050 .      S
Br59  C407  1.905 .      S
C408  H233  1.078 .      S
C409  H234  1.072 .      S
C411  H235  1.077 .      S
N118  Zn27  2.077 1_455  S
C413  H236  1.075 .      S
Br60  C414  1.906 1_455  S
C414  Br60  1.906 1_655  S
C415  H237  1.077 .      S
C416  H238  1.074 .      S
C418  H239  1.080 .      S
C420  H240  1.073 1_655  S
H240  C420  1.073 1_455  S
Br61  C421  1.869 .      S
C422  H241  1.075 .      S
C423  H242  1.064 .      S
N121  Zn28  2.055 1_565  S
C425  H243  1.067 .      S
C427  H244  1.068 .      S
Br62  C428  1.896 .      S
C429  H245  1.081 .      S
C430  H246  1.073 .      S
C432  H247  1.079 .      S
N124  Zn28  2.002 1_455  S
C434  H248  1.069 .      S
Br63  C435  1.905 .      S
C436  H249  1.076 .      S
C437  H250  1.075 .      S
C439  H251  1.065 .      S
N126  Zn27  1.980 1_455  S
C441  H252  1.072 .      S
Br64  C442  1.906 .      S
C443  H253  1.077 .      S
C444  H254  1.066 .      S
C446  H255  1.081 .      S
C448  H256  1.075 .      S
Br65  C449  1.905 .      S
C450  H257  1.080 .      S
C451  H258  1.080 .      S
C453  H259  1.063 .      S
N130  Zn29  2.059 1_455  S
C455  H260  1.073 .      S
Br66  C456  1.905 1_565  S
C456  Br66  1.905 1_545  S
C457  H261  1.075 .      S
C458  H262  1.074 1_655  S
C460  H263  1.070 .      S
C462  H264  1.077 .      S
H262  C458  1.074 1_455  S
Br67  C463  1.906 .      S
C464  H265  1.081 .      S
C465  H266  1.079 .      S
C467  H267  1.079 .      S
C469  H268  1.074 .      S
Br68  C470  1.901 .      S
C471  H269  1.079 .      S
C472  H270  1.073 .      S
C474  H271  1.081 .      S
C476  H272  1.069 .      S
Br69  C477  1.894 .      S
C478  H273  1.081 .      S
C479  H274  1.069 .      S
C481  H275  1.081 .      S
C483  H276  1.076 .      S
Br70  C484  1.906 .      S
C485  H277  1.081 .      S
C486  H278  1.079 .      S
N139  Zn20  1.975 1_455  S
C488  H279  1.066 .      S
N140  Zn34  2.032 1_455  S
C490  H280  1.060 .      S
Br71  C491  1.905 1_565  S
C491  Br71  1.905 1_545  S
C492  H281  1.081 .      S
C493  H282  1.075 .      S
C495  H283  1.081 .      S
C497  H284  1.063 .      S
Br72  C498  1.906 .      S
C499  H285  1.081 .      S
C500  H286  1.079 .      S
N143  Zn34  2.058 1_455  S
C502  H287  1.078 .      S
C504  H288  1.066 .      S
Br73  C505  1.902 .      S
C506  H289  1.081 1_565  S
C507  H290  1.080 1_565  S
N145  Zn35  2.027 1_565  S
C509  H291  1.081 .      S
C511  H292  1.081 .      S
H289  C506  1.081 1_545  S
H290  C507  1.080 1_545  S
Br74  C512  1.882 1_655  S
C512  Br74  1.882 1_455  S
C513  H293  1.081 .      S
C514  H294  1.059 .      S
C516  H295  1.081 .      S
N148  Zn20  1.954 1_455  S
C518  H296  1.075 1_455  S
H296  C518  1.075 1_655  S
Br75  C519  1.906 .      S
C520  H297  1.079 .      S
C521  H298  1.068 .      S
C523  H299  1.081 .      S
C525  H300  1.072 .      S
Br76  C526  1.899 1_655  S
C526  Br76  1.899 1_455  S
C527  H301  1.075 .      S
C528  H302  1.079 .      S
C530  H303  1.081 .      S
C532  H304  1.079 .      S
C1    C2    1.381 .      A
C1    C7    1.386 .      A
C2    C3    1.374 .      A
C3    C4    1.372 .      A
C4    N1    1.331 .      A
C4    C6    1.362 .      A
N1    C5    1.370 .      A
C5    N2    1.379 .      A
N2    C6    1.369 .      A
C6    C7    1.383 .      A
C8    C9    1.379 .      A
C8    C14   1.391 .      A
C9    C10   1.367 .      A
C10   C11   1.365 .      A
C11   N3    1.335 .      A
C11   C13   1.350 .      A
N3    C12   1.379 .      A
C12   N4    1.384 .      A
N4    C13   1.347 .      A
C13   C14   1.366 .      A
C15   C16   1.386 .      A
C15   C21   1.382 .      A
C16   C17   1.381 .      A
C17   C18   1.374 .      A
C18   N5    1.353 .      A
C18   C20   1.364 .      A
N5    C19   1.373 .      A
C19   N6    1.378 .      A
N6    C20   1.341 .      A
C20   C21   1.372 .      A
C22   C23   1.383 .      A
C22   C28   1.383 .      A
C23   C24   1.376 .      A
C24   C25   1.369 .      A
C25   N7    1.346 .      A
C25   C27   1.358 .      A
N7    C26   1.376 .      A
C26   N8    1.376 .      A
N8    C27   1.348 .      A
C27   C28   1.377 .      A
C29   C30   1.388 .      A
C29   C35   1.386 .      A
C30   C31   1.379 .      A
C31   C32   1.370 .      A
C32   N9    1.341 .      A
C32   C34   1.359 .      A
N9    C33   1.376 .      A
C33   N10   1.372 .      A
N10   C34   1.347 .      A
C34   C35   1.369 .      A
C36   C37   1.367 .      A
C36   C42   1.395 .      A
C37   C38   1.356 .      A
C38   C39   1.363 .      A
C39   N11   1.334 .      A
C39   C41   1.356 .      A
N11   C40   1.387 .      A
C40   N12   1.383 .      A
N12   C41   1.356 .      A
C41   C42   1.376 .      A
C43   C44   1.389 .      A
C43   C49   1.364 .      A
C44   C45   1.386 .      A
C45   C46   1.370 .      A
C46   N13   1.347 .      A
C46   C48   1.343 .      A
N13   C47   1.370 .      A
C47   N14   1.371 .      A
N14   C48   1.330 .      A
C48   C49   1.356 .      A
C50   C51   1.382 .      A
C50   C56   1.377 .      A
C51   C52   1.378 .      A
C52   C53   1.360 .      A
C53   N15   1.342 .      A
C53   C55   1.347 .      A
N15   C54   1.377 .      A
C54   N16   1.377 .      A
N16   C55   1.341 .      A
C55   C56   1.368 .      A
C57   C58   1.388 .      A
C57   C63   1.385 .      A
C58   C59   1.382 .      A
C59   C60   1.364 .      A
C60   N17   1.343 .      A
C60   C62   1.357 .      A
N17   C61   1.369 .      A
C61   N18   1.384 .      A
N18   C62   1.346 .      A
C62   C63   1.373 .      A
C64   C65   1.384 .      A
C64   C70   1.379 .      A
C65   C66   1.382 .      A
C66   C67   1.376 .      A
C67   N19   1.354 .      A
C67   C69   1.363 .      A
N19   C68   1.381 .      A
C68   N20   1.382 .      A
N20   C69   1.346 .      A
C69   C70   1.376 .      A
C71   C72   1.387 .      A
C71   C77   1.381 .      A
C72   C73   1.386 .      A
C73   C74   1.380 .      A
C74   N21   1.355 .      A
C74   C76   1.363 .      A
N21   C75   1.382 .      A
C75   N22   1.384 .      A
N22   C76   1.342 .      A
C76   C77   1.373 .      A
C78   C79   1.392 .      A
C78   C84   1.367 .      A
C79   C80   1.382 .      A
C80   C81   1.369 .      A
C81   N23   1.339 .      A
C81   C83   1.359 .      A
N23   C82   1.363 .      A
C82   N24   1.390 .      A
N24   C83   1.337 .      A
C83   C84   1.354 .      A
C85   C86   1.386 .      A
C85   C91   1.368 .      A
C86   C87   1.386 .      A
C87   C88   1.369 1_545  A
C88   C87   1.369 1_565  A
C88   N25   1.351 .      A
C88   C90   1.348 1_565  A
N25   C89   1.372 .      A
C89   N26   1.370 .      A
N26   C90   1.327 1_565  A
C90   C88   1.348 1_545  A
C90   N26   1.327 1_545  A
C90   C91   1.360 .      A
C92   C93   1.384 .      A
C92   C98   1.380 .      A
C93   C94   1.383 .      A
C94   C95   1.379 .      A
C95   N27   1.359 .      A
C95   C97   1.365 .      A
N27   C96   1.383 .      A
C96   N28   1.386 .      A
N28   C97   1.340 .      A
C97   C98   1.365 .      A
C99   C100  1.389 .      A
C99   C105  1.381 .      A
C100  C101  1.386 .      A
C101  C102  1.372 .      A
C102  N29   1.351 .      A
C102  C104  1.361 .      A
N29   C103  1.381 .      A
C103  N30   1.367 .      A
N30   C104  1.344 .      A
C104  C105  1.374 .      A
C106  C107  1.382 .      A
C106  C112  1.378 .      A
C107  C108  1.381 .      A
C108  C109  1.381 .      A
C109  N31   1.354 .      A
C109  C111  1.348 .      A
N31   C110  1.366 .      A
C110  N32   1.366 .      A
N32   C111  1.342 .      A
C111  C112  1.377 .      A
C113  C114  1.386 .      A
C113  C119  1.385 .      A
C114  C115  1.382 .      A
C115  C116  1.371 .      A
C116  N33   1.351 .      A
C116  C118  1.365 .      A
N33   C117  1.377 .      A
C117  N34   1.381 .      A
N34   C118  1.345 .      A
C118  C119  1.373 .      A
C120  C121  1.390 .      A
C120  C126  1.375 1_565  A
C121  C122  1.379 .      A
C122  C123  1.364 .      A
C123  N35   1.339 .      A
C123  C125  1.346 1_565  A
N35   C124  1.364 1_565  A
C124  N35   1.364 1_545  A
C124  N36   1.364 .      A
N36   C125  1.339 .      A
C125  C123  1.346 1_545  A
C125  C126  1.362 .      A
C126  C120  1.375 1_545  A
C127  C128  1.391 .      A
C127  C133  1.384 .      A
C128  C129  1.384 .      A
C129  C130  1.370 .      A
C130  N37   1.343 .      A
C130  C132  1.349 .      A
N37   C131  1.355 .      A
C131  N38   1.357 .      A
N38   C132  1.341 .      A
C132  C133  1.370 .      A
C134  C135  1.386 .      A
C134  C140  1.380 .      A
C135  C136  1.383 .      A
C136  C137  1.379 .      A
C137  N39   1.354 .      A
C137  C139  1.366 .      A
N39   C138  1.370 .      A
C138  N40   1.377 .      A
N40   C139  1.349 .      A
C139  C140  1.374 .      A
C141  C142  1.391 .      A
C141  C147  1.383 .      A
C142  C143  1.385 .      A
C143  C144  1.372 .      A
C144  N41   1.350 .      A
C144  C146  1.360 .      A
N41   C145  1.370 .      A
C145  N42   1.368 .      A
N42   C146  1.343 .      A
C146  C147  1.372 .      A
C148  C149  1.389 .      A
C148  C154  1.386 .      A
C149  C150  1.382 .      A
C150  C151  1.373 .      A
C151  N43   1.349 .      A
C151  C153  1.365 .      A
N43   C152  1.381 .      A
C152  N44   1.373 .      A
N44   C153  1.343 .      A
C153  C154  1.373 .      A
C155  C156  1.389 .      A
C155  C161  1.383 .      A
C156  C157  1.384 1_565  A
C157  C156  1.384 1_545  A
C157  C158  1.367 .      A
C158  N45   1.352 .      A
C158  C160  1.364 .      A
N45   C159  1.385 .      A
C159  N46   1.383 .      A
N46   C160  1.340 .      A
C160  C161  1.372 1_545  A
C161  C160  1.372 1_565  A
C162  C163  1.389 .      A
C162  C168  1.383 .      A
C163  C164  1.385 .      A
C164  C165  1.375 .      A
C165  N47   1.352 .      A
C165  C167  1.355 .      A
N47   C166  1.366 .      A
C166  N48   1.363 .      A
N48   C167  1.339 .      A
C167  C168  1.372 .      A
C169  C170  1.394 .      A
C169  C175  1.386 .      A
C170  C171  1.387 .      A
C171  C172  1.371 1_455  A
C172  C171  1.371 1_655  A
C172  N49   1.345 .      A
C172  C174  1.364 .      A
N49   C173  1.370 .      A
C173  N50   1.373 .      A
N50   C174  1.344 .      A
C174  C175  1.371 1_655  A
C175  C174  1.371 1_455  A
C176  C177  1.385 .      A
C176  C182  1.369 .      A
C177  C178  1.383 .      A
C178  C179  1.366 .      A
C179  N51   1.344 .      A
C179  C181  1.351 .      A
N51   C180  1.373 .      A
C180  N52   1.372 .      A
N52   C181  1.336 .      A
C181  C182  1.366 .      A
C183  C184  1.391 .      A
C183  C189  1.385 .      A
C184  C185  1.385 1_455  A
C185  C184  1.385 1_655  A
C185  C186  1.373 .      A
C186  N53   1.352 .      A
C186  C188  1.371 .      A
N53   C187  1.381 .      A
C187  N54   1.379 .      A
N54   C188  1.343 .      A
C188  C189  1.371 1_655  A
C189  C188  1.371 1_455  A
C190  C191  1.381 .      A
C190  C196  1.381 .      A
C191  C192  1.378 .      A
C192  C193  1.374 .      A
C193  N55   1.343 .      A
C193  C195  1.357 .      A
N55   C194  1.370 .      A
C194  N56   1.370 .      A
N56   C195  1.354 .      A
C195  C196  1.377 .      A
C197  C198  1.384 .      A
C197  C203  1.386 .      A
C198  C199  1.378 .      A
C199  C200  1.364 .      A
C200  N57   1.342 .      A
C200  C202  1.356 .      A
N57   C201  1.375 .      A
C201  N58   1.385 .      A
N58   C202  1.349 .      A
C202  C203  1.375 .      A
C204  C205  1.385 .      A
C204  C210  1.389 .      A
C205  C206  1.377 .      A
C206  C207  1.369 .      A
C207  N59   1.344 .      A
C207  C209  1.364 .      A
N59   C208  1.368 .      A
C208  N60   1.374 .      A
N60   C209  1.351 .      A
C209  C210  1.378 .      A
C211  C212  1.383 .      A
C211  C217  1.387 .      A
C212  C213  1.378 .      A
C213  C214  1.370 .      A
C214  N61   1.339 .      A
C214  C216  1.344 .      A
N61   C215  1.362 .      A
C215  N62   1.366 .      A
N62   C216  1.343 .      A
C216  C217  1.362 .      A
C218  C219  1.392 1_554  A
C218  C224  1.383 .      A
C219  C218  1.392 1_556  A
C219  C220  1.387 1_556  A
C220  C219  1.387 1_554  A
C220  C221  1.370 1_565  A
C221  C220  1.370 1_545  A
C221  N63   1.350 .      A
C221  C223  1.353 1_545  A
N63   C222  1.362 .      A
C222  N64   1.358 .      A
N64   C223  1.336 1_545  A
C223  C221  1.353 1_565  A
C223  N64   1.336 1_565  A
C223  C224  1.370 .      A
C225  C226  1.384 .      A
C225  C231  1.384 .      A
C226  C227  1.378 .      A
C227  C228  1.371 .      A
C228  N65   1.343 .      A
C228  C230  1.356 .      A
N65   C229  1.377 1_545  A
C229  N65   1.377 1_565  A
C229  N66   1.375 1_565  A
N66   C229  1.375 1_545  A
N66   C230  1.346 .      A
C230  C231  1.372 .      A
C232  C233  1.390 .      A
C232  C238  1.382 .      A
C233  C234  1.385 1_455  A
C234  C233  1.385 1_655  A
C234  C235  1.374 .      A
C235  N67   1.351 .      A
C235  C237  1.363 .      A
N67   C236  1.372 .      A
C236  N68   1.371 .      A
N68   C237  1.345 .      A
C237  C238  1.371 1_655  A
C238  C237  1.371 1_455  A
C239  C240  1.390 .      A
C239  C245  1.384 .      A
C240  C241  1.383 .      A
C241  C242  1.371 .      A
C242  N69   1.336 .      A
C242  C244  1.362 .      A
N69   C243  1.377 .      A
C243  N70   1.381 .      A
N70   C244  1.356 .      A
C244  C245  1.369 .      A
C246  C247  1.374 .      A
C246  C252  1.364 .      A
C247  C248  1.381 .      A
C248  C249  1.365 .      A
C249  N71   1.351 .      A
C249  C251  1.340 .      A
N71   C250  1.382 .      A
C250  N72   1.387 .      A
N72   C251  1.327 .      A
C251  C252  1.365 .      A
C253  C254  1.389 .      A
C253  C259  1.381 1_545  A
C254  C255  1.385 1_545  A
C255  C254  1.385 1_565  A
C255  C256  1.375 .      A
C256  N73   1.356 .      A
C256  C258  1.364 .      A
N73   C257  1.385 .      A
C257  N74   1.371 .      A
N74   C258  1.338 .      A
C258  C259  1.371 .      A
C259  C253  1.381 1_565  A
C260  C261  1.385 .      A
C260  C266  1.386 .      A
C261  C262  1.376 .      A
C262  C263  1.376 .      A
C263  N75   1.342 .      A
C263  C265  1.354 .      A
N75   C264  1.367 .      A
C264  N76   1.370 .      A
N76   C265  1.349 .      A
C265  C266  1.373 .      A
C267  C268  1.391 .      A
C267  C273  1.384 .      A
C268  C269  1.385 .      A
C269  C270  1.370 .      A
C270  N77   1.346 .      A
C270  C272  1.355 .      A
N77   C271  1.365 .      A
C271  N78   1.364 .      A
N78   C272  1.341 .      A
C272  C273  1.370 .      A
C274  C275  1.387 1_554  A
C274  C280  1.383 .      A
C275  C274  1.387 1_556  A
C275  C276  1.381 1_556  A
C276  C275  1.381 1_554  A
C276  C277  1.374 .      A
C277  N79   1.346 .      A
C277  C279  1.370 .      A
N79   C278  1.387 .      A
C278  N80   1.374 .      A
N80   C279  1.357 .      A
C279  C280  1.379 .      A
C281  C282  1.392 1_655  A
C281  C287  1.385 .      A
C282  C281  1.392 1_455  A
C282  C283  1.385 1_455  A
C283  C282  1.385 1_655  A
C283  C284  1.372 .      A
C284  N81   1.345 .      A
C284  C286  1.365 .      A
N81   C285  1.382 .      A
C285  N82   1.379 .      A
N82   C286  1.348 .      A
C286  C287  1.372 .      A
C288  C289  1.386 .      A
C288  C294  1.353 .      A
C289  C290  1.389 .      A
C290  C291  1.375 .      A
C291  N83   1.343 .      A
C291  C293  1.346 .      A
N83   C292  1.373 .      A
C292  N84   1.370 .      A
N84   C293  1.328 .      A
C293  C294  1.346 .      A
C295  C296  1.380 .      A
C295  C301  1.364 .      A
C296  C297  1.379 .      A
C297  C298  1.351 .      A
C298  N85   1.341 .      A
C298  C300  1.341 .      A
N85   C299  1.379 .      A
C299  N86   1.378 .      A
N86   C300  1.330 .      A
C300  C301  1.364 .      A
C302  C303  1.385 .      A
C302  C308  1.381 .      A
C303  C304  1.382 .      A
C304  C305  1.372 .      A
C305  N87   1.350 .      A
C305  C307  1.364 .      A
N87   C306  1.385 .      A
C306  N88   1.378 .      A
N88   C307  1.351 .      A
C307  C308  1.376 .      A
C309  C310  1.386 .      A
C309  C315  1.383 .      A
C310  C311  1.380 .      A
C311  C312  1.370 .      A
C312  N89   1.340 .      A
C312  C314  1.357 .      A
N89   C313  1.380 1_565  A
C313  N89   1.380 1_545  A
C313  N90   1.373 1_545  A
N90   C313  1.373 1_565  A
N90   C314  1.352 .      A
C314  C315  1.372 .      A
C316  C317  1.383 .      A
C316  C322  1.374 .      A
C317  C318  1.380 .      A
C318  C319  1.353 .      A
C319  N91   1.338 .      A
C319  C321  1.350 .      A
N91   C320  1.371 .      A
C320  N92   1.380 .      A
N92   C321  1.336 .      A
C321  C322  1.366 .      A
C323  C324  1.385 .      A
C323  C329  1.381 .      A
C324  C325  1.382 .      A
C325  C326  1.373 .      A
C326  N93   1.346 .      A
C326  C328  1.362 .      A
N93   C327  1.369 .      A
C327  N94   1.380 .      A
N94   C328  1.348 .      A
C328  C329  1.366 .      A
C330  C331  1.382 .      A
C330  C336  1.378 .      A
C331  C332  1.381 .      A
C332  C333  1.371 .      A
C333  N95   1.356 .      A
C333  C335  1.364 .      A
N95   C334  1.381 .      A
C334  N96   1.390 .      A
N96   C335  1.344 .      A
C335  C336  1.372 .      A
C337  C338  1.387 .      A
C337  C343  1.381 .      A
C338  C339  1.384 .      A
C339  C340  1.372 .      A
C340  N97   1.352 .      A
C340  C342  1.358 .      A
N97   C341  1.366 .      A
C341  N98   1.373 .      A
N98   C342  1.339 .      A
C342  C343  1.372 .      A
C344  C345  1.382 .      A
C344  C350  1.381 .      A
C345  C346  1.376 .      A
C346  C347  1.374 .      A
C347  N99   1.337 .      A
C347  C349  1.354 .      A
N99   C348  1.360 .      A
C348  N100  1.372 .      A
N100  C349  1.356 .      A
C349  C350  1.372 .      A
C351  C352  1.380 .      A
C351  C357  1.396 .      A
C352  C353  1.369 .      A
C353  C354  1.361 .      A
C354  N101  1.342 .      A
C354  C356  1.357 .      A
N101  C355  1.374 .      A
C355  N102  1.380 .      A
N102  C356  1.347 .      A
C356  C357  1.381 .      A
C358  C359  1.388 .      A
C358  C364  1.384 .      A
C359  C360  1.381 .      A
C360  C361  1.372 .      A
C361  N103  1.340 .      A
C361  C363  1.365 .      A
N103  C362  1.370 .      A
C362  N104  1.378 .      A
N104  C363  1.357 .      A
C363  C364  1.375 .      A
C365  C366  1.387 .      A
C365  C371  1.383 .      A
C366  C367  1.382 .      A
C367  C368  1.374 .      A
C368  N105  1.347 .      A
C368  C370  1.367 .      A
N105  C369  1.372 .      A
C369  N106  1.377 .      A
N106  C370  1.353 .      A
C370  C371  1.377 .      A
C372  C373  1.387 .      A
C372  C378  1.380 .      A
C373  C374  1.384 .      A
C374  C375  1.371 .      A
C375  N107  1.349 .      A
C375  C377  1.357 .      A
N107  C376  1.372 .      A
C376  N108  1.373 .      A
N108  C377  1.341 .      A
C377  C378  1.368 .      A
C379  C380  1.389 .      A
C379  C385  1.374 .      A
C380  C381  1.380 .      A
C381  C382  1.368 .      A
C382  N109  1.339 .      A
C382  C384  1.344 .      A
N109  C383  1.364 .      A
C383  N110  1.364 .      A
N110  C384  1.335 .      A
C384  C385  1.356 .      A
C386  C387  1.386 .      A
C386  C392  1.375 .      A
C387  C388  1.381 .      A
C388  C389  1.372 .      A
C389  N111  1.346 .      A
C389  C391  1.350 .      A
N111  C390  1.375 .      A
C390  N112  1.373 .      A
N112  C391  1.338 .      A
C391  C392  1.367 .      A
C393  C394  1.390 .      A
C393  C399  1.382 .      A
C394  C395  1.386 .      A
C395  C396  1.377 .      A
C396  N113  1.354 .      A
C396  C398  1.362 .      A
N113  C397  1.378 .      A
C397  N114  1.378 .      A
N114  C398  1.340 .      A
C398  C399  1.370 .      A
C400  C401  1.376 .      A
C400  C406  1.386 .      A
C401  C402  1.370 .      A
C402  C403  1.364 .      A
C403  N115  1.324 .      A
C403  C405  1.355 .      A
N115  C404  1.369 .      A
C404  N116  1.370 .      A
N116  C405  1.364 .      A
C405  C406  1.375 .      A
C407  C408  1.384 .      A
C407  C413  1.377 .      A
C408  C409  1.386 .      A
C409  C410  1.377 .      A
C410  N117  1.358 .      A
C410  C412  1.366 .      A
N117  C411  1.378 .      A
C411  N118  1.387 .      A
N118  C412  1.339 .      A
C412  C413  1.370 .      A
C414  C415  1.385 .      A
C414  C420  1.369 .      A
C415  C416  1.384 .      A
C416  C417  1.349 .      A
C417  N119  1.341 .      A
C417  C419  1.342 .      A
N119  C418  1.379 .      A
C418  N120  1.377 .      A
N120  C419  1.334 .      A
C419  C420  1.370 .      A
C421  C422  1.383 .      A
C421  C427  1.356 1_545  A
C422  C423  1.386 .      A
C423  C424  1.358 1_545  A
C424  C423  1.358 1_565  A
C424  N121  1.346 .      A
C424  C426  1.341 .      A
N121  C425  1.379 .      A
C425  N122  1.365 .      A
N122  C426  1.322 .      A
C426  C427  1.345 .      A
C427  C421  1.356 1_565  A
C428  C429  1.387 1_655  A
C428  C434  1.378 .      A
C429  C428  1.387 1_455  A
C429  C430  1.383 .      A
C430  C431  1.375 .      A
C431  N123  1.344 1_565  A
C431  C433  1.347 .      A
N123  C431  1.344 1_545  A
N123  C432  1.376 .      A
C432  N124  1.372 .      A
N124  C433  1.338 1_545  A
C433  N124  1.338 1_565  A
C433  C434  1.356 1_455  A
C434  C433  1.356 1_655  A
C435  C436  1.390 .      A
C435  C441  1.380 .      A
C436  C437  1.384 .      A
C437  C438  1.370 .      A
C438  N125  1.347 1_455  A
C438  C440  1.358 .      A
N125  C438  1.347 1_655  A
N125  C439  1.370 .      A
C439  N126  1.357 1_655  A
N126  C439  1.357 1_455  A
N126  C440  1.338 .      A
C440  C441  1.368 .      A
C442  C443  1.384 .      A
C442  C448  1.372 .      A
C443  C444  1.389 .      A
C444  C445  1.359 .      A
C445  N127  1.345 .      A
C445  C447  1.342 .      A
N127  C446  1.370 1_655  A
C446  N127  1.370 1_455  A
C446  N128  1.370 1_455  A
N128  C446  1.370 1_655  A
N128  C447  1.332 .      A
C447  C448  1.366 .      A
C449  C450  1.390 .      A
C449  C455  1.383 .      A
C450  C451  1.384 .      A
C451  C452  1.373 .      A
C452  N129  1.347 .      A
C452  C454  1.366 .      A
N129  C453  1.380 .      A
C453  N130  1.368 .      A
N130  C454  1.349 .      A
C454  C455  1.371 .      A
C456  C457  1.385 1_655  A
C456  C462  1.379 .      A
C457  C456  1.385 1_455  A
C457  C458  1.386 1_455  A
C458  C457  1.386 1_655  A
C458  C459  1.374 .      A
C459  N131  1.351 .      A
C459  C461  1.365 .      A
N131  C460  1.388 .      A
C460  N132  1.372 .      A
N132  C461  1.343 .      A
C461  C462  1.373 .      A
C463  C464  1.388 .      A
C463  C469  1.383 .      A
C464  C465  1.382 .      A
C465  C466  1.373 .      A
C466  N133  1.342 1_455  A
C466  C468  1.365 .      A
N133  C466  1.342 1_655  A
N133  C467  1.389 .      A
C467  N134  1.380 .      A
N134  C468  1.355 1_655  A
C468  N134  1.355 1_455  A
C468  C469  1.375 .      A
C470  C471  1.386 .      A
C470  C476  1.384 .      A
C471  C472  1.380 .      A
C472  C473  1.373 .      A
C473  N135  1.338 .      A
C473  C475  1.345 .      A
N135  C474  1.370 .      A
C474  N136  1.368 .      A
N136  C475  1.344 .      A
C475  C476  1.360 .      A
C477  C478  1.386 .      A
C477  C483  1.378 .      A
C478  C479  1.382 .      A
C479  C480  1.375 .      A
C480  N137  1.346 .      A
C480  C482  1.351 .      A
N137  C481  1.371 .      A
C481  N138  1.368 .      A
N138  C482  1.343 .      A
C482  C483  1.371 .      A
C484  C485  1.388 .      A
C484  C490  1.386 .      A
C485  C486  1.381 .      A
C486  C487  1.371 .      A
C487  N139  1.335 .      A
C487  C489  1.357 .      A
N139  C488  1.366 1_455  A
C488  N139  1.366 1_655  A
C488  N140  1.365 1_655  A
N140  C488  1.365 1_455  A
N140  C489  1.354 .      A
C489  C490  1.367 .      A
C491  C492  1.388 1_545  A
C491  C497  1.384 .      A
C492  C491  1.388 1_565  A
C492  C493  1.382 .      A
C493  C494  1.372 1_565  A
C494  C493  1.372 1_545  A
C494  N141  1.341 .      A
C494  C496  1.361 .      A
N141  C495  1.374 .      A
C495  N142  1.375 .      A
N142  C496  1.354 .      A
C496  C497  1.371 .      A
C498  C499  1.390 .      A
C498  C504  1.383 .      A
C499  C500  1.383 .      A
C500  C501  1.373 .      A
C501  N143  1.344 .      A
C501  C503  1.365 .      A
N143  C502  1.380 .      A
C502  N144  1.384 .      A
N144  C503  1.350 .      A
C503  C504  1.369 .      A
C505  C506  1.394 .      A
C505  C511  1.381 .      A
C506  C507  1.387 .      A
C507  C508  1.373 .      A
C508  N145  1.347 .      A
C508  C510  1.362 .      A
N145  C509  1.376 .      A
C509  N146  1.371 .      A
N146  C510  1.344 .      A
C510  C511  1.369 .      A
C512  C513  1.377 .      A
C512  C518  1.384 .      A
C513  C514  1.370 .      A
C514  C515  1.366 .      A
C515  N147  1.343 .      A
C515  C517  1.340 .      A
N147  C516  1.371 .      A
C516  N148  1.373 .      A
N148  C517  1.336 .      A
C517  C518  1.367 .      A
C519  C520  1.388 .      A
C519  C525  1.381 .      A
C520  C521  1.385 .      A
C521  C522  1.369 .      A
C522  N149  1.349 .      A
C522  C524  1.361 .      A
N149  C523  1.371 .      A
C523  N150  1.378 .      A
N150  C524  1.341 .      A
C524  C525  1.370 .      A
C526  C527  1.376 .      A
C526  C532  1.405 .      A
C527  C528  1.359 .      A
C528  C529  1.352 .      A
C529  N151  1.322 .      A
C529  C531  1.354 .      A
N151  C530  1.365 .      A
C530  N152  1.371 .      A
N152  C531  1.355 .      A
C531  C532  1.381 .      A
