data_str_m1_o12004_MTW
_audit_creation_date              2015-10-01T06:31:45-0700
_symmetry_space_group_name_H-M    P1
_symmetry_Int_Tables_number       1
_space_group_crystal_system       triclinic
loop_
_symmetry_equiv_pos_as_xyz
  x,y,z
_cell_length_a                    10.1110437
_cell_length_b                    24.8422099
_cell_length_c                    25.2804997
_cell_angle_alpha                 72.7618691
_cell_angle_beta                  97.0883105
_cell_angle_gamma                 91.8528125
_cell_volume                      6018.32860828

loop_
_atom_site_label
_atom_site_type_symbol
_atom_site_description
_atom_site_fract_x
_atom_site_fract_y
_atom_site_fract_z
_atom_type_partial_charge
Zn1   Zn    Zn3+2 0.798868 0.755600 0.409981 0.000000
Zn2   Zn    Zn3+2 0.260470 0.097937 0.257308 0.000000
Zn3   Zn    Zn3+2 0.196885 0.349443 0.096590 0.000000
Zn4   Zn    Zn3+2 0.256404 0.492769 0.254467 0.000000
Zn5   Zn    Zn3+2 0.254643 0.740670 0.266459 0.000000
Zn6   Zn    Zn3+2 0.472498 0.176407 0.690425 0.000000
Zn7   Zn    Zn3+2 0.466683 0.421118 0.709377 0.000000
Zn8   Zn    Zn3+2 0.923324 0.164213 0.554010 0.000000
Zn9   Zn    Zn3+2 0.811185 0.013143 0.406215 0.000000
Zn10  Zn    Zn3+2 0.625377 0.080343 0.942757 0.000000
Zn11  Zn    Zn3+2 0.935090 0.526771 0.584571 0.000000
Zn12  Zn    Zn3+2 0.802271 0.404836 0.402031 0.000000
Zn13  Zn    Zn3+2 0.167207 0.968878 0.083719 0.000000
Zn14  Zn    Zn3+2 0.649265 0.329680 0.958000 0.000000
C1    C     C_3   0.603447 0.771430 0.170060 0.000000
N1    N     N_3   0.560033 0.742354 0.223877 0.000000
C2    C     C_3   0.589695 0.778132 0.259579 0.000000
C3    C     C_R   0.549782 0.748527 0.315556 0.000000
N2    N     N_R   0.422238 0.729489 0.318994 0.000000
C4    C     C_R   0.416508 0.709470 0.374143 0.000000
C5    C     C_R   0.306426 0.690045 0.400635 0.000000
C6    C     C_R   0.314492 0.684295 0.457153 0.000000
C7    C     C_R   0.429797 0.699432 0.484952 0.000000
C8    C     C_R   0.541064 0.716199 0.457718 0.000000
C9    C     C_R   0.532710 0.719216 0.402421 0.000000
N3    N     N_R   0.622966 0.741942 0.367379 0.000000
H1    H     H_    0.589093 0.743696 0.142620 0.000000
H2    H     H_    0.544821 0.810759 0.150621 0.000000
H3    H     H_    0.710082 0.782405 0.175448 0.000000
H4    H     H_    0.615489 0.705318 0.241298 0.000000
H5    H     H_    0.694039 0.788427 0.259416 0.000000
H6    H     H_    0.530073 0.817319 0.241978 0.000000
H7    H     H_    0.216731 0.680196 0.378003 0.000000
H8    H     H_    0.229480 0.670416 0.479559 0.000000
H9    H     H_    0.432478 0.698909 0.527951 0.000000
H10   H     H_    0.626571 0.731362 0.478167 0.000000
C10   C     C_3   0.890182 0.702416 0.194498 0.000000
N4    N     N_3   0.971366 0.703596 0.245665 0.000000
C11   C     C_3   0.900591 0.736134 0.272273 0.000000
C12   C     C_R   0.991164 0.747018 0.318730 0.000000
N5    N     N_R   0.953299 0.753738 0.367184 0.000000
C13   C     C_R   0.068701 0.766497 0.392919 0.000000
C14   C     C_R   0.092042 0.769002 0.446774 0.000000
C15   C     C_R   0.221090 0.780154 0.466230 0.000000
C16   C     C_R   0.319998 0.791452 0.430703 0.000000
C17   C     C_R   0.293384 0.788013 0.376635 0.000000
C18   C     C_R   0.167889 0.771253 0.360438 0.000000
N6    N     N_R   0.124005 0.755977 0.314376 0.000000
H11   H     H_    0.931554 0.670950 0.177654 0.000000
H12   H     H_    0.786522 0.690995 0.202818 0.000000
H13   H     H_    0.892089 0.744468 0.163257 0.000000
H14   H     H_    0.054512 0.727435 0.232997 0.000000
H15   H     H_    0.878187 0.777396 0.240781 0.000000
H16   H     H_    0.811261 0.712888 0.288049 0.000000
H17   H     H_    0.013427 0.760863 0.473339 0.000000
H18   H     H_    0.243948 0.782130 0.508528 0.000000
H19   H     H_    0.418950 0.802470 0.445594 0.000000
H20   H     H_    0.366686 0.801394 0.347771 0.000000
C19   C     C_3   0.229453 0.255222 0.016509 0.000000
N7    N     N_3   0.156658 0.238656 0.064507 0.000000
C20   C     C_3   0.239350 0.202665 0.111980 0.000000
C21   C     C_R   0.218385 0.218830 0.162225 0.000000
N8    N     N_R   0.189819 0.273606 0.159247 0.000000
C22   C     C_R   0.170189 0.268592 0.212165 0.000000
C23   C     C_R   0.138359 0.310096 0.233399 0.000000
C24   C     C_R   0.107123 0.294316 0.287861 0.000000
C25   C     C_R   0.124059 0.238807 0.321291 0.000000
C26   C     C_R   0.170530 0.198559 0.300335 0.000000
C27   C     C_R   0.184794 0.214253 0.244640 0.000000
N9    N     N_R   0.218106 0.181085 0.215027 0.000000
H21   H     H_    0.178367 0.291990 0.985650 0.000000
H22   H     H_    0.330189 0.269111 0.027787 0.000000
H23   H     H_    0.233996 0.219191 0.999502 0.000000
H24   H     H_    0.076042 0.214521 0.054906 0.000000
H25   H     H_    0.205440 0.158958 0.117703 0.000000
H26   H     H_    0.345954 0.207532 0.105542 0.000000
H27   H     H_    0.134367 0.352539 0.206782 0.000000
H28   H     H_    0.066546 0.324609 0.304468 0.000000
H29   H     H_    0.098141 0.226558 0.363456 0.000000
H30   H     H_    0.183994 0.155290 0.325597 0.000000
C28   C     C_3   0.564719 0.434097 0.157668 0.000000
N10   N     N_3   0.488213 0.382346 0.170111 0.000000
C29   C     C_3   0.391065 0.387348 0.206182 0.000000
C30   C     C_R   0.282167 0.425624 0.172139 0.000000
N11   N     N_R   0.245814 0.473366 0.183316 0.000000
C31   C     C_R   0.147448 0.495389 0.142327 0.000000
C32   C     C_R   0.055238 0.534275 0.143980 0.000000
C33   C     C_R   0.939991 0.542036 0.107162 0.000000
C34   C     C_R   0.910892 0.505970 0.074926 0.000000
C35   C     C_R   0.997697 0.462728 0.078898 0.000000
C36   C     C_R   0.120706 0.460357 0.109689 0.000000
N12   N     N_R   0.205111 0.415674 0.127527 0.000000
H31   H     H_    0.637038 0.432358 0.128621 0.000000
H32   H     H_    0.496528 0.470505 0.138020 0.000000
H33   H     H_    0.620150 0.438779 0.196719 0.000000
H34   H     H_    0.553643 0.349831 0.192689 0.000000
H35   H     H_    0.350931 0.345133 0.225882 0.000000
H36   H     H_    0.439418 0.404932 0.239232 0.000000
H37   H     H_    0.065174 0.554640 0.176358 0.000000
H38   H     H_    0.866406 0.572465 0.107612 0.000000
H39   H     H_    0.814002 0.508085 0.050920 0.000000
H40   H     H_    0.959373 0.428092 0.065241 0.000000
C37   C     C_3   0.435478 0.533561 0.356635 0.000000
N13   N     N_3   0.299148 0.542391 0.361529 0.000000
C38   C     C_3   0.274898 0.601661 0.334024 0.000000
C39   C     C_R   0.258426 0.615305 0.273122 0.000000
N14   N     N_R   0.256282 0.578521 0.241335 0.000000
C40   C     C_R   0.230076 0.613838 0.189154 0.000000
C41   C     C_R   0.242313 0.603689 0.139482 0.000000
C42   C     C_R   0.205659 0.646340 0.090673 0.000000
C43   C     C_R   0.159550 0.697820 0.092498 0.000000
C44   C     C_R   0.159735 0.708737 0.143108 0.000000
C45   C     C_R   0.201758 0.666421 0.190567 0.000000
N15   N     N_R   0.226621 0.669511 0.242924 0.000000
H41   H     H_    0.461120 0.489847 0.382168 0.000000
H42   H     H_    0.445905 0.544576 0.311637 0.000000
H43   H     H_    0.496884 0.563419 0.373443 0.000000
H44   H     H_    0.294485 0.534703 0.404087 0.000000
H45   H     H_    0.179617 0.614591 0.341275 0.000000
H46   H     H_    0.354060 0.628025 0.348017 0.000000
H47   H     H_    0.289589 0.565967 0.138392 0.000000
H48   H     H_    0.213427 0.639626 0.050830 0.000000
H49   H     H_    0.128088 0.730234 0.054115 0.000000
H50   H     H_    0.123927 0.748430 0.145129 0.000000
C46   C     C_3   0.789723 0.297374 0.625607 0.000000
N16   N     N_3   0.708640 0.295551 0.669434 0.000000
C47   C     C_3   0.587901 0.328053 0.644745 0.000000
C48   C     C_R   0.484691 0.307370 0.682514 0.000000
N17   N     N_R   0.443129 0.252318 0.697402 0.000000
C49   C     C_R   0.356570 0.251620 0.733312 0.000000
C50   C     C_R   0.277685 0.207285 0.756934 0.000000
C51   C     C_R   0.196582 0.214604 0.794661 0.000000
C52   C     C_R   0.201374 0.264451 0.808798 0.000000
C53   C     C_R   0.281596 0.308305 0.783678 0.000000
C54   C     C_R   0.353869 0.302004 0.743387 0.000000
N18   N     N_R   0.430800 0.339698 0.710194 0.000000
H51   H     H_    0.869340 0.265043 0.642120 0.000000
H52   H     H_    0.728399 0.287094 0.590434 0.000000
H53   H     H_    0.833836 0.339968 0.612056 0.000000
H54   H     H_    0.680329 0.253739 0.685983 0.000000
H55   H     H_    0.605192 0.373212 0.638673 0.000000
H56   H     H_    0.553672 0.324567 0.602791 0.000000
H57   H     H_    0.281046 0.168535 0.746192 0.000000
H58   H     H_    0.131532 0.181685 0.814662 0.000000
H59   H     H_    0.139392 0.269667 0.838707 0.000000
H60   H     H_    0.283395 0.345896 0.795179 0.000000
C55   C     C_3   0.158269 0.987319 0.699698 0.000000
N19   N     N_3   0.212469 0.035470 0.660385 0.000000
C56   C     C_3   0.158122 0.085799 0.667726 0.000000
C57   C     C_R   0.204294 0.136370 0.625828 0.000000
N20   N     N_R   0.319820 0.164770 0.635343 0.000000
C58   C     C_R   0.314566 0.208432 0.589211 0.000000
C59   C     C_R   0.410363 0.248250 0.577136 0.000000
C60   C     C_R   0.386179 0.291643 0.528331 0.000000
C61   C     C_R   0.269766 0.292324 0.492644 0.000000
C62   C     C_R   0.176767 0.248894 0.504590 0.000000
C63   C     C_R   0.200564 0.208586 0.555083 0.000000
N21   N     N_R   0.122662 0.165650 0.578821 0.000000
H61   H     H_    0.193599 0.947890 0.693868 0.000000
H62   H     H_    0.191841 0.988237 0.742873 0.000000
H63   H     H_    0.047859 0.988898 0.692353 0.000000
H64   H     H_    0.176409 0.034052 0.620302 0.000000
H65   H     H_    0.047830 0.083717 0.661297 0.000000
H66   H     H_    0.192106 0.088124 0.710353 0.000000
H67   H     H_    0.501586 0.243855 0.605092 0.000000
H68   H     H_    0.457535 0.325296 0.517781 0.000000
H69   H     H_    0.251637 0.328918 0.457056 0.000000
H70   H     H_    0.088121 0.246871 0.476538 0.000000
C64   C     C_3   0.402540 0.132233 0.531387 0.000000
N22   N     N_3   0.469936 0.148628 0.578314 0.000000
C65   C     C_3   0.592067 0.176922 0.561456 0.000000
C66   C     C_R   0.685582 0.175861 0.611714 0.000000
N23   N     N_R   0.646496 0.171714 0.662727 0.000000
C67   C     C_R   0.762280 0.161517 0.696721 0.000000
C68   C     C_R   0.782388 0.146337 0.753597 0.000000
C69   C     C_R   0.908183 0.130755 0.780681 0.000000
C70   C     C_R   0.014004 0.135769 0.750115 0.000000
C71   C     C_R   0.992977 0.156405 0.692776 0.000000
C72   C     C_R   0.864958 0.162649 0.667312 0.000000
N24   N     N_R   0.819957 0.169515 0.613537 0.000000
H71   H     H_    0.307708 0.111038 0.543001 0.000000
H72   H     H_    0.381299 0.170250 0.495123 0.000000
H73   H     H_    0.466253 0.102704 0.520276 0.000000
H74   H     H_    0.495916 0.112102 0.610755 0.000000
H75   H     H_    0.639065 0.153968 0.537468 0.000000
H76   H     H_    0.571473 0.220796 0.534948 0.000000
H77   H     H_    0.702781 0.142257 0.776829 0.000000
H78   H     H_    0.924037 0.115241 0.825693 0.000000
H79   H     H_    0.111716 0.122339 0.771141 0.000000
H80   H     H_    0.073685 0.170592 0.669526 0.000000
C73   C     C_3   0.562498 0.267545 0.850572 0.000000
N25   N     N_3   0.506114 0.213060 0.852033 0.000000
C74   C     C_3   0.586616 0.187192 0.822918 0.000000
C75   C     C_R   0.526526 0.132659 0.819427 0.000000
N26   N     N_R   0.547174 0.083448 0.862405 0.000000
C76   C     C_R   0.506117 0.043762 0.836671 0.000000
C77   C     C_R   0.501922 0.986007 0.858029 0.000000
C78   C     C_R   0.462218 0.954536 0.821851 0.000000
C79   C     C_R   0.428917 0.980475 0.765212 0.000000
C80   C     C_R   0.433073 0.038463 0.744219 0.000000
C81   C     C_R   0.468789 0.068561 0.781197 0.000000
N27   N     N_R   0.482136 0.124408 0.768756 0.000000
H81   H     H_    0.518725 0.284166 0.880718 0.000000
H82   H     H_    0.671159 0.262574 0.860943 0.000000
H83   H     H_    0.538127 0.297065 0.808355 0.000000
H84   H     H_    0.413649 0.221266 0.828442 0.000000
H85   H     H_    0.591094 0.215934 0.780211 0.000000
H86   H     H_    0.688691 0.179570 0.845463 0.000000
H87   H     H_    0.532553 0.964674 0.900774 0.000000
H88   H     H_    0.459851 0.909089 0.837775 0.000000
H89   H     H_    0.400949 0.955206 0.737432 0.000000
H90   H     H_    0.410254 0.059533 0.700169 0.000000
C82   C     C_3   0.893127 0.359598 0.874307 0.000000
N28   N     N_3   0.822983 0.371641 0.819205 0.000000
C83   C     C_3   0.738962 0.419509 0.811970 0.000000
C84   C     C_R   0.603752 0.401032 0.826757 0.000000
N29   N     N_R   0.497684 0.420887 0.787742 0.000000
C85   C     C_R   0.396081 0.416195 0.817371 0.000000
C86   C     C_R   0.267556 0.434017 0.797397 0.000000
C87   C     C_R   0.172745 0.417255 0.833590 0.000000
C88   C     C_R   0.207989 0.380907 0.886720 0.000000
C89   C     C_R   0.338647 0.363685 0.905178 0.000000
C90   C     C_R   0.434292 0.386081 0.870958 0.000000
N30   N     N_R   0.567886 0.376564 0.879727 0.000000
H91   H     H_    0.970505 0.327864 0.878083 0.000000
H92   H     H_    0.940863 0.397893 0.881442 0.000000
H93   H     H_    0.816912 0.344959 0.903034 0.000000
H94   H     H_    0.757932 0.338007 0.821856 0.000000
H95   H     H_    0.783302 0.447835 0.835494 0.000000
H96   H     H_    0.728688 0.445222 0.767788 0.000000
H97   H     H_    0.240743 0.459023 0.754735 0.000000
H98   H     H_    0.070684 0.430536 0.819202 0.000000
H99   H     H_    0.134184 0.365926 0.914802 0.000000
H100  H     H_    0.360162 0.331419 0.943614 0.000000
C91   C     C_3   0.139079 0.320264 0.673835 0.000000
N31   N     N_3   0.147360 0.376440 0.680504 0.000000
C92   C     C_3   0.159545 0.418056 0.627679 0.000000
C93   C     C_R   0.201432 0.470983 0.639043 0.000000
N32   N     N_R   0.318012 0.475625 0.670835 0.000000
C94   C     C_R   0.308861 0.527642 0.676268 0.000000
C95   C     C_R   0.397528 0.553672 0.706233 0.000000
C96   C     C_R   0.364452 0.607113 0.707117 0.000000
C97   C     C_R   0.244829 0.632680 0.678947 0.000000
C98   C     C_R   0.155866 0.605129 0.649659 0.000000
C99   C     C_R   0.191201 0.552488 0.649151 0.000000
N33   N     N_R   0.119814 0.517269 0.625528 0.000000
H101  H     H_    0.224781 0.312325 0.653648 0.000000
H102  H     H_    0.137531 0.288445 0.714910 0.000000
H103  H     H_    0.042626 0.315468 0.650036 0.000000
H104  H     H_    0.232427 0.380970 0.706212 0.000000
H105  H     H_    0.240380 0.406158 0.607299 0.000000
H106  H     H_    0.060420 0.424831 0.602826 0.000000
H107  H     H_    0.489202 0.533187 0.728612 0.000000
H108  H     H_    0.431897 0.629090 0.730153 0.000000
H109  H     H_    0.220656 0.674290 0.680285 0.000000
H110  H     H_    0.062367 0.624377 0.628104 0.000000
C100  C     C_3   0.429185 0.586611 0.546576 0.000000
N34   N     N_3   0.482528 0.533290 0.583287 0.000000
C101  C     C_3   0.603338 0.545319 0.614870 0.000000
C102  C     C_R   0.680551 0.492460 0.641572 0.000000
N35   N     N_R   0.630697 0.445330 0.676549 0.000000
C103  C     C_R   0.736854 0.411167 0.695139 0.000000
C104  C     C_R   0.740869 0.356925 0.729145 0.000000
C105  C     C_R   0.864905 0.332742 0.749943 0.000000
C106  C     C_R   0.978345 0.365181 0.739829 0.000000
C107  C     C_R   0.969532 0.418587 0.701731 0.000000
C108  C     C_R   0.846346 0.437667 0.675531 0.000000
N36   N     N_R   0.813292 0.487799 0.638384 0.000000
H111  H     H_    0.344100 0.578970 0.517682 0.000000
H112  H     H_    0.395073 0.611687 0.572036 0.000000
H113  H     H_    0.507233 0.609472 0.521550 0.000000
H114  H     H_    0.511558 0.510396 0.558342 0.000000
H115  H     H_    0.665738 0.575787 0.587051 0.000000
H116  H     H_    0.576965 0.563349 0.647408 0.000000
H117  H     H_    0.651250 0.334444 0.740737 0.000000
H118  H     H_    0.872854 0.290672 0.778753 0.000000
H119  H     H_    0.072035 0.349009 0.763722 0.000000
H120  H     H_    0.051737 0.447168 0.698793 0.000000
C109  C     C_3   0.221314 0.091305 0.426314 0.000000
N37   N     N_3   0.083155 0.074720 0.430269 0.000000
C110  C     C_3   0.029796 0.108578 0.460433 0.000000
C111  C     C_R   0.917140 0.079306 0.489736 0.000000
N38   N     N_R   0.835553 0.039885 0.474032 0.000000
C112  C     C_R   0.742615 0.031105 0.509445 0.000000
C113  C     C_R   0.623904 0.003406 0.506103 0.000000
C114  C     C_R   0.541071 0.000519 0.546532 0.000000
C115  C     C_R   0.575236 0.027623 0.587143 0.000000
C116  C     C_R   0.688431 0.060885 0.585655 0.000000
C117  C     C_R   0.770146 0.061815 0.545876 0.000000
N39   N     N_R   0.877278 0.094379 0.533055 0.000000
H121  H     H_    0.257538 0.078936 0.392047 0.000000
H122  H     H_    0.229483 0.137643 0.417818 0.000000
H123  H     H_    0.282516 0.070270 0.466264 0.000000
H124  H     H_    0.082899 0.032765 0.454940 0.000000
H125  H     H_    0.109316 0.115001 0.492262 0.000000
H126  H     H_    0.998297 0.150476 0.431804 0.000000
H127  H     H_    0.595644 0.985384 0.472516 0.000000
H128  H     H_    0.448842 0.977281 0.546368 0.000000
H129  H     H_    0.510683 0.023705 0.619100 0.000000
H130  H     H_    0.713147 0.083898 0.615628 0.000000
C118  C     C_3   0.145155 0.340013 0.545813 0.000000
N40   N     N_3   0.036735 0.346192 0.501522 0.000000
C119  C     C_3   0.929855 0.310931 0.523183 0.000000
C120  C     C_R   0.873234 0.286423 0.479450 0.000000
N41   N     N_R   0.799843 0.318633 0.432223 0.000000
C121  C     C_R   0.720340 0.279710 0.416176 0.000000
C122  C     C_R   0.604737 0.287586 0.378765 0.000000
C123  C     C_R   0.523571 0.241489 0.379891 0.000000
C124  C     C_R   0.564772 0.187849 0.411733 0.000000
C125  C     C_R   0.684255 0.179952 0.445906 0.000000
C126  C     C_R   0.756609 0.226842 0.449542 0.000000
N42   N     N_R   0.856416 0.229729 0.489113 0.000000
H131  H     H_    0.233510 0.363788 0.529642 0.000000
H132  H     H_    0.108144 0.357663 0.575472 0.000000
H133  H     H_    0.170983 0.295458 0.567943 0.000000
H134  H     H_    0.061090 0.330951 0.470224 0.000000
H135  H     H_    0.964610 0.277203 0.561767 0.000000
H136  H     H_    0.852707 0.337552 0.530421 0.000000
H137  H     H_    0.571496 0.327136 0.349161 0.000000
H138  H     H_    0.429888 0.246931 0.353131 0.000000
H139  H     H_    0.503158 0.151968 0.409719 0.000000
H140  H     H_    0.715365 0.138034 0.469642 0.000000
C127  C     C_3   0.722530 0.905548 0.526467 0.000000
N43   N     N_3   0.807760 0.856643 0.547446 0.000000
C128  C     C_3   0.891656 0.860026 0.504132 0.000000
C129  C     C_R   0.809625 0.873754 0.447938 0.000000
N44   N     N_R   0.789416 0.834651 0.418293 0.000000
C130  C     C_R   0.748475 0.867018 0.367114 0.000000
C131  C     C_R   0.740232 0.849901 0.320650 0.000000
C132  C     C_R   0.705214 0.889209 0.269595 0.000000
C133  C     C_R   0.684854 0.944583 0.267478 0.000000
C134  C     C_R   0.709825 0.961580 0.314750 0.000000
C135  C     C_R   0.740616 0.921449 0.364875 0.000000
N45   N     N_R   0.781034 0.928836 0.414917 0.000000
H141  H     H_    0.674990 0.912732 0.561068 0.000000
H142  H     H_    0.785276 0.941854 0.507544 0.000000
H143  H     H_    0.646005 0.897917 0.494228 0.000000
H144  H     H_    0.869333 0.861104 0.582205 0.000000
H145  H     H_    0.967167 0.893108 0.505321 0.000000
H146  H     H_    0.944067 0.819332 0.512971 0.000000
H147  H     H_    0.771164 0.807770 0.326029 0.000000
H148  H     H_    0.697008 0.878018 0.231192 0.000000
H149  H     H_    0.651291 0.975290 0.228763 0.000000
H150  H     H_    0.705478 0.005060 0.310583 0.000000
C136  C     C_3   0.364928 0.927050 0.435118 0.000000
N46   N     N_3   0.373473 0.981916 0.394379 0.000000
C137  C     C_3   0.484214 0.980644 0.363171 0.000000
C138  C     C_R   0.528963 0.039398 0.337603 0.000000
N47   N     N_R   0.449579 0.083939 0.303043 0.000000
C139  C     C_R   0.521037 0.128874 0.310007 0.000000
C140  C     C_R   0.489998 0.184903 0.288644 0.000000
C141  C     C_R   0.579810 0.223642 0.301426 0.000000
C142  C     C_R   0.693936 0.206153 0.338570 0.000000
C143  C     C_R   0.720964 0.149330 0.361740 0.000000
C144  C     C_R   0.634969 0.112229 0.344945 0.000000
N48   N     N_R   0.647542 0.056273 0.360186 0.000000
H151  H     H_    0.264918 0.921961 0.449611 0.000000
H152  H     H_    0.384271 0.893475 0.416433 0.000000
H153  H     H_    0.439259 0.923969 0.471791 0.000000
H154  H     H_    0.398802 0.010459 0.417007 0.000000
H155  H     H_    0.567462 0.958692 0.393602 0.000000
H156  H     H_    0.463429 0.955986 0.333226 0.000000
H157  H     H_    0.405160 0.199740 0.259324 0.000000
H158  H     H_    0.557376 0.268015 0.283799 0.000000
H159  H     H_    0.760825 0.236917 0.349725 0.000000
H160  H     H_    0.806101 0.134167 0.392139 0.000000
C145  C     C_3   0.767399 0.150237 0.246979 0.000000
N49   N     N_3   0.819685 0.114855 0.301040 0.000000
C146  C     C_3   0.955334 0.131475 0.311728 0.000000
C147  C     C_R   0.032190 0.078840 0.335099 0.000000
N50   N     N_R   0.979274 0.030937 0.368392 0.000000
C148  C     C_R   0.062680 0.990330 0.366365 0.000000
C149  C     C_R   0.060072 0.933399 0.390649 0.000000
C150  C     C_R   0.147307 0.899973 0.376132 0.000000
C151  C     C_R   0.235675 0.923257 0.338056 0.000000
C152  C     C_R   0.238949 0.980882 0.315034 0.000000
C153  C     C_R   0.155041 0.012700 0.332196 0.000000
N51   N     N_R   0.141160 0.068302 0.312726 0.000000
H161  H     H_    0.823723 0.141119 0.216099 0.000000
H162  H     H_    0.661193 0.139638 0.238315 0.000000
H163  H     H_    0.781357 0.194494 0.246820 0.000000
H164  H     H_    0.825232 0.074739 0.296806 0.000000
H165  H     H_    0.989115 0.156495 0.271782 0.000000
H166  H     H_    0.964332 0.156845 0.341318 0.000000
H167  H     H_    0.997599 0.914866 0.421458 0.000000
H168  H     H_    0.145673 0.855205 0.393906 0.000000
H169  H     H_    0.303832 0.896033 0.328131 0.000000
H170  H     H_    0.306410 0.000791 0.285516 0.000000
C154  C     C_3   0.296608 0.001102 0.907520 0.000000
N52   N     N_3   0.321570 0.946852 0.949198 0.000000
C155  C     C_3   0.421008 0.954885 0.992873 0.000000
C156  C     C_R   0.397165 0.008199 0.004032 0.000000
N53   N     N_R   0.490449 0.049978 0.994490 0.000000
C157  C     C_R   0.470793 0.077493 0.030736 0.000000
C158  C     C_R   0.561762 0.109754 0.051975 0.000000
C159  C     C_R   0.533658 0.122493 0.098852 0.000000
C160  C     C_R   0.409016 0.111813 0.117082 0.000000
C161  C     C_R   0.315211 0.083333 0.090997 0.000000
C162  C     C_R   0.359397 0.058820 0.054692 0.000000
N54   N     N_R   0.311632 0.013038 0.040671 0.000000
H171  H     H_    0.276843 0.995079 0.865514 0.000000
H172  H     H_    0.208658 0.021211 0.916179 0.000000
H173  H     H_    0.384205 0.028661 0.909301 0.000000
H174  H     H_    0.360264 0.919233 0.930871 0.000000
H175  H     H_    0.422059 0.920740 0.032229 0.000000
H176  H     H_    0.523004 0.955728 0.981667 0.000000
H177  H     H_    0.653256 0.122855 0.034421 0.000000
H178  H     H_    0.609146 0.140715 0.121237 0.000000
H179  H     H_    0.389798 0.122753 0.153730 0.000000
H180  H     H_    0.211134 0.083237 0.095804 0.000000
C163  C     C_3   0.904509 0.124053 0.109685 0.000000
N55   N     N_3   0.885792 0.073131 0.093150 0.000000
C164  C     C_3   0.927001 0.084567 0.038354 0.000000
C165  C     C_R   0.902094 0.034887 0.017670 0.000000
N56   N     N_R   0.985913 0.988420 0.033812 0.000000
C166  C     C_R   0.933745 0.958351 0.999982 0.000000
C167  C     C_R   0.973838 0.906583 0.998972 0.000000
C168  C     C_R   0.914646 0.886379 0.956231 0.000000
C169  C     C_R   0.821530 0.919024 0.914981 0.000000
C170  C     C_R   0.778619 0.970095 0.918570 0.000000
C171  C     C_R   0.829899 0.986666 0.963840 0.000000
N57   N     N_R   0.801599 0.034173 0.975436 0.000000
H181  H     H_    0.828776 0.125946 0.137028 0.000000
H182  H     H_    0.005669 0.124538 0.131899 0.000000
H183  H     H_    0.892389 0.160523 0.072192 0.000000
H184  H     H_    0.783862 0.065713 0.088150 0.000000
H185  H     H_    0.865276 0.118995 0.010647 0.000000
H186  H     H_    0.033160 0.096650 0.038520 0.000000
H187  H     H_    0.044212 0.881546 0.031754 0.000000
H188  H     H_    0.944326 0.845817 0.953871 0.000000
H189  H     H_    0.782916 0.904563 0.879771 0.000000
H190  H     H_    0.718333 0.998790 0.884519 0.000000
C172  C     C_3   0.341882 0.138718 0.920225 0.000000
N58   N     N_3   0.356999 0.198276 0.914506 0.000000
C173  C     C_3   0.444114 0.205583 0.961923 0.000000
C174  C     C_R   0.588190 0.204409 0.953703 0.000000
N59   N     N_R   0.650712 0.160903 0.942623 0.000000
C175  C     C_R   0.772494 0.181312 0.934119 0.000000
C176  C     C_R   0.872687 0.155960 0.918073 0.000000
C177  C     C_R   0.993100 0.183661 0.913399 0.000000
C178  C     C_R   0.011160 0.233186 0.928128 0.000000
C179  C     C_R   0.911116 0.255446 0.947644 0.000000
C180  C     C_R   0.788377 0.231104 0.945705 0.000000
N60   N     N_R   0.671872 0.248962 0.955456 0.000000
H191  H     H_    0.267995 0.132949 0.886205 0.000000
H192  H     H_    0.437904 0.121678 0.916292 0.000000
H193  H     H_    0.306072 0.116505 0.960707 0.000000
H194  H     H_    0.263632 0.213413 0.915559 0.000000
H195  H     H_    0.425560 0.247544 0.965670 0.000000
H196  H     H_    0.417970 0.174663 0.000192 0.000000
H197  H     H_    0.857347 0.116297 0.908785 0.000000
H198  H     H_    0.073997 0.166078 0.899619 0.000000
H199  H     H_    0.102960 0.255665 0.924004 0.000000
H200  H     H_    0.933910 0.289761 0.964611 0.000000
C181  C     C_3   0.085472 0.593249 0.423123 0.000000
N61   N     N_3   0.039561 0.630567 0.450382 0.000000
C182  C     C_3   0.900543 0.618179 0.452796 0.000000
C183  C     C_R   0.861900 0.639906 0.495183 0.000000
N62   N     N_R   0.877848 0.608887 0.550036 0.000000
C184  C     C_R   0.845317 0.646292 0.575445 0.000000
C185  C     C_R   0.838763 0.637542 0.631225 0.000000
C186  C     C_R   0.799213 0.682641 0.647392 0.000000
C187  C     C_R   0.766511 0.734439 0.608017 0.000000
C188  C     C_R   0.773751 0.742165 0.551844 0.000000
C189  C     C_R   0.814874 0.697366 0.536902 0.000000
N63   N     N_R   0.827030 0.694875 0.485212 0.000000
H201  H     H_    0.195021 0.596635 0.425388 0.000000
H202  H     H_    0.064382 0.550491 0.446355 0.000000
H203  H     H_    0.022534 0.600996 0.382508 0.000000
H204  H     H_    0.045241 0.671362 0.423957 0.000000
H205  H     H_    0.842356 0.638312 0.411928 0.000000
H206  H     H_    0.885293 0.572460 0.468212 0.000000
H207  H     H_    0.862582 0.596991 0.661360 0.000000
H208  H     H_    0.792332 0.677392 0.690965 0.000000
H209  H     H_    0.734172 0.768866 0.621358 0.000000
H210  H     H_    0.745201 0.781414 0.520685 0.000000
C190  C     C_3   0.603626 0.571370 0.185571 0.000000
N64   N     N_3   0.529265 0.535028 0.227911 0.000000
C191  C     C_3   0.621874 0.511217 0.277639 0.000000
C192  C     C_R   0.553217 0.465820 0.317089 0.000000
N65   N     N_R   0.419070 0.455716 0.307153 0.000000
C193  C     C_R   0.401954 0.408368 0.347921 0.000000
C194  C     C_R   0.302333 0.370391 0.346177 0.000000
C195  C     C_R   0.321440 0.316420 0.382111 0.000000
C196  C     C_R   0.429264 0.304206 0.423783 0.000000
C197  C     C_R   0.525328 0.344528 0.426619 0.000000
C198  C     C_R   0.514864 0.394422 0.384303 0.000000
N66   N     N_R   0.614823 0.429181 0.365671 0.000000
H211  H     H_    0.537114 0.586053 0.145751 0.000000
H212  H     H_    0.640788 0.608422 0.198734 0.000000
H213  H     H_    0.688613 0.547758 0.179268 0.000000
H214  H     H_    0.491344 0.501848 0.213266 0.000000
H215  H     H_    0.709415 0.493155 0.266402 0.000000
H216  H     H_    0.652875 0.544708 0.297163 0.000000
H217  H     H_    0.220447 0.380832 0.313415 0.000000
H218  H     H_    0.248406 0.284388 0.379955 0.000000
H219  H     H_    0.438874 0.262742 0.453668 0.000000
H220  H     H_    0.609514 0.335118 0.458393 0.000000
C199  C     C_3   0.891421 0.581096 0.273446 0.000000
N67   N     N_3   0.913753 0.546933 0.331407 0.000000
C200  C     C_3   0.043200 0.520220 0.340468 0.000000
C201  C     C_R   0.027815 0.465874 0.328342 0.000000
N68   N     N_R   0.928253 0.427939 0.345402 0.000000
C202  C     C_R   0.919441 0.398609 0.309149 0.000000
C203  C     C_R   0.824044 0.360096 0.304900 0.000000
C204  C     C_R   0.802852 0.345209 0.256519 0.000000
C205  C     C_R   0.875567 0.371624 0.213452 0.000000
C206  C     C_R   0.979956 0.406530 0.221726 0.000000
C207  C     C_R   0.005973 0.417838 0.271595 0.000000
N69   N     N_R   0.085237 0.457962 0.285229 0.000000
H221  H     H_    0.800840 0.607188 0.267038 0.000000
H222  H     H_    0.976199 0.609853 0.262647 0.000000
H223  H     H_    0.879362 0.553377 0.245959 0.000000
H224  H     H_    0.844384 0.514398 0.336366 0.000000
H225  H     H_    0.106178 0.546057 0.309938 0.000000
H226  H     H_    0.089278 0.514709 0.383279 0.000000
H227  H     H_    0.763211 0.345666 0.337312 0.000000
H228  H     H_    0.723662 0.316746 0.251058 0.000000
H229  H     H_    0.846806 0.367675 0.172261 0.000000
H230  H     H_    0.028321 0.427405 0.187764 0.000000
C208  C     C_3   0.717453 0.539702 0.408953 0.000000
N70   N     N_3   0.673465 0.534239 0.463114 0.000000
C209  C     C_3   0.692450 0.475662 0.495219 0.000000
C210  C     C_R   0.833955 0.462378 0.498031 0.000000
N71   N     N_R   0.880466 0.437075 0.462636 0.000000
C211  C     C_R   0.013730 0.442760 0.472027 0.000000
C212  C     C_R   0.111059 0.428499 0.444710 0.000000
C213  C     C_R   0.240383 0.444415 0.456718 0.000000
C214  C     C_R   0.270273 0.474811 0.494397 0.000000
C215  C     C_R   0.172200 0.488059 0.522151 0.000000
C216  C     C_R   0.044450 0.470192 0.511055 0.000000
N72   N     N_R   0.932609 0.484321 0.527784 0.000000
H231  H     H_    0.702148 0.583439 0.381235 0.000000
H232  H     H_    0.824028 0.528616 0.413665 0.000000
H233  H     H_    0.664884 0.509210 0.389947 0.000000
H234  H     H_    0.571754 0.542949 0.458121 0.000000
H235  H     H_    0.666976 0.468348 0.538050 0.000000
H236  H     H_    0.630436 0.448730 0.474039 0.000000
H237  H     H_    0.090812 0.406729 0.413915 0.000000
H238  H     H_    0.318062 0.434578 0.435249 0.000000
H239  H     H_    0.370180 0.489926 0.500106 0.000000
H240  H     H_    0.194165 0.516185 0.547014 0.000000
C217  C     C_3   0.446335 0.923219 0.160426 0.000000
N73   N     N_3   0.403857 0.940844 0.205532 0.000000
C218  C     C_3   0.404494 0.002071 0.189227 0.000000
C219  C     C_R   0.263346 0.021016 0.177499 0.000000
N74   N     N_R   0.170441 0.998084 0.146457 0.000000
C220  C     C_R   0.055342 0.008552 0.161392 0.000000
C221  C     C_R   0.935499 0.984912 0.149946 0.000000
C222  C     C_R   0.827616 0.001010 0.170077 0.000000
C223  C     C_R   0.844225 0.038181 0.202306 0.000000
C224  C     C_R   0.969993 0.057570 0.216455 0.000000
C225  C     C_R   0.075282 0.041237 0.195676 0.000000
N75   N     N_R   0.206664 0.051766 0.205717 0.000000
H241  H     H_    0.428091 0.877525 0.168011 0.000000
H242  H     H_    0.387866 0.946143 0.120560 0.000000
H243  H     H_    0.553830 0.932119 0.157952 0.000000
H244  H     H_    0.470781 0.925049 0.241260 0.000000
H245  H     H_    0.455411 0.016798 0.223802 0.000000
H246  H     H_    0.457494 0.018030 0.151869 0.000000
H247  H     H_    0.923962 0.958069 0.122990 0.000000
H248  H     H_    0.730152 0.988317 0.155649 0.000000
H249  H     H_    0.758761 0.052989 0.215845 0.000000
H250  H     H_    0.984041 0.085372 0.241647 0.000000
C226  C     C_3   0.021337 0.925474 0.259051 0.000000
N76   N     N_3   0.117837 0.922045 0.222126 0.000000
C227  C     C_3   0.088199 0.870786 0.207204 0.000000
C228  C     C_R   0.194231 0.857137 0.177422 0.000000
N77   N     N_R   0.207160 0.885859 0.122680 0.000000
C229  C     C_R   0.271769 0.848332 0.105944 0.000000
C230  C     C_R   0.282117 0.848538 0.052276 0.000000
C231  C     C_R   0.341662 0.802798 0.044040 0.000000
C232  C     C_R   0.383208 0.756662 0.088984 0.000000
C233  C     C_R   0.362233 0.755168 0.142435 0.000000
C234  C     C_R   0.305883 0.801722 0.149794 0.000000
N78   N     N_R   0.257539 0.805742 0.195852 0.000000
H251  H     H_    0.035294 0.965117 0.270655 0.000000
H252  H     H_    0.919235 0.924155 0.237829 0.000000
H253  H     H_    0.033789 0.888747 0.296916 0.000000
H254  H     H_    0.211942 0.917390 0.244837 0.000000
H255  H     H_    0.079441 0.835727 0.245360 0.000000
H256  H     H_    0.991766 0.875517 0.180149 0.000000
H257  H     H_    0.240538 0.882013 0.017197 0.000000
H258  H     H_    0.352317 0.802285 0.002165 0.000000
H259  H     H_    0.426623 0.720576 0.081889 0.000000
H260  H     H_    0.385731 0.717562 0.176298 0.000000
C235  C     C_3   0.539718 0.469280 0.015769 0.000000
N79   N     N_3   0.397557 0.465497 0.000070 0.000000
C236  C     C_3   0.378480 0.421343 0.973050 0.000000
C237  C     C_R   0.417368 0.366334 0.014671 0.000000
N80   N     N_R   0.520373 0.333592 0.010407 0.000000
C238  C     C_R   0.533504 0.294663 0.059837 0.000000
C239  C     C_R   0.621461 0.251582 0.077135 0.000000
C240  C     C_R   0.642180 0.225966 0.133514 0.000000
C241  C     C_R   0.564379 0.239845 0.168904 0.000000
C242  C     C_R   0.459438 0.276919 0.148462 0.000000
C243  C     C_R   0.446543 0.303741 0.092642 0.000000
N81   N     N_R   0.363571 0.345872 0.063977 0.000000
H261  H     H_    0.558227 0.499822 0.040146 0.000000
H262  H     H_    0.578744 0.427225 0.041399 0.000000
H263  H     H_    0.590873 0.483647 0.977670 0.000000
H264  H     H_    0.367282 0.503467 0.970331 0.000000
H265  H     H_    0.272704 0.420291 0.955983 0.000000
H266  H     H_    0.443205 0.430534 0.939151 0.000000
H267  H     H_    0.676557 0.241037 0.047964 0.000000
H268  H     H_    0.725873 0.198512 0.149753 0.000000
H269  H     H_    0.588692 0.223422 0.212596 0.000000
H270  H     H_    0.403690 0.289328 0.176556 0.000000
C244  C     C_3   0.876980 0.273345 0.168079 0.000000
N82   N     N_3   0.811798 0.289072 0.111282 0.000000
C245  C     C_3   0.907329 0.278872 0.077360 0.000000
C246  C     C_R   0.926036 0.330723 0.032774 0.000000
N83   N     N_R   0.830910 0.355320 0.988688 0.000000
C247  C     C_R   0.887726 0.404744 0.964821 0.000000
C248  C     C_R   0.826057 0.450508 0.926116 0.000000
C249  C     C_R   0.897986 0.500082 0.911860 0.000000
C250  C     C_R   0.025594 0.503490 0.938541 0.000000
C251  C     C_R   0.082625 0.457545 0.980116 0.000000
C252  C     C_R   0.012750 0.407990 0.991342 0.000000
N84   N     N_R   0.039299 0.361654 0.035325 0.000000
H271  H     H_    0.805977 0.278517 0.196092 0.000000
H272  H     H_    0.912070 0.229003 0.180749 0.000000
H273  H     H_    0.964274 0.300726 0.170500 0.000000
H274  H     H_    0.794082 0.332440 0.099186 0.000000
H275  H     H_    0.002168 0.267232 0.104175 0.000000
H276  H     H_    0.876988 0.245293 0.058799 0.000000
H277  H     H_    0.721764 0.448904 0.910776 0.000000
H278  H     H_    0.852322 0.537181 0.881679 0.000000
H279  H     H_    0.077978 0.543193 0.928695 0.000000
H280  H     H_    0.175149 0.461574 0.004888 0.000000

loop_
_geom_bond_atom_site_label_1
_geom_bond_atom_site_label_2
_geom_bond_distance
_geom_bond_site_symmetry_2
_ccdc_geom_bond_type
Zn1   N3    2.035 .      S
Zn1   N5    2.015 .      S
Zn1   N44   2.042 .      S
Zn1   N63   2.041 .      S
Zn2   N9    2.056 .      S
Zn2   N47   2.091 .      S
Zn2   N51   1.926 .      S
Zn2   N75   1.996 .      S
Zn3   N8    2.077 .      S
Zn3   N12   2.016 .      S
Zn3   N81   1.981 .      S
Zn3   N84   2.043 .      S
Zn4   N11   1.986 .      S
Zn4   N14   2.057 .      S
Zn4   N65   2.039 .      S
Zn4   N69   2.046 .      S
Zn5   N2    1.992 .      S
Zn5   N6    2.014 .      S
Zn5   N15   2.027 .      S
Zn5   N78   2.025 .      S
Zn6   N17   1.980 .      S
Zn6   N20   2.021 .      S
Zn6   N23   1.991 .      S
Zn6   N27   2.011 .      S
Zn7   N18   2.038 .      S
Zn7   N29   1.966 .      S
Zn7   N32   2.008 .      S
Zn7   N35   1.944 .      S
Zn8   N21   2.038 1_655  S
Zn8   N24   1.972 .      S
Zn8   N39   1.985 .      S
Zn8   N42   2.003 .      S
Zn9   N38   2.000 .      S
Zn9   N45   2.057 1_545  S
Zn9   N48   2.035 .      S
Zn9   N50   2.025 .      S
Zn10  N26   2.067 .      S
Zn10  N53   1.982 .      S
Zn10  N57   2.093 .      S
Zn10  N59   2.008 .      S
Zn11  N33   2.006 1_655  S
Zn11  N36   1.965 .      S
Zn11  N62   2.038 .      S
Zn11  N72   2.015 .      S
Zn12  N41   2.050 .      S
Zn12  N66   2.029 .      S
Zn12  N68   1.979 .      S
Zn12  N71   2.000 .      S
Zn13  N54   2.025 1_565  S
Zn13  N56   2.076 1_455  S
Zn13  N74   1.926 .      S
Zn13  N77   2.034 .      S
Zn14  N30   2.060 .      S
Zn14  N60   2.046 .      S
Zn14  N80   1.993 1_556  S
Zn14  N83   2.061 .      S
C1    N1    1.453 .      S
C1    H1    1.109 .      S
C1    H2    1.108 .      S
C1    H3    1.106 .      S
N1    C2    1.444 .      S
N1    H4    1.043 .      S
C2    C3    1.487 .      S
C2    H5    1.078 .      S
C2    H6    1.106 .      S
C5    H7    1.072 .      S
C6    H8    1.079 .      S
C7    H9    1.080 .      S
C8    H10   1.068 .      S
C10   N4    1.451 .      S
C10   H11   1.109 .      S
C10   H12   1.106 .      S
C10   H13   1.109 .      S
N4    C11   1.448 .      S
N4    H14   1.040 1_655  S
C11   C12   1.483 .      S
C11   H15   1.106 .      S
C11   H16   1.108 .      S
C14   H17   1.079 .      S
C15   H18   1.081 .      S
C16   H19   1.081 .      S
C17   H20   1.080 .      S
H14   N4    1.040 1_455  S
C19   N7    1.445 .      S
C19   H21   1.104 1_554  S
C19   H22   1.096 .      S
C19   H23   1.106 1_554  S
N7    C20   1.450 .      S
N7    H24   1.043 .      S
C20   C21   1.481 .      S
C20   H25   1.101 .      S
C20   H26   1.107 .      S
C23   H27   1.068 .      S
C24   H28   1.077 .      S
C25   H29   1.081 .      S
C26   H30   1.078 .      S
H21   C19   1.104 1_556  S
H23   C19   1.106 1_556  S
C28   N10   1.451 .      S
C28   H31   1.109 .      S
C28   H32   1.109 .      S
C28   H33   1.109 .      S
N10   C29   1.452 .      S
N10   H34   1.041 .      S
C29   C30   1.485 .      S
C29   H35   1.107 .      S
C29   H36   1.109 .      S
C32   H37   1.076 .      S
C33   H38   1.081 .      S
C34   H39   1.081 .      S
C35   H40   1.064 .      S
C37   N13   1.429 .      S
C37   H41   1.107 .      S
C37   H42   1.106 .      S
C37   H43   1.099 .      S
N13   C38   1.444 .      S
N13   H44   1.042 .      S
C38   C39   1.464 .      S
C38   H45   1.079 .      S
C38   H46   1.108 .      S
C41   H47   1.075 .      S
C42   H48   1.081 .      S
C43   H49   1.081 .      S
C44   H50   1.079 .      S
C46   N16   1.447 .      S
C46   H51   1.108 .      S
C46   H52   1.108 .      S
C46   H53   1.108 .      S
N16   C47   1.452 .      S
N16   H54   1.043 .      S
C47   C48   1.478 .      S
C47   H55   1.098 .      S
C47   H56   1.102 .      S
C50   H57   1.077 .      S
C51   H58   1.077 .      S
C52   H59   1.078 .      S
C53   H60   1.056 .      S
C55   N19   1.451 1_565  S
C55   H61   1.109 .      S
C55   H62   1.109 .      S
C55   H63   1.109 .      S
N19   C55   1.451 1_545  S
N19   C56   1.451 .      S
N19   H64   1.044 .      S
C56   C57   1.488 .      S
C56   H65   1.109 .      S
C56   H66   1.108 .      S
C59   H67   1.078 .      S
C60   H68   1.080 .      S
C61   H69   1.075 .      S
C62   H70   1.082 .      S
N21   Zn8   2.038 1_455  S
C64   N22   1.451 .      S
C64   H71   1.108 .      S
C64   H72   1.109 .      S
C64   H73   1.109 .      S
N22   C65   1.448 .      S
N22   H74   1.042 .      S
C65   C66   1.481 .      S
C65   H75   1.101 .      S
C65   H76   1.108 .      S
C68   H77   1.039 .      S
C69   H78   1.081 .      S
C70   H79   1.075 .      S
C71   H80   1.055 1_655  S
H80   C71   1.055 1_455  S
C73   N25   1.444 .      S
C73   H81   1.108 .      S
C73   H82   1.100 .      S
C73   H83   1.105 .      S
N25   C74   1.442 .      S
N25   H84   1.036 .      S
C74   C75   1.489 .      S
C74   H85   1.109 .      S
C74   H86   1.109 .      S
C77   H87   1.064 .      S
C78   H88   1.081 .      S
C79   H89   1.081 .      S
C80   H90   1.080 .      S
C82   N28   1.434 .      S
C82   H91   1.104 .      S
C82   H92   1.105 .      S
C82   H93   1.103 .      S
N28   C83   1.438 .      S
N28   H94   1.038 .      S
C83   C84   1.484 .      S
C83   H95   1.101 .      S
C83   H96   1.104 .      S
C86   H97   1.079 .      S
C87   H98   1.079 .      S
C88   H99   1.075 .      S
C89   H100  1.064 .      S
C91   N31   1.453 .      S
C91   H101  1.109 .      S
C91   H102  1.105 .      S
C91   H103  1.103 .      S
N31   C92   1.443 .      S
N31   H104  1.036 .      S
C92   C93   1.466 .      S
C92   H105  1.109 .      S
C92   H106  1.105 .      S
C95   H107  1.081 .      S
C96   H108  1.081 .      S
C97   H109  1.081 .      S
C98   H110  1.080 .      S
N33   Zn11  2.006 1_455  S
C100  N34   1.449 .      S
C100  H111  1.107 .      S
C100  H112  1.108 .      S
C100  H113  1.108 .      S
N34   C101  1.448 .      S
N34   H114  1.037 .      S
C101  C102  1.483 .      S
C101  H115  1.108 .      S
C101  H116  1.108 .      S
C104  H117  1.075 .      S
C105  H118  1.081 .      S
C106  H119  1.079 1_655  S
C107  H120  1.071 1_655  S
H119  C106  1.079 1_455  S
H120  C107  1.071 1_455  S
C109  N37   1.451 .      S
C109  H121  1.106 .      S
C109  H122  1.109 .      S
C109  H123  1.109 .      S
N37   C110  1.446 .      S
N37   H124  1.044 .      S
C110  C111  1.487 1_455  S
C110  H125  1.108 .      S
C110  H126  1.108 1_455  S
C111  C110  1.487 1_655  S
C113  H127  1.077 1_545  S
C114  H128  1.081 1_545  S
C115  H129  1.081 .      S
C116  H130  1.079 .      S
H126  C110  1.108 1_655  S
H127  C113  1.077 1_565  S
H128  C114  1.081 1_565  S
C118  N40   1.444 .      S
C118  H131  1.108 .      S
C118  H132  1.081 .      S
C118  H133  1.105 .      S
N40   C119  1.427 1_455  S
N40   H134  1.030 .      S
C119  N40   1.427 1_655  S
C119  C120  1.463 .      S
C119  H135  1.108 .      S
C119  H136  1.104 .      S
C122  H137  1.078 .      S
C123  H138  1.081 .      S
C124  H139  1.081 .      S
C125  H140  1.071 .      S
C127  N43   1.440 .      S
C127  H141  1.109 .      S
C127  H142  1.108 .      S
C127  H143  1.107 .      S
N43   C128  1.448 .      S
N43   H144  1.044 .      S
C128  C129  1.504 .      S
C128  H145  1.108 .      S
C128  H146  1.106 .      S
C131  H147  1.067 .      S
C132  H148  1.080 .      S
C133  H149  1.071 .      S
C134  H150  1.056 1_565  S
N45   Zn9   2.057 1_565  S
H150  C134  1.056 1_545  S
C136  N46   1.452 .      S
C136  H151  1.108 .      S
C136  H152  1.106 .      S
C136  H153  1.105 .      S
N46   C137  1.453 .      S
N46   H154  1.043 1_565  S
C137  C138  1.491 1_565  S
C137  H155  1.104 .      S
C137  H156  1.104 .      S
C138  C137  1.491 1_545  S
C140  H157  1.060 .      S
C141  H158  1.079 .      S
C142  H159  1.081 .      S
C143  H160  1.077 .      S
H154  N46   1.043 1_545  S
C145  N49   1.435 .      S
C145  H161  1.099 .      S
C145  H162  1.108 .      S
C145  H163  1.103 .      S
N49   C146  1.436 .      S
N49   H164  1.037 .      S
C146  C147  1.469 1_655  S
C146  H165  1.106 .      S
C146  H166  1.106 .      S
C147  C146  1.469 1_455  S
C149  H167  1.052 1_455  S
C150  H168  1.069 .      S
C151  H169  1.081 .      S
C152  H170  1.073 1_565  S
H167  C149  1.052 1_655  S
H170  C152  1.073 1_545  S
C154  N52   1.451 1_545  S
C154  H171  1.109 1_545  S
C154  H172  1.109 .      S
C154  H173  1.107 .      S
N52   C154  1.451 1_565  S
N52   C155  1.454 .      S
N52   H174  1.044 .      S
C155  C156  1.467 1_566  S
C155  H175  1.099 1_556  S
C155  H176  1.101 .      S
C156  C155  1.467 1_544  S
C158  H177  1.075 .      S
C159  H178  1.063 .      S
C160  H179  1.080 .      S
C161  H180  1.074 .      S
N54   Zn13  2.025 1_545  S
H171  C154  1.109 1_565  S
H175  C155  1.099 1_554  S
C163  N55   1.445 .      S
C163  H181  1.104 .      S
C163  H182  1.106 1_655  S
C163  H183  1.097 .      S
N55   C164  1.440 .      S
N55   H184  1.040 .      S
C164  C165  1.480 .      S
C164  H185  1.088 .      S
C164  H186  1.105 1_655  S
N56   Zn13  2.076 1_655  S
C167  H187  1.076 1_656  S
C168  H188  1.081 .      S
C169  H189  1.081 .      S
C170  H190  1.075 .      S
H182  C163  1.106 1_455  S
H186  C164  1.105 1_455  S
H187  C167  1.076 1_454  S
C172  N58   1.448 .      S
C172  H191  1.107 .      S
C172  H192  1.099 .      S
C172  H193  1.108 .      S
N58   C173  1.450 .      S
N58   H194  1.034 .      S
C173  C174  1.499 .      S
C173  H195  1.098 .      S
C173  H196  1.098 1_556  S
C176  H197  1.081 .      S
C177  H198  1.079 1_655  S
C178  H199  1.068 .      S
C179  H200  1.069 .      S
H196  C173  1.098 1_554  S
H198  C177  1.079 1_455  S
C181  N61   1.427 .      S
C181  H201  1.104 .      S
C181  H202  1.079 .      S
C181  H203  1.107 .      S
N61   C182  1.434 1_455  S
N61   H204  1.040 .      S
C182  N61   1.434 1_655  S
C182  C183  1.432 .      S
C182  H205  1.107 .      S
C182  H206  1.099 .      S
C185  H207  1.081 .      S
C186  H208  1.081 .      S
C187  H209  1.081 .      S
C188  H210  1.078 .      S
C190  N64   1.452 .      S
C190  H211  1.109 .      S
C190  H212  1.108 .      S
C190  H213  1.109 .      S
N64   C191  1.453 .      S
N64   H214  1.044 .      S
C191  C192  1.484 .      S
C191  H215  1.108 .      S
C191  H216  1.106 .      S
C194  H217  1.075 .      S
C195  H218  1.077 .      S
C196  H219  1.081 .      S
C197  H220  1.076 .      S
C199  N67   1.453 .      S
C199  H221  1.107 .      S
C199  H222  1.106 .      S
C199  H223  1.109 .      S
N67   C200  1.448 1_655  S
N67   H224  1.042 .      S
C200  N67   1.448 1_455  S
C200  C201  1.470 .      S
C200  H225  1.102 .      S
C200  H226  1.095 .      S
C203  H227  1.056 .      S
C204  H228  1.074 .      S
C205  H229  1.078 .      S
C206  H230  1.034 1_655  S
H230  C206  1.034 1_455  S
C208  N70   1.459 .      S
C208  H231  1.108 .      S
C208  H232  1.104 .      S
C208  H233  1.102 .      S
N70   C209  1.447 .      S
N70   H234  1.042 .      S
C209  C210  1.467 .      S
C209  H235  1.105 .      S
C209  H236  1.109 .      S
C212  H237  1.069 .      S
C213  H238  1.080 .      S
C214  H239  1.074 .      S
C215  H240  1.072 .      S
C217  N73   1.451 .      S
C217  H241  1.107 .      S
C217  H242  1.106 .      S
C217  H243  1.108 .      S
N73   C218  1.453 1_565  S
N73   H244  1.041 .      S
C218  N73   1.453 1_545  S
C218  C219  1.484 .      S
C218  H245  1.109 .      S
C218  H246  1.107 .      S
C221  H247  1.080 .      S
C222  H248  1.078 1_545  S
C223  H249  1.080 .      S
C224  H250  1.065 .      S
H248  C222  1.078 1_565  S
C226  N76   1.452 .      S
C226  H251  1.108 .      S
C226  H252  1.107 1_455  S
C226  H253  1.107 .      S
N76   C227  1.444 .      S
N76   H254  1.040 .      S
C227  C228  1.485 .      S
C227  H255  1.102 .      S
C227  H256  1.108 1_455  S
C230  H257  1.072 .      S
C231  H258  1.081 .      S
C232  H259  1.081 .      S
C233  H260  1.073 .      S
H252  C226  1.107 1_655  S
H256  C227  1.108 1_655  S
C235  N79   1.451 .      S
C235  H261  1.109 .      S
C235  H262  1.109 .      S
C235  H263  1.109 1_554  S
N79   C236  1.451 1_554  S
N79   H264  1.044 1_554  S
C236  N79   1.451 1_556  S
C236  C237  1.486 1_556  S
C236  H265  1.105 .      S
C236  H266  1.108 .      S
C237  C236  1.486 1_554  S
N80   Zn14  1.993 1_554  S
C239  H267  1.072 .      S
C240  H268  1.066 .      S
C241  H269  1.058 .      S
C242  H270  1.076 .      S
H263  C235  1.109 1_556  S
H264  N79   1.044 1_556  S
C244  N82   1.449 .      S
C244  H271  1.104 .      S
C244  H272  1.109 .      S
C244  H273  1.104 .      S
N82   C245  1.443 .      S
N82   H274  1.044 .      S
C245  C246  1.463 .      S
C245  H275  1.097 1_655  S
C245  H276  1.091 .      S
C248  H277  1.081 .      S
C249  H278  1.081 .      S
C250  H279  1.081 .      S
C251  H280  1.079 1_556  S
H275  C245  1.097 1_455  S
H280  C251  1.079 1_554  S
C3    N2    1.363 .      A
C3    N3    1.390 .      A
N2    C4    1.342 .      A
C4    C5    1.370 .      A
C4    C9    1.352 .      A
C5    C6    1.385 .      A
C6    C7    1.386 .      A
C7    C8    1.380 .      A
C8    C9    1.370 .      A
C9    N3    1.344 .      A
C12   N5    1.384 .      A
C12   N6    1.367 1_655  A
N5    C13   1.340 1_655  A
C13   N5    1.340 1_455  A
C13   C14   1.372 .      A
C13   C18   1.354 .      A
C14   C15   1.386 .      A
C15   C16   1.393 .      A
C16   C17   1.387 .      A
C17   C18   1.375 .      A
C18   N6    1.349 .      A
N6    C12   1.367 1_455  A
C21   N8    1.378 .      A
C21   N9    1.386 .      A
N8    C22   1.345 .      A
C22   C23   1.359 .      A
C22   C27   1.358 .      A
C23   C24   1.389 .      A
C24   C25   1.391 .      A
C25   C26   1.381 .      A
C26   C27   1.370 .      A
C27   N9    1.341 .      A
C30   N11   1.369 .      A
C30   N12   1.370 .      A
N11   C31   1.344 .      A
C31   C32   1.377 .      A
C31   C36   1.366 .      A
C32   C33   1.379 1_455  A
C33   C32   1.379 1_655  A
C33   C34   1.382 .      A
C34   C35   1.382 .      A
C35   C36   1.377 1_655  A
C36   C35   1.377 1_455  A
C36   N12   1.354 .      A
C39   N14   1.382 .      A
C39   N15   1.363 .      A
N14   C40   1.350 .      A
C40   C41   1.373 .      A
C40   C45   1.358 .      A
C41   C42   1.386 .      A
C42   C43   1.391 .      A
C43   C44   1.384 .      A
C44   C45   1.371 .      A
C45   N15   1.341 .      A
C48   N17   1.373 .      A
C48   N18   1.374 .      A
N17   C49   1.333 .      A
C49   C50   1.370 .      A
C49   C54   1.351 .      A
C50   C51   1.386 .      A
C51   C52   1.385 .      A
C52   C53   1.381 .      A
C53   C54   1.372 .      A
C54   N18   1.354 .      A
C57   N20   1.378 .      A
C57   N21   1.381 .      A
N20   C58   1.333 .      A
C58   C59   1.357 .      A
C58   C63   1.351 .      A
C59   C60   1.378 .      A
C60   C61   1.389 .      A
C61   C62   1.397 .      A
C62   C63   1.368 .      A
C63   N21   1.342 .      A
C66   N23   1.369 .      A
C66   N24   1.366 .      A
N23   C67   1.347 .      A
C67   C68   1.365 .      A
C67   C72   1.344 .      A
C68   C69   1.377 .      A
C69   C70   1.377 1_655  A
C70   C69   1.377 1_455  A
C70   C71   1.378 1_455  A
C71   C70   1.378 1_655  A
C71   C72   1.365 .      A
C72   N24   1.341 .      A
C75   N26   1.375 .      A
C75   N27   1.376 .      A
N26   C76   1.362 .      A
C76   C77   1.376 1_545  A
C76   C81   1.364 .      A
C77   C76   1.376 1_565  A
C77   C78   1.386 .      A
C78   C79   1.388 .      A
C79   C80   1.381 1_565  A
C80   C79   1.381 1_545  A
C80   C81   1.370 .      A
C81   N27   1.335 .      A
C84   N29   1.361 .      A
C84   N30   1.385 .      A
N29   C85   1.327 .      A
C85   C86   1.372 .      A
C85   C90   1.354 .      A
C86   C87   1.376 .      A
C87   C88   1.389 .      A
C88   C89   1.383 .      A
C89   C90   1.371 .      A
C90   N30   1.358 .      A
C93   N32   1.364 .      A
C93   N33   1.371 .      A
N32   C94   1.347 .      A
C94   C95   1.371 .      A
C94   C99   1.364 .      A
C95   C96   1.387 .      A
C96   C97   1.394 .      A
C97   C98   1.386 .      A
C98   C99   1.371 .      A
C99   N33   1.344 .      A
C102  N35   1.366 .      A
C102  N36   1.365 .      A
N35   C103  1.338 .      A
C103  C104  1.366 .      A
C103  C108  1.341 .      A
C104  C105  1.382 .      A
C105  C106  1.386 .      A
C106  C107  1.387 .      A
C107  C108  1.365 .      A
C108  N36   1.342 .      A
C111  N38   1.376 .      A
C111  N39   1.365 .      A
N38   C112  1.346 .      A
C112  C113  1.370 .      A
C112  C117  1.359 .      A
C113  C114  1.384 .      A
C114  C115  1.391 .      A
C115  C116  1.388 .      A
C116  C117  1.373 .      A
C117  N39   1.344 .      A
C120  N41   1.367 .      A
C120  N42   1.365 .      A
N41   C121  1.359 .      A
C121  C122  1.390 .      A
C121  C126  1.367 .      A
C122  C123  1.383 .      A
C123  C124  1.384 .      A
C124  C125  1.379 .      A
C125  C126  1.376 .      A
C126  N42   1.346 .      A
C129  N44   1.388 .      A
C129  N45   1.394 .      A
N44   C130  1.328 .      A
C130  C131  1.355 .      A
C130  C135  1.341 .      A
C131  C132  1.381 .      A
C132  C133  1.382 .      A
C133  C134  1.374 .      A
C134  C135  1.368 .      A
C135  N45   1.344 .      A
C138  N47   1.394 .      A
C138  N48   1.371 .      A
N47   C139  1.354 .      A
C139  C140  1.367 .      A
C139  C144  1.357 .      A
C140  C141  1.382 .      A
C141  C142  1.388 .      A
C142  C143  1.381 .      A
C143  C144  1.369 .      A
C144  N48   1.334 .      A
C147  N50   1.374 1_455  A
C147  N51   1.365 .      A
N50   C147  1.374 1_655  A
N50   C148  1.352 1_645  A
C148  N50   1.352 1_465  A
C148  C149  1.366 .      A
C148  C153  1.345 1_565  A
C149  C150  1.382 .      A
C150  C151  1.381 .      A
C151  C152  1.377 .      A
C152  C153  1.368 1_565  A
C153  C148  1.345 1_545  A
C153  C152  1.368 1_545  A
C153  N51   1.328 .      A
C156  N53   1.367 1_554  A
C156  N54   1.375 .      A
N53   C156  1.367 1_556  A
N53   C157  1.331 1_556  A
C157  N53   1.331 1_554  A
C157  C158  1.365 .      A
C157  C162  1.349 .      A
C158  C159  1.377 .      A
C159  C160  1.386 .      A
C160  C161  1.383 .      A
C161  C162  1.365 .      A
C162  N54   1.347 .      A
C165  N56   1.384 1_545  A
C165  N57   1.384 1_554  A
N56   C165  1.384 1_565  A
N56   C166  1.345 1_554  A
C166  N56   1.345 1_556  A
C166  C167  1.369 .      A
C166  C171  1.365 .      A
C167  C168  1.386 .      A
C168  C169  1.392 .      A
C169  C170  1.386 .      A
C170  C171  1.366 .      A
C171  N57   1.345 1_565  A
N57   C165  1.384 1_556  A
N57   C171  1.345 1_545  A
C174  N59   1.383 .      A
C174  N60   1.379 .      A
N59   C175  1.334 .      A
C175  C176  1.372 .      A
C175  C180  1.353 .      A
C176  C177  1.379 .      A
C177  C178  1.388 1_655  A
C178  C177  1.388 1_455  A
C178  C179  1.376 1_455  A
C179  C178  1.376 1_655  A
C179  C180  1.365 .      A
C180  N60   1.347 .      A
C183  N62   1.365 .      A
C183  N63   1.363 .      A
N62   C184  1.345 .      A
C184  C185  1.371 .      A
C184  C189  1.368 .      A
C185  C186  1.387 .      A
C186  C187  1.394 .      A
C187  C188  1.386 .      A
C188  C189  1.368 .      A
C189  N63   1.347 .      A
C192  N65   1.377 .      A
C192  N66   1.382 .      A
N65   C193  1.337 .      A
C193  C194  1.363 .      A
C193  C198  1.359 .      A
C194  C195  1.383 .      A
C195  C196  1.392 .      A
C196  C197  1.384 .      A
C197  C198  1.374 .      A
C198  N66   1.345 .      A
C201  N68   1.376 1_455  A
C201  N69   1.362 .      A
N68   C201  1.376 1_655  A
N68   C202  1.323 .      A
C202  C203  1.354 .      A
C202  C207  1.343 1_655  A
C203  C204  1.370 .      A
C204  C205  1.378 .      A
C205  C206  1.380 .      A
C206  C207  1.364 1_655  A
C207  C202  1.343 1_455  A
C207  C206  1.364 1_455  A
C207  N69   1.356 .      A
C210  N71   1.369 .      A
C210  N72   1.371 .      A
N71   C211  1.349 1_655  A
C211  N71   1.349 1_455  A
C211  C212  1.381 .      A
C211  C216  1.358 .      A
C212  C213  1.378 .      A
C213  C214  1.382 .      A
C214  C215  1.383 .      A
C215  C216  1.375 .      A
C216  N72   1.346 1_455  A
N72   C216  1.346 1_655  A
C219  N74   1.368 1_545  A
C219  N75   1.369 .      A
N74   C219  1.368 1_565  A
N74   C220  1.323 1_565  A
C220  N74   1.323 1_545  A
C220  C221  1.366 1_445  A
C220  C225  1.347 .      A
C221  C220  1.366 1_665  A
C221  C222  1.376 1_565  A
C222  C221  1.376 1_545  A
C222  C223  1.395 .      A
C223  C224  1.388 .      A
C224  C225  1.366 1_655  A
C225  C224  1.366 1_455  A
C225  N75   1.353 .      A
C228  N77   1.376 .      A
C228  N78   1.372 .      A
N77   C229  1.348 .      A
C229  C230  1.372 .      A
C229  C234  1.364 .      A
C230  C231  1.383 .      A
C231  C232  1.387 .      A
C232  C233  1.383 .      A
C233  C234  1.376 .      A
C234  N78   1.348 .      A
C237  N80   1.376 .      A
C237  N81   1.372 .      A
N80   C238  1.329 .      A
C238  C239  1.347 .      A
C238  C243  1.347 .      A
C239  C240  1.370 .      A
C240  C241  1.383 .      A
C241  C242  1.374 .      A
C242  C243  1.362 .      A
C243  N81   1.335 .      A
C246  N83   1.382 1_554  A
C246  N84   1.364 1_655  A
N83   C246  1.382 1_556  A
N83   C247  1.343 .      A
C247  C248  1.369 .      A
C247  C252  1.368 1_655  A
C248  C249  1.385 .      A
C249  C250  1.392 1_655  A
C250  C249  1.392 1_455  A
C250  C251  1.386 .      A
C251  C252  1.372 .      A
C252  C247  1.368 1_455  A
C252  N84   1.349 1_556  A
N84   C246  1.364 1_455  A
N84   C252  1.349 1_554  A
