data_str_m1_o12004_SEW
_audit_creation_date              2015-10-01T06:33:10-0700
_symmetry_space_group_name_H-M    P1
_symmetry_Int_Tables_number       1
_space_group_crystal_system       triclinic
loop_
_symmetry_equiv_pos_as_xyz
  x,y,z
_cell_length_a                    50.6017978
_cell_length_b                    24.1721770
_cell_length_c                    29.1916806
_cell_angle_alpha                 91.6341575
_cell_angle_beta                  90.1779079
_cell_angle_gamma                 89.7891664
_cell_volume                      35691.0438866

loop_
_atom_site_label
_atom_site_type_symbol
_atom_site_description
_atom_site_fract_x
_atom_site_fract_y
_atom_site_fract_z
_atom_type_partial_charge
Zn1   Zn    Zn3+2 0.722030 0.953523 0.259963 0.000000
Zn2   Zn    Zn3+2 0.603655 0.867876 0.286497 0.000000
Zn3   Zn    Zn3+2 0.120342 0.963491 0.254549 0.000000
Zn4   Zn    Zn3+2 0.540864 0.469838 0.417772 0.000000
Zn5   Zn    Zn3+2 0.310934 0.741824 0.400738 0.000000
Zn6   Zn    Zn3+2 0.480218 0.838171 0.581473 0.000000
Zn7   Zn    Zn3+2 0.857565 0.953292 0.588080 0.000000
Zn8   Zn    Zn3+2 0.487739 0.087813 0.515306 0.000000
Zn9   Zn    Zn3+2 0.533390 0.088098 0.303734 0.000000
Zn10  Zn    Zn3+2 0.426681 0.740443 0.308121 0.000000
Zn11  Zn    Zn3+2 0.923016 0.837960 0.252260 0.000000
Zn12  Zn    Zn3+2 0.916231 0.591876 0.176638 0.000000
Zn13  Zn    Zn3+2 0.734934 0.808057 0.075549 0.000000
Zn14  Zn    Zn3+2 0.851215 0.825663 0.774845 0.000000
Zn15  Zn    Zn3+2 0.854877 0.342692 0.782567 0.000000
Zn16  Zn    Zn3+2 0.980286 0.826295 0.776935 0.000000
Zn17  Zn    Zn3+2 0.361097 0.345817 0.578633 0.000000
Zn18  Zn    Zn3+2 0.977726 0.219953 0.577504 0.000000
Zn19  Zn    Zn3+2 0.490281 0.335164 0.581537 0.000000
Zn20  Zn    Zn3+2 0.320167 0.476251 0.400424 0.000000
Zn21  Zn    Zn3+2 0.981314 0.344657 0.770297 0.000000
Zn22  Zn    Zn3+2 0.809476 0.225877 0.957603 0.000000
Zn23  Zn    Zn3+2 0.028079 0.968281 0.946141 0.000000
Zn24  Zn    Zn3+2 0.028620 0.232497 0.940914 0.000000
Zn25  Zn    Zn3+2 0.807119 0.960690 0.955798 0.000000
Zn26  Zn    Zn3+2 0.827447 0.221864 0.377107 0.000000
Zn27  Zn    Zn3+2 0.018066 0.958536 0.378609 0.000000
Zn28  Zn    Zn3+2 0.213481 0.735078 0.096086 0.000000
Zn29  Zn    Zn3+2 0.485331 0.459570 0.769234 0.000000
Zn30  Zn    Zn3+2 0.425070 0.094510 0.177713 0.000000
Zn31  Zn    Zn3+2 0.722609 0.218360 0.255589 0.000000
Zn32  Zn    Zn3+2 0.423758 0.836692 0.100562 0.000000
Zn33  Zn    Zn3+2 0.422938 0.347370 0.098918 0.000000
Zn34  Zn    Zn3+2 0.922508 0.219341 0.069665 0.000000
Zn35  Zn    Zn3+2 0.923655 0.349197 0.265720 0.000000
Zn36  Zn    Zn3+2 0.432926 0.488906 0.296175 0.000000
Zn37  Zn    Zn3+2 0.919270 0.971829 0.063375 0.000000
Zn38  Zn    Zn3+2 0.027213 0.588798 0.054183 0.000000
Zn39  Zn    Zn3+2 0.806891 0.589328 0.056894 0.000000
Zn40  Zn    Zn3+2 0.125055 0.228821 0.256307 0.000000
Zn41  Zn    Zn3+2 0.608500 0.307085 0.288090 0.000000
Zn42  Zn    Zn3+2 0.355968 0.723946 0.761389 0.000000
Zn43  Zn    Zn3+2 0.621448 0.456550 0.114294 0.000000
Zn44  Zn    Zn3+2 0.620307 0.716895 0.113758 0.000000
Zn45  Zn    Zn3+2 0.829452 0.958076 0.376711 0.000000
Zn46  Zn    Zn3+2 0.851502 0.217104 0.588397 0.000000
Zn47  Zn    Zn3+2 0.853171 0.585329 0.848188 0.000000
Zn48  Zn    Zn3+2 0.316846 0.102828 0.303580 0.000000
Zn49  Zn    Zn3+2 0.362983 0.101333 0.512392 0.000000
Zn50  Zn    Zn3+2 0.982210 0.588060 0.844273 0.000000
Zn51  Zn    Zn3+2 0.985080 0.958507 0.591547 0.000000
Zn52  Zn    Zn3+2 0.355719 0.851998 0.571693 0.000000
Zn53  Zn    Zn3+2 0.481282 0.717627 0.773392 0.000000
Zn54  Zn    Zn3+2 0.359658 0.466604 0.771176 0.000000
Zn55  Zn    Zn3+2 0.321491 0.735604 0.978764 0.000000
Zn56  Zn    Zn3+2 0.522545 0.449468 0.978368 0.000000
Zn57  Zn    Zn3+2 0.521771 0.715775 0.985192 0.000000
Zn58  Zn    Zn3+2 0.324793 0.471981 0.982876 0.000000
Zn59  Zn    Zn3+2 0.103051 0.373639 0.073650 0.000000
Zn60  Zn    Zn3+2 0.236236 0.885900 0.277538 0.000000
Zn61  Zn    Zn3+2 0.737567 0.372395 0.082497 0.000000
Zn62  Zn    Zn3+2 0.020692 0.233071 0.378617 0.000000
Zn63  Zn    Zn3+2 0.242226 0.320704 0.277259 0.000000
Zn64  Zn    Zn3+2 0.218192 0.470636 0.104413 0.000000
Zn65  Zn    Zn3+2 0.098120 0.812936 0.074833 0.000000
Zn66  Zn    Zn3+2 0.537111 0.722272 0.418456 0.000000
C1    C     C_3   0.802057 0.840594 0.229308 0.000000
N1    N     N_3   0.781931 0.873842 0.252345 0.000000
C2    C     C_3   0.794717 0.921667 0.273629 0.000000
C3    C     C_R   0.778837 0.942299 0.312479 0.000000
N2    N     N_R   0.751751 0.950592 0.310164 0.000000
C4    C     C_R   0.745822 0.961619 0.354415 0.000000
C5    C     C_R   0.721436 0.974041 0.372534 0.000000
C6    C     C_R   0.719423 0.979510 0.419693 0.000000
C7    C     C_R   0.741395 0.971264 0.447366 0.000000
C8    C     C_R   0.765910 0.960307 0.428177 0.000000
C9    C     C_R   0.767917 0.958897 0.381373 0.000000
N3    N     N_R   0.789697 0.949905 0.355624 0.000000
H1    H     H_    0.792434 0.812456 0.203923 0.000000
H2    H     H_    0.816204 0.867545 0.211610 0.000000
H3    H     H_    0.812649 0.815422 0.254577 0.000000
H4    H     H_    0.774302 0.850061 0.278477 0.000000
H5    H     H_    0.814121 0.909922 0.285639 0.000000
H6    H     H_    0.797869 0.954981 0.249994 0.000000
H7    H     H_    0.704339 0.979558 0.351027 0.000000
H8    H     H_    0.700477 0.988782 0.435149 0.000000
H9    H     H_    0.739343 0.973388 0.484222 0.000000
H10   H     H_    0.782566 0.950955 0.449527 0.000000
C10   C     C_3   0.592121 0.660167 0.279598 0.000000
N4    N     N_3   0.596042 0.710744 0.306129 0.000000
C11   C     C_3   0.570063 0.732773 0.317188 0.000000
C12   C     C_R   0.572959 0.781390 0.348599 0.000000
N5    N     N_R   0.563537 0.779306 0.392549 0.000000
C13   C     C_R   0.577338 0.820495 0.414044 0.000000
C14   C     C_R   0.574442 0.843206 0.457332 0.000000
C15   C     C_R   0.592916 0.881193 0.473286 0.000000
C16   C     C_R   0.612486 0.899828 0.444521 0.000000
C17   C     C_R   0.612779 0.882650 0.399017 0.000000
C18   C     C_R   0.594523 0.843869 0.384585 0.000000
N6    N     N_R   0.590421 0.824254 0.341733 0.000000
H11   H     H_    0.611097 0.647145 0.263711 0.000000
H12   H     H_    0.584838 0.627208 0.301898 0.000000
H13   H     H_    0.577218 0.667933 0.252870 0.000000
H14   H     H_    0.605687 0.738271 0.285246 0.000000
H15   H     H_    0.559030 0.742614 0.286306 0.000000
H16   H     H_    0.558618 0.701179 0.335239 0.000000
H17   H     H_    0.557168 0.836557 0.477080 0.000000
H18   H     H_    0.591161 0.898748 0.507618 0.000000
H19   H     H_    0.626384 0.930682 0.456887 0.000000
H20   H     H_    0.626616 0.900391 0.375742 0.000000
C19   C     C_3   0.545208 0.982557 0.426010 0.000000
N7    N     N_3   0.558095 0.009839 0.388874 0.000000
C20   C     C_3   0.571623 0.968207 0.360700 0.000000
C21   C     C_R   0.566405 0.971812 0.310029 0.000000
N8    N     N_R   0.579473 0.936718 0.279431 0.000000
C22   C     C_R   0.574088 0.959609 0.238832 0.000000
C23   C     C_R   0.583814 0.944790 0.196469 0.000000
C24   C     C_R   0.580255 0.981066 0.161128 0.000000
C25   C     C_R   0.566835 0.030595 0.168482 0.000000
C26   C     C_R   0.555959 0.043254 0.210839 0.000000
C27   C     C_R   0.559271 0.006169 0.244897 0.000000
N9    N     N_R   0.552949 0.014579 0.289031 0.000000
H21   H     H_    0.558745 0.953097 0.442100 0.000000
H22   H     H_    0.527219 0.962365 0.412710 0.000000
H23   H     H_    0.539805 0.013233 0.453213 0.000000
H24   H     H_    0.572744 0.033331 0.405340 0.000000
H25   H     H_    0.593107 0.973585 0.365964 0.000000
H26   H     H_    0.565779 0.927543 0.371912 0.000000
H27   H     H_    0.595080 0.907850 0.191189 0.000000
H28   H     H_    0.589085 0.972192 0.128137 0.000000
H29   H     H_    0.564957 0.059358 0.140987 0.000000
H30   H     H_    0.545948 0.081893 0.217589 0.000000
C28   C     C_3   0.626707 0.052258 0.230091 0.000000
N10   N     N_3   0.633620 0.994188 0.234202 0.000000
C29   C     C_3   0.649387 0.988429 0.275289 0.000000
C30   C     C_R   0.659652 0.931044 0.279025 0.000000
N11   N     N_R   0.643571 0.888437 0.292762 0.000000
C31   C     C_R   0.661210 0.853139 0.310818 0.000000
C32   C     C_R   0.656255 0.803742 0.331194 0.000000
C33   C     C_R   0.677369 0.775702 0.349912 0.000000
C34   C     C_R   0.702848 0.796289 0.346632 0.000000
C35   C     C_R   0.707683 0.844027 0.323028 0.000000
C36   C     C_R   0.686357 0.872236 0.306071 0.000000
N12   N     N_R   0.686469 0.920211 0.283695 0.000000
H31   H     H_    0.619951 0.059443 0.194649 0.000000
H32   H     H_    0.610638 0.063252 0.254287 0.000000
H33   H     H_    0.643952 0.079065 0.237443 0.000000
H34   H     H_    0.645048 0.982586 0.206078 0.000000
H35   H     H_    0.666312 0.017063 0.275782 0.000000
H36   H     H_    0.636924 0.998161 0.305631 0.000000
H37   H     H_    0.636646 0.787349 0.333576 0.000000
H38   H     H_    0.674009 0.737394 0.367154 0.000000
H39   H     H_    0.719166 0.773784 0.361274 0.000000
H40   H     H_    0.727599 0.858273 0.318537 0.000000
C37   C     C_3   0.163447 0.955607 0.079271 0.000000
N13   N     N_3   0.139363 0.936853 0.100404 0.000000
C38   C     C_3   0.145773 0.901735 0.138487 0.000000
C39   C     C_R   0.120516 0.886219 0.160499 0.000000
N14   N     N_R   0.110534 0.917535 0.196925 0.000000
C40   C     C_R   0.084797 0.912839 0.190339 0.000000
C41   C     C_R   0.067834 0.955918 0.196185 0.000000
C42   C     C_R   0.044258 0.951248 0.173471 0.000000
C43   C     C_R   0.036033 0.901032 0.154478 0.000000
C44   C     C_R   0.054404 0.860199 0.146371 0.000000
C45   C     C_R   0.079409 0.872530 0.158789 0.000000
N15   N     N_R   0.101286 0.856900 0.136461 0.000000
H41   H     H_    0.174818 0.981558 0.104173 0.000000
H42   H     H_    0.175153 0.919472 0.067341 0.000000
H43   H     H_    0.158368 0.980675 0.049248 0.000000
H44   H     H_    0.128719 0.913531 0.076328 0.000000
H45   H     H_    0.157057 0.865547 0.125820 0.000000
H46   H     H_    0.157807 0.924743 0.163985 0.000000
H47   H     H_    0.073947 0.994503 0.212484 0.000000
H48   H     H_    0.032612 0.987458 0.170295 0.000000
H49   H     H_    0.016299 0.896062 0.141337 0.000000
H50   H     H_    0.050164 0.822743 0.127177 0.000000
C46   C     C_3   0.194331 0.064247 0.203357 0.000000
N16   N     N_3   0.181045 0.013946 0.215852 0.000000
C47   C     C_3   0.190138 0.999015 0.260990 0.000000
C48   C     C_R   0.180731 0.943072 0.271319 0.000000
N17   N     N_R   0.154463 0.929803 0.271926 0.000000
C49   C     C_R   0.154534 0.877536 0.285981 0.000000
C50   C     C_R   0.133127 0.844939 0.294922 0.000000
C51   C     C_R   0.137615 0.793742 0.313256 0.000000
C52   C     C_R   0.163239 0.774911 0.319157 0.000000
C53   C     C_R   0.184422 0.807337 0.306993 0.000000
C54   C     C_R   0.179562 0.859726 0.292225 0.000000
N18   N     N_R   0.196986 0.900395 0.283589 0.000000
H51   H     H_    0.188299 0.075270 0.168225 0.000000
H52   H     H_    0.188403 0.097659 0.227658 0.000000
H53   H     H_    0.216050 0.058420 0.204297 0.000000
H54   H     H_    0.186670 0.982972 0.192641 0.000000
H55   H     H_    0.211864 0.001048 0.263705 0.000000
H56   H     H_    0.181488 0.027438 0.286771 0.000000
H57   H     H_    0.113360 0.858381 0.288352 0.000000
H58   H     H_    0.121119 0.767632 0.321581 0.000000
H59   H     H_    0.166615 0.734295 0.332578 0.000000
H60   H     H_    0.204163 0.792574 0.311179 0.000000
C55   C     C_3   0.160425 0.090027 0.378199 0.000000
N19   N     N_3   0.153902 0.117150 0.335764 0.000000
C56   C     C_3   0.128601 0.096608 0.320169 0.000000
C57   C     C_R   0.127150 0.096579 0.269435 0.000000
N20   N     N_R   0.129863 0.144107 0.244644 0.000000
C58   C     C_R   0.131917 0.123414 0.201713 0.000000
C59   C     C_R   0.136688 0.152025 0.163080 0.000000
C60   C     C_R   0.135401 0.124748 0.121114 0.000000
C61   C     C_R   0.128999 0.069303 0.118975 0.000000
C62   C     C_R   0.125157 0.040721 0.158809 0.000000
C63   C     C_R   0.127595 0.068170 0.200104 0.000000
N21   N     N_R   0.124903 0.048440 0.242622 0.000000
H61   H     H_    0.175586 0.114498 0.397168 0.000000
H62   H     H_    0.142620 0.087671 0.400144 0.000000
H63   H     H_    0.168290 0.047921 0.370533 0.000000
H64   H     H_    0.167616 0.106303 0.310757 0.000000
H65   H     H_    0.126014 0.053827 0.330960 0.000000
H66   H     H_    0.113374 0.123755 0.335261 0.000000
H67   H     H_    0.140629 0.194864 0.165742 0.000000
H68   H     H_    0.138427 0.147080 0.090017 0.000000
H69   H     H_    0.126497 0.048645 0.085964 0.000000
H70   H     H_    0.118695 0.999280 0.157010 0.000000
C64   C     C_3   0.552074 0.618591 0.563901 0.000000
N22   N     N_3   0.557379 0.620619 0.515233 0.000000
C65   C     C_3   0.534715 0.601782 0.488006 0.000000
C66   C     C_R   0.543770 0.596513 0.439911 0.000000
N23   N     N_R   0.554123 0.643445 0.421605 0.000000
C67   C     C_R   0.577509 0.624753 0.405328 0.000000
C68   C     C_R   0.599429 0.655267 0.395333 0.000000
C69   C     C_R   0.622348 0.627041 0.383246 0.000000
C70   C     C_R   0.623279 0.569577 0.383392 0.000000
C71   C     C_R   0.601511 0.539635 0.396779 0.000000
C72   C     C_R   0.578816 0.568393 0.407493 0.000000
N24   N     N_R   0.556541 0.548741 0.426115 0.000000
H71   H     H_    0.571023 0.613992 0.582560 0.000000
H72   H     H_    0.542953 0.657969 0.575432 0.000000
H73   H     H_    0.539050 0.583460 0.571514 0.000000
H74   H     H_    0.573885 0.596195 0.507779 0.000000
H75   H     H_    0.526666 0.562169 0.499302 0.000000
H76   H     H_    0.519243 0.633043 0.491000 0.000000
H77   H     H_    0.599300 0.699754 0.398417 0.000000
H78   H     H_    0.639847 0.649984 0.374612 0.000000
H79   H     H_    0.641480 0.548210 0.374811 0.000000
H80   H     H_    0.602932 0.495523 0.400684 0.000000
C73   C     C_3   0.605056 0.496080 0.264227 0.000000
N25   N     N_3   0.604427 0.447633 0.292337 0.000000
C74   C     C_3   0.578335 0.444603 0.311670 0.000000
C75   C     C_R   0.576979 0.400889 0.345292 0.000000
N26   N     N_R   0.592834 0.354341 0.342024 0.000000
C76   C     C_R   0.595870 0.341500 0.386345 0.000000
C77   C     C_R   0.612633 0.303133 0.404264 0.000000
C78   C     C_R   0.616506 0.302595 0.450990 0.000000
C79   C     C_R   0.604123 0.341659 0.478897 0.000000
C80   C     C_R   0.587037 0.379401 0.460324 0.000000
C81   C     C_R   0.582633 0.377953 0.414031 0.000000
N27   N     N_R   0.568951 0.414572 0.389240 0.000000
H81   H     H_    0.623511 0.496248 0.244218 0.000000
H82   H     H_    0.588282 0.494698 0.239958 0.000000
H83   H     H_    0.604066 0.534149 0.286188 0.000000
H84   H     H_    0.617503 0.455192 0.319502 0.000000
H85   H     H_    0.575887 0.482686 0.331779 0.000000
H86   H     H_    0.562997 0.439562 0.285176 0.000000
H87   H     H_    0.624684 0.278247 0.382689 0.000000
H88   H     H_    0.630477 0.273927 0.465403 0.000000
H89   H     H_    0.608517 0.344124 0.515122 0.000000
H90   H     H_    0.579054 0.411028 0.481568 0.000000
C82   C     C_3   0.368790 0.681042 0.485746 0.000000
N28   N     N_3   0.375552 0.716338 0.448206 0.000000
C83   C     C_3   0.373160 0.688164 0.403312 0.000000
C84   C     C_R   0.370317 0.732441 0.369577 0.000000
N29   N     N_R   0.347215 0.762505 0.370829 0.000000
C85   C     C_R   0.354013 0.807252 0.347168 0.000000
C86   C     C_R   0.339448 0.852382 0.336721 0.000000
C87   C     C_R   0.347758 0.880766 0.298874 0.000000
C88   C     C_R   0.374025 0.879701 0.286766 0.000000
C89   C     C_R   0.390258 0.841977 0.305945 0.000000
C90   C     C_R   0.378985 0.802675 0.331159 0.000000
N30   N     N_R   0.390517 0.756243 0.343839 0.000000
H91   H     H_    0.356242 0.646607 0.473828 0.000000
H92   H     H_    0.386975 0.664836 0.501483 0.000000
H93   H     H_    0.358132 0.705693 0.512417 0.000000
H94   H     H_    0.394889 0.729680 0.453295 0.000000
H95   H     H_    0.389496 0.659323 0.395652 0.000000
H96   H     H_    0.355014 0.663410 0.401442 0.000000
H97   H     H_    0.320555 0.860387 0.352382 0.000000
H98   H     H_    0.334624 0.908791 0.281780 0.000000
H99   H     H_    0.381997 0.909989 0.264427 0.000000
H100  H     H_    0.410882 0.842753 0.301394 0.000000
C91   C     C_3   0.289828 0.833337 0.213211 0.000000
N31   N     N_3   0.283342 0.791222 0.245556 0.000000
C92   C     C_3   0.292819 0.810083 0.289857 0.000000
C93   C     C_R   0.273149 0.806038 0.327676 0.000000
N32   N     N_R   0.249684 0.834774 0.326182 0.000000
C94   C     C_R   0.240271 0.831034 0.369125 0.000000
C95   C     C_R   0.217528 0.854045 0.388037 0.000000
C96   C     C_R   0.213086 0.850569 0.434265 0.000000
C97   C     C_R   0.232344 0.828775 0.461611 0.000000
C98   C     C_R   0.255049 0.807589 0.442059 0.000000
C99   C     C_R   0.257866 0.803995 0.395504 0.000000
N33   N     N_R   0.279070 0.785955 0.370717 0.000000
H101  H     H_    0.284866 0.818652 0.178032 0.000000
H102  H     H_    0.277779 0.870094 0.221005 0.000000
H103  H     H_    0.310916 0.844590 0.215713 0.000000
H104  H     H_    0.294652 0.756457 0.236472 0.000000
H105  H     H_    0.310299 0.784716 0.297363 0.000000
H106  H     H_    0.297022 0.854608 0.287710 0.000000
H107  H     H_    0.202942 0.875100 0.368756 0.000000
H108  H     H_    0.195475 0.868690 0.449339 0.000000
H109  H     H_    0.230461 0.831545 0.498479 0.000000
H110  H     H_    0.271326 0.803241 0.463361 0.000000
C100  C     C_3   0.295045 0.567552 0.541050 0.000000
N34   N     N_3   0.310208 0.563918 0.498798 0.000000
C101  C     C_3   0.302637 0.611875 0.473411 0.000000
C102  C     C_R   0.307760 0.608445 0.423149 0.000000
N35   N     N_R   0.305929 0.655444 0.396672 0.000000
C103  C     C_R   0.304012 0.633307 0.354489 0.000000
C104  C     C_R   0.298184 0.660474 0.315602 0.000000
C105  C     C_R   0.294800 0.629279 0.276014 0.000000
C106  C     C_R   0.300267 0.573324 0.275421 0.000000
C107  C     C_R   0.307850 0.547261 0.314863 0.000000
C108  C     C_R   0.306953 0.577663 0.354708 0.000000
N36   N     N_R   0.309066 0.559239 0.397498 0.000000
H111  H     H_    0.303487 0.538903 0.566219 0.000000
H112  H     H_    0.295807 0.610310 0.555473 0.000000
H113  H     H_    0.274095 0.556793 0.534369 0.000000
H114  H     H_    0.329745 0.570034 0.509193 0.000000
H115  H     H_    0.281065 0.616968 0.477090 0.000000
H116  H     H_    0.313678 0.647080 0.487906 0.000000
H117  H     H_    0.294668 0.703906 0.316499 0.000000
H118  H     H_    0.289917 0.649030 0.244626 0.000000
H119  H     H_    0.298781 0.550380 0.243703 0.000000
H120  H     H_    0.312217 0.503683 0.314742 0.000000
C109  C     C_3   0.505641 0.901782 0.475051 0.000000
N37   N     N_3   0.484160 0.939922 0.465437 0.000000
C110  C     C_3   0.468097 0.948564 0.506405 0.000000
C111  C     C_R   0.484929 0.962813 0.544826 0.000000
N38   N     N_R   0.493383 0.922869 0.574595 0.000000
C112  C     C_R   0.513255 0.950219 0.596589 0.000000
C113  C     C_R   0.530442 0.930756 0.628939 0.000000
C114  C     C_R   0.548785 0.966761 0.648202 0.000000
C115  C     C_R   0.549751 0.021332 0.635045 0.000000
C116  C     C_R   0.532760 0.040105 0.601742 0.000000
C117  C     C_R   0.515102 0.003675 0.582159 0.000000
N39   N     N_R   0.497350 0.013393 0.548772 0.000000
H121  H     H_    0.499063 0.870989 0.498903 0.000000
H122  H     H_    0.511854 0.879922 0.443002 0.000000
H123  H     H_    0.522715 0.923860 0.490639 0.000000
H124  H     H_    0.472384 0.921176 0.440142 0.000000
H125  H     H_    0.452737 0.980091 0.502730 0.000000
H126  H     H_    0.458431 0.911372 0.515973 0.000000
H127  H     H_    0.529355 0.889397 0.640577 0.000000
H128  H     H_    0.562152 0.952470 0.674316 0.000000
H129  H     H_    0.563834 0.049413 0.650974 0.000000
H130  H     H_    0.533164 0.082395 0.592393 0.000000
C118  C     C_3   0.546226 0.222224 0.399055 0.000000
N40   N     N_3   0.553223 0.164203 0.398872 0.000000
C119  C     C_3   0.537989 0.138516 0.433836 0.000000
C120  C     C_R   0.517417 0.101663 0.414995 0.000000
N41   N     N_R   0.516522 0.082645 0.369565 0.000000
C121  C     C_R   0.495209 0.049613 0.370110 0.000000
C122  C     C_R   0.484848 0.019200 0.334004 0.000000
C123  C     C_R   0.460244 0.995632 0.339045 0.000000
C124  C     C_R   0.447308 0.000287 0.380444 0.000000
C125  C     C_R   0.459259 0.026864 0.417357 0.000000
C126  C     C_R   0.483702 0.050113 0.412215 0.000000
N42   N     N_R   0.497747 0.081052 0.443019 0.000000
H131  H     H_    0.556815 0.242590 0.371084 0.000000
H132  H     H_    0.524735 0.226138 0.393303 0.000000
H133  H     H_    0.552302 0.242393 0.432003 0.000000
H134  H     H_    0.572699 0.163053 0.410707 0.000000
H135  H     H_    0.551634 0.112612 0.453477 0.000000
H136  H     H_    0.527857 0.170782 0.454587 0.000000
H137  H     H_    0.495677 0.013047 0.302707 0.000000
H138  H     H_    0.450677 0.974437 0.310590 0.000000
H139  H     H_    0.427842 0.982692 0.384084 0.000000
H140  H     H_    0.448733 0.031060 0.448463 0.000000
C127  C     C_3   0.848787 0.697901 0.228010 0.000000
N43   N     N_3   0.865819 0.693272 0.188303 0.000000
C128  C     C_3   0.886454 0.735151 0.190116 0.000000
C129  C     C_R   0.909508 0.716015 0.217484 0.000000
N44   N     N_R   0.918317 0.661823 0.217734 0.000000
C130  C     C_R   0.937468 0.663932 0.249556 0.000000
C131  C     C_R   0.952760 0.620668 0.263926 0.000000
C132  C     C_R   0.974150 0.632391 0.291847 0.000000
C133  C     C_R   0.980990 0.686805 0.301429 0.000000
C134  C     C_R   0.965600 0.729596 0.285483 0.000000
C135  C     C_R   0.942435 0.717207 0.262971 0.000000
N45   N     N_R   0.924603 0.751961 0.244288 0.000000
H141  H     H_    0.830889 0.672519 0.221589 0.000000
H142  H     H_    0.859247 0.681560 0.257939 0.000000
H143  H     H_    0.842354 0.741257 0.234123 0.000000
H144  H     H_    0.853851 0.701565 0.160350 0.000000
H145  H     H_    0.892910 0.742597 0.154746 0.000000
H146  H     H_    0.878927 0.774893 0.204838 0.000000
H147  H     H_    0.948620 0.578837 0.253506 0.000000
H148  H     H_    0.986471 0.599239 0.303989 0.000000
H149  H     H_    0.998873 0.695699 0.320456 0.000000
H150  H     H_    0.972970 0.770723 0.287814 0.000000
C136  C     C_3   0.722764 0.738645 0.250022 0.000000
N46   N     N_3   0.734138 0.783781 0.225104 0.000000
C137  C     C_3   0.713250 0.813548 0.201782 0.000000
C138  C     C_R   0.725494 0.859162 0.176948 0.000000
N47   N     N_R   0.732136 0.908006 0.199948 0.000000
C139  C     C_R   0.752142 0.925357 0.174431 0.000000
C140  C     C_R   0.767524 0.968867 0.184370 0.000000
C141  C     C_R   0.792116 0.970266 0.164316 0.000000
C142  C     C_R   0.799808 0.929060 0.133043 0.000000
C143  C     C_R   0.782076 0.888767 0.119305 0.000000
C144  C     C_R   0.757988 0.888937 0.140063 0.000000
N48   N     N_R   0.740192 0.848637 0.137715 0.000000
H151  H     H_    0.732787 0.735842 0.283647 0.000000
H152  H     H_    0.701244 0.744988 0.254806 0.000000
H153  H     H_    0.726345 0.699388 0.231054 0.000000
H154  H     H_    0.746726 0.766434 0.200312 0.000000
H155  H     H_    0.702414 0.786069 0.177815 0.000000
H156  H     H_    0.699403 0.831381 0.226931 0.000000
H157  H     H_    0.761677 0.994556 0.212585 0.000000
H158  H     H_    0.806068 0.000815 0.176200 0.000000
H159  H     H_    0.819573 0.928443 0.119318 0.000000
H160  H     H_    0.787015 0.857980 0.093752 0.000000
C145  C     C_3   0.777134 0.949953 0.728721 0.000000
N49   N     N_3   0.800906 0.916004 0.726806 0.000000
C146  C     C_3   0.818474 0.938805 0.692716 0.000000
C147  C     C_R   0.842458 0.903490 0.684658 0.000000
N50   N     N_R   0.842596 0.853483 0.707316 0.000000
C148  C     C_R   0.837193 0.817577 0.672372 0.000000
C149  C     C_R   0.825374 0.766899 0.675693 0.000000
C150  C     C_R   0.814040 0.742607 0.637096 0.000000
C151  C     C_R   0.812745 0.771222 0.596904 0.000000
C152  C     C_R   0.823612 0.823304 0.594872 0.000000
C153  C     C_R   0.838082 0.843698 0.631602 0.000000
N51   N     N_R   0.845987 0.896560 0.638237 0.000000
H161  H     H_    0.765594 0.939574 0.759523 0.000000
H162  H     H_    0.782236 0.994485 0.730591 0.000000
H163  H     H_    0.764922 0.941435 0.697724 0.000000
H164  H     H_    0.794645 0.877098 0.714850 0.000000
H165  H     H_    0.807537 0.938553 0.659999 0.000000
H166  H     H_    0.823428 0.982196 0.699823 0.000000
H167  H     H_    0.822316 0.748665 0.707904 0.000000
H168  H     H_    0.804014 0.703399 0.639436 0.000000
H169  H     H_    0.801595 0.754463 0.568113 0.000000
H170  H     H_    0.818411 0.848884 0.566795 0.000000
C154  C     C_3   0.915848 0.746807 0.668724 0.000000
N52   N     N_3   0.900299 0.793284 0.686937 0.000000
C155  C     C_3   0.916381 0.835454 0.710446 0.000000
C156  C     C_R   0.915346 0.831595 0.760834 0.000000
N53   N     N_R   0.891562 0.825073 0.783159 0.000000
C157  C     C_R   0.899302 0.807531 0.823643 0.000000
C158  C     C_R   0.883015 0.784479 0.855033 0.000000
C159  C     C_R   0.894137 0.762194 0.892958 0.000000
C160  C     C_R   0.921035 0.762231 0.897480 0.000000
C161  C     C_R   0.937354 0.781071 0.863310 0.000000
C162  C     C_R   0.926120 0.807400 0.827334 0.000000
N54   N     N_R   0.937717 0.823997 0.788150 0.000000
H171  H     H_    0.918518 0.714835 0.694023 0.000000
H172  H     H_    0.904885 0.726935 0.639831 0.000000
H173  H     H_    0.935556 0.759792 0.657308 0.000000
H174  H     H_    0.885669 0.779189 0.708361 0.000000
H175  H     H_    0.937231 0.831812 0.700608 0.000000
H176  H     H_    0.907913 0.875918 0.701394 0.000000
H177  H     H_    0.862193 0.783964 0.850373 0.000000
H178  H     H_    0.882234 0.743687 0.918866 0.000000
H179  H     H_    0.928913 0.745468 0.928223 0.000000
H180  H     H_    0.958239 0.773075 0.863779 0.000000
C163  C     C_3   0.827054 0.823138 0.976503 0.000000
N55   N     N_3   0.838146 0.807612 0.932128 0.000000
C164  C     C_3   0.819703 0.822208 0.896378 0.000000
C165  C     C_R   0.826223 0.875221 0.873708 0.000000
N56   N     N_R   0.817193 0.925664 0.891630 0.000000
C166  C     C_R   0.819020 0.958015 0.855474 0.000000
C167  C     C_R   0.806524 0.007311 0.849169 0.000000
C168  C     C_R   0.811563 0.033647 0.809220 0.000000
C169  C     C_R   0.831783 0.014385 0.781040 0.000000
C170  C     C_R   0.842276 0.962004 0.786289 0.000000
C171  C     C_R   0.832089 0.931852 0.820657 0.000000
N57   N     N_R   0.835618 0.877810 0.828753 0.000000
H181  H     H_    0.842296 0.817805 0.003383 0.000000
H182  H     H_    0.820939 0.866719 0.976653 0.000000
H183  H     H_    0.809953 0.796986 0.984343 0.000000
H184  H     H_    0.839369 0.764548 0.931233 0.000000
H185  H     H_    0.819662 0.788543 0.870834 0.000000
H186  H     H_    0.799826 0.825047 0.910707 0.000000
H187  H     H_    0.792084 0.023501 0.872618 0.000000
H188  H     H_    0.801876 0.072491 0.802740 0.000000
H189  H     H_    0.838624 0.040221 0.754118 0.000000
H190  H     H_    0.857472 0.945428 0.764007 0.000000
C172  C     C_3   0.805025 0.443501 0.894340 0.000000
N58   N     N_3   0.821243 0.395357 0.884097 0.000000
C173  C     C_3   0.804457 0.347908 0.881302 0.000000
C174  C     C_R   0.820367 0.298506 0.868237 0.000000
N59   N     N_R   0.834491 0.294656 0.827773 0.000000
C175  C     C_R   0.839731 0.240810 0.824556 0.000000
C176  C     C_R   0.854753 0.215667 0.792166 0.000000
C177  C     C_R   0.859914 0.160546 0.794891 0.000000
C178  C     C_R   0.848074 0.132032 0.828821 0.000000
C179  C     C_R   0.832037 0.158146 0.861062 0.000000
C180  C     C_R   0.830304 0.213951 0.860675 0.000000
N60   N     N_R   0.819104 0.249272 0.891303 0.000000
H191  H     H_    0.817379 0.481105 0.894545 0.000000
H192  H     H_    0.789022 0.447338 0.868591 0.000000
H193  H     H_    0.796893 0.439310 0.928792 0.000000
H194  H     H_    0.832018 0.388438 0.913615 0.000000
H195  H     H_    0.796049 0.342565 0.915368 0.000000
H196  H     H_    0.788705 0.353748 0.855380 0.000000
H197  H     H_    0.861370 0.238511 0.764679 0.000000
H198  H     H_    0.871867 0.139138 0.769386 0.000000
H199  H     H_    0.852157 0.089047 0.830122 0.000000
H200  H     H_    0.820306 0.135439 0.883844 0.000000
C181  C     C_3   0.951289 0.870354 0.940456 0.000000
N61   N     N_3   0.964108 0.866258 0.896429 0.000000
C182  C     C_3   0.991980 0.854316 0.900232 0.000000
C183  C     C_R   0.005141 0.888342 0.867129 0.000000
N62   N     N_R   0.002868 0.880640 0.820183 0.000000
C184  C     C_R   0.020797 0.917885 0.805433 0.000000
C185  C     C_R   0.031894 0.922001 0.762713 0.000000
C186  C     C_R   0.050849 0.961911 0.755953 0.000000
C187  C     C_R   0.059056 0.996350 0.791849 0.000000
C188  C     C_R   0.048738 0.990437 0.835116 0.000000
C189  C     C_R   0.030490 0.949283 0.841212 0.000000
N63   N     N_R   0.021354 0.930936 0.881201 0.000000
H201  H     H_    0.941211 0.832593 0.950056 0.000000
H202  H     H_    0.964976 0.880522 0.967269 0.000000
H203  H     H_    0.936603 0.902525 0.938269 0.000000
H204  H     H_    0.961513 0.902953 0.879290 0.000000
H205  H     H_    0.000356 0.864884 0.934349 0.000000
H206  H     H_    0.996137 0.810333 0.891515 0.000000
H207  H     H_    0.027998 0.892845 0.735720 0.000000
H208  H     H_    0.059919 0.965113 0.722657 0.000000
H209  H     H_    0.074485 0.026211 0.786398 0.000000
H210  H     H_    0.056382 0.014790 0.863551 0.000000
C190  C     C_3   0.401130 0.385633 0.412113 0.000000
N64   N     N_3   0.375668 0.407744 0.425416 0.000000
C191  C     C_3   0.375284 0.422442 0.473759 0.000000
C192  C     C_R   0.348219 0.423992 0.490965 0.000000
N65   N     N_R   0.327254 0.447964 0.467833 0.000000
C193  C     C_R   0.307384 0.441162 0.497573 0.000000
C194  C     C_R   0.281136 0.452798 0.490660 0.000000
C195  C     C_R   0.263934 0.443649 0.526409 0.000000
C196  C     C_R   0.273386 0.424987 0.568031 0.000000
C197  C     C_R   0.299841 0.411638 0.573523 0.000000
C198  C     C_R   0.316183 0.416558 0.536507 0.000000
N66   N     N_R   0.341844 0.401405 0.532615 0.000000
H211  H     H_    0.398465 0.343610 0.397166 0.000000
H212  H     H_    0.409080 0.409927 0.384753 0.000000
H213  H     H_    0.415405 0.388326 0.440774 0.000000
H214  H     H_    0.361364 0.378592 0.417570 0.000000
H215  H     H_    0.385258 0.393699 0.494259 0.000000
H216  H     H_    0.385795 0.460812 0.481163 0.000000
H217  H     H_    0.274243 0.469624 0.458838 0.000000
H218  H     H_    0.243166 0.453045 0.522508 0.000000
H219  H     H_    0.259855 0.419784 0.596141 0.000000
H220  H     H_    0.306958 0.395875 0.605401 0.000000
C199  C     C_3   0.978611 0.087612 0.457948 0.000000
N67   N     N_3   0.993735 0.132903 0.477515 0.000000
C200  C     C_3   0.982384 0.183728 0.461398 0.000000
C201  C     C_R   0.998980 0.228134 0.477076 0.000000
N68   N     N_R   0.999814 0.246333 0.521906 0.000000
C202  C     C_R   0.019884 0.283279 0.521033 0.000000
C203  C     C_R   0.030294 0.315165 0.556425 0.000000
C204  C     C_R   0.051102 0.350061 0.547250 0.000000
C205  C     C_R   0.061222 0.352971 0.503322 0.000000
C206  C     C_R   0.050732 0.320704 0.468014 0.000000
C207  C     C_R   0.030128 0.285863 0.477737 0.000000
N69   N     N_R   0.017207 0.250793 0.448693 0.000000
H221  H     H_    0.969147 0.067750 0.485699 0.000000
H222  H     H_    0.963499 0.102208 0.433760 0.000000
H223  H     H_    0.991318 0.055459 0.443227 0.000000
H224  H     H_    0.013095 0.130022 0.465700 0.000000
H225  H     H_    0.982570 0.184877 0.424648 0.000000
H226  H     H_    0.962200 0.191889 0.472765 0.000000
H227  H     H_    0.022922 0.314124 0.590537 0.000000
H228  H     H_    0.059473 0.375520 0.574626 0.000000
H229  H     H_    0.077345 0.380779 0.496622 0.000000
H230  H     H_    0.058231 0.323890 0.433616 0.000000
C208  C     C_3   0.061895 0.251383 0.720231 0.000000
N70   N     N_3   0.035805 0.276821 0.719335 0.000000
C209  C     C_3   0.021584 0.252927 0.680301 0.000000
C210  C     C_R   0.995304 0.279929 0.673193 0.000000
N71   N     N_R   0.985603 0.323644 0.700314 0.000000
C211  C     C_R   0.972918 0.354188 0.668948 0.000000
C212  C     C_R   0.958867 0.402378 0.676063 0.000000
C213  C     C_R   0.945580 0.423739 0.638780 0.000000
C214  C     C_R   0.946978 0.397992 0.595739 0.000000
C215  C     C_R   0.960711 0.348940 0.589541 0.000000
C216  C     C_R   0.973166 0.327881 0.627069 0.000000
N72   N     N_R   0.984765 0.278159 0.629645 0.000000
H231  H     H_    0.071613 0.261496 0.753481 0.000000
H232  H     H_    0.060329 0.205801 0.716093 0.000000
H233  H     H_    0.074115 0.267547 0.692155 0.000000
H234  H     H_    0.038882 0.318472 0.713222 0.000000
H235  H     H_    0.033631 0.260154 0.649710 0.000000
H236  H     H_    0.019109 0.207788 0.682892 0.000000
H237  H     H_    0.957480 0.421998 0.709667 0.000000
H238  H     H_    0.933574 0.460390 0.642830 0.000000
H239  H     H_    0.936673 0.415770 0.567208 0.000000
H240  H     H_    0.961034 0.327297 0.556645 0.000000
C217  C     C_3   0.496955 0.174903 0.695661 0.000000
N73   N     N_3   0.505223 0.176793 0.648043 0.000000
C218  C     C_3   0.483144 0.197465 0.621520 0.000000
C219  C     C_R   0.490718 0.204677 0.572518 0.000000
N74   N     N_R   0.503016 0.254365 0.566606 0.000000
C220  C     C_R   0.526854 0.238217 0.550663 0.000000
C221  C     C_R   0.549652 0.268951 0.550280 0.000000
C222  C     C_R   0.573176 0.241313 0.541680 0.000000
C223  C     C_R   0.573548 0.184576 0.533425 0.000000
C224  C     C_R   0.550401 0.154518 0.534061 0.000000
C225  C     C_R   0.527092 0.182547 0.541587 0.000000
N75   N     N_R   0.503093 0.160739 0.549370 0.000000
H241  H     H_    0.513898 0.161621 0.716922 0.000000
H242  H     H_    0.490196 0.216312 0.708154 0.000000
H243  H     H_    0.480706 0.144718 0.699085 0.000000
H244  H     H_    0.508365 0.135882 0.637570 0.000000
H245  H     H_    0.466813 0.169565 0.625648 0.000000
H246  H     H_    0.477639 0.238961 0.635461 0.000000
H247  H     H_    0.549607 0.312444 0.559505 0.000000
H248  H     H_    0.591606 0.263406 0.543513 0.000000
H249  H     H_    0.592158 0.163485 0.527623 0.000000
H250  H     H_    0.550917 0.110147 0.529104 0.000000
C226  C     C_3   0.426442 0.259707 0.690577 0.000000
N76   N     N_3   0.411246 0.297077 0.662101 0.000000
C227  C     C_3   0.426566 0.344411 0.647863 0.000000
C228  C     C_R   0.426423 0.347762 0.597222 0.000000
N77   N     N_R   0.449708 0.341343 0.572457 0.000000
C229  C     C_R   0.440751 0.329169 0.530737 0.000000
C230  C     C_R   0.455540 0.309077 0.495538 0.000000
C231  C     C_R   0.442696 0.288516 0.457443 0.000000
C232  C     C_R   0.415846 0.280356 0.458729 0.000000
C233  C     C_R   0.401266 0.301475 0.495161 0.000000
C234  C     C_R   0.414090 0.328345 0.529895 0.000000
N78   N     N_R   0.403551 0.342843 0.570842 0.000000
H251  H     H_    0.412621 0.235200 0.711121 0.000000
H252  H     H_    0.437720 0.229926 0.669519 0.000000
H253  H     H_    0.440619 0.281548 0.713205 0.000000
H254  H     H_    0.394579 0.310537 0.680060 0.000000
H255  H     H_    0.418201 0.383087 0.662290 0.000000
H256  H     H_    0.447093 0.339146 0.658925 0.000000
H257  H     H_    0.476374 0.306482 0.499236 0.000000
H258  H     H_    0.453579 0.275648 0.427636 0.000000
H259  H     H_    0.406507 0.259586 0.429919 0.000000
H260  H     H_    0.380518 0.296096 0.499328 0.000000
C235  C     C_3   0.511576 0.348495 0.380892 0.000000
N79   N     N_3   0.499839 0.331961 0.423653 0.000000
C236  C     C_3   0.519067 0.338273 0.460340 0.000000
C237  C     C_R   0.515300 0.389804 0.489996 0.000000
N80   N     N_R   0.529250 0.436526 0.478901 0.000000
C238  C     C_R   0.537981 0.455553 0.519955 0.000000
C239  C     C_R   0.559986 0.487907 0.527033 0.000000
C240  C     C_R   0.571677 0.489921 0.569707 0.000000
C241  C     C_R   0.561656 0.458646 0.604300 0.000000
C242  C     C_R   0.539930 0.425522 0.596485 0.000000
C243  C     C_R   0.527849 0.425117 0.554187 0.000000
N81   N     N_R   0.511472 0.385639 0.537018 0.000000
H261  H     H_    0.495755 0.355985 0.355461 0.000000
H262  H     H_    0.522675 0.386573 0.386696 0.000000
H263  H     H_    0.525106 0.316331 0.367081 0.000000
H264  H     H_    0.496144 0.289779 0.419902 0.000000
H265  H     H_    0.518121 0.301620 0.481530 0.000000
H266  H     H_    0.538991 0.337915 0.445756 0.000000
H267  H     H_    0.570139 0.505251 0.498642 0.000000
H268  H     H_    0.589668 0.513153 0.575219 0.000000
H269  H     H_    0.572023 0.456877 0.636640 0.000000
H270  H     H_    0.535684 0.395567 0.621189 0.000000
C244  C     C_3   0.235243 0.546142 0.332486 0.000000
N82   N     N_3   0.254874 0.508012 0.349770 0.000000
C245  C     C_3   0.260129 0.466698 0.313841 0.000000
C246  C     C_R   0.273130 0.417758 0.333481 0.000000
N83   N     N_R   0.292373 0.419972 0.368000 0.000000
C247  C     C_R   0.289003 0.369442 0.386257 0.000000
C248  C     C_R   0.302378 0.345006 0.420925 0.000000
C249  C     C_R   0.293411 0.295045 0.436208 0.000000
C250  C     C_R   0.270456 0.271671 0.419100 0.000000
C251  C     C_R   0.258081 0.295302 0.382709 0.000000
C252  C     C_R   0.269307 0.340874 0.364869 0.000000
N84   N     N_R   0.260378 0.367497 0.328981 0.000000
H271  H     H_    0.215548 0.526115 0.331638 0.000000
H272  H     H_    0.234404 0.583445 0.355429 0.000000
H273  H     H_    0.240699 0.558423 0.297481 0.000000
H274  H     H_    0.246322 0.487865 0.377173 0.000000
H275  H     H_    0.241241 0.452649 0.299153 0.000000
H276  H     H_    0.271398 0.483400 0.285399 0.000000
H277  H     H_    0.320589 0.360358 0.433469 0.000000
H278  H     H_    0.304785 0.273912 0.461267 0.000000
H279  H     H_    0.262675 0.234220 0.432935 0.000000
H280  H     H_    0.239272 0.280871 0.370334 0.000000
C253  C     C_3   0.915299 0.227898 0.760267 0.000000
N85   N     N_3   0.900705 0.272096 0.737436 0.000000
C254  C     C_3   0.915280 0.322106 0.727035 0.000000
C255  C     C_R   0.917811 0.349804 0.770247 0.000000
N86   N     N_R   0.895824 0.342009 0.796927 0.000000
C256  C     C_R   0.906355 0.318341 0.833560 0.000000
C257  C     C_R   0.892857 0.289163 0.864566 0.000000
C258  C     C_R   0.905770 0.248653 0.886894 0.000000
C259  C     C_R   0.932831 0.244275 0.884067 0.000000
C260  C     C_R   0.946704 0.278709 0.856464 0.000000
C261  C     C_R   0.933174 0.315666 0.830520 0.000000
N87   N     N_R   0.941527 0.339620 0.792021 0.000000
H281  H     H_    0.910934 0.187358 0.743902 0.000000
H282  H     H_    0.936736 0.235873 0.762814 0.000000
H283  H     H_    0.907788 0.222126 0.794940 0.000000
H284  H     H_    0.889261 0.257284 0.710766 0.000000
H285  H     H_    0.935157 0.313067 0.715666 0.000000
H286  H     H_    0.904489 0.347993 0.702651 0.000000
H287  H     H_    0.872830 0.297599 0.872024 0.000000
H288  H     H_    0.894059 0.222000 0.907029 0.000000
H289  H     H_    0.943518 0.214149 0.903318 0.000000
H290  H     H_    0.967129 0.272085 0.853999 0.000000
C262  C     C_3   0.061253 0.411792 0.819233 0.000000
N88   N     N_3   0.042742 0.366248 0.814750 0.000000
C263  C     C_3   0.029956 0.356118 0.858426 0.000000
C264  C     C_R   0.015172 0.303937 0.852295 0.000000
N89   N     N_R   0.003535 0.292991 0.810396 0.000000
C265  C     C_R   0.008574 0.238489 0.803988 0.000000
C266  C     C_R   0.001533 0.203722 0.768383 0.000000
C267  C     C_R   0.016019 0.155223 0.762991 0.000000
C268  C     C_R   0.035771 0.142519 0.793865 0.000000
C269  C     C_R   0.038293 0.172885 0.834328 0.000000
C270  C     C_R   0.022748 0.219033 0.839636 0.000000
N90   N     N_R   0.024035 0.257089 0.873626 0.000000
H291  H     H_    0.068415 0.422339 0.784724 0.000000
H292  H     H_    0.051306 0.448630 0.834721 0.000000
H293  H     H_    0.078530 0.399118 0.839940 0.000000
H294  H     H_    0.053883 0.331108 0.806114 0.000000
H295  H     H_    0.045075 0.349150 0.884957 0.000000
H296  H     H_    0.016656 0.390772 0.868522 0.000000
H297  H     H_    0.986830 0.215375 0.743787 0.000000
H298  H     H_    0.013597 0.129025 0.732964 0.000000
H299  H     H_    0.048173 0.106938 0.787488 0.000000
H300  H     H_    0.053064 0.162081 0.859185 0.000000
C271  C     C_3   0.812643 0.372790 0.120814 0.000000
N91   N     N_3   0.797451 0.369476 0.078940 0.000000
C272  C     C_3   0.797091 0.313145 0.061254 0.000000
C273  C     C_R   0.777780 0.310082 0.022835 0.000000
N92   N     N_R   0.753752 0.336797 0.025644 0.000000
C274  C     C_R   0.742955 0.326301 0.984127 0.000000
C275  C     C_R   0.718574 0.342200 0.968228 0.000000
C276  C     C_R   0.711677 0.326227 0.923905 0.000000
C277  C     C_R   0.728883 0.294634 0.896824 0.000000
C278  C     C_R   0.753086 0.277940 0.913885 0.000000
C279  C     C_R   0.759508 0.293788 0.958208 0.000000
N93   N     N_R   0.781486 0.280719 0.982217 0.000000
H301  H     H_    0.812434 0.416070 0.133963 0.000000
H302  H     H_    0.803488 0.346449 0.146822 0.000000
H303  H     H_    0.833349 0.360852 0.113184 0.000000
H304  H     H_    0.807582 0.392458 0.055238 0.000000
H305  H     H_    0.816969 0.302280 0.048950 0.000000
H306  H     H_    0.791151 0.285276 0.088675 0.000000
H307  H     H_    0.705310 0.367288 0.988902 0.000000
H308  H     H_    0.692769 0.338622 0.910178 0.000000
H309  H     H_    0.723183 0.282409 0.862299 0.000000
H310  H     H_    0.766095 0.251962 0.893344 0.000000
C280  C     C_3   0.063402 0.034256 0.091322 0.000000
N94   N     N_3   0.052486 0.988935 0.063630 0.000000
C281  C     C_3   0.073893 0.951041 0.054959 0.000000
C282  C     C_R   0.066553 0.906876 0.021250 0.000000
N95   N     N_R   0.081126 0.858638 0.022399 0.000000
C283  C     C_R   0.084229 0.845809 0.977452 0.000000
C284  C     C_R   0.100794 0.806295 0.957980 0.000000
C285  C     C_R   0.105364 0.807422 0.911470 0.000000
C286  C     C_R   0.093904 0.848361 0.885795 0.000000
C287  C     C_R   0.076531 0.885819 0.905825 0.000000
C288  C     C_R   0.070797 0.882044 0.951415 0.000000
N96   N     N_R   0.057385 0.919180 0.977816 0.000000
H311  H     H_    0.047949 0.051839 0.114028 0.000000
H312  H     H_    0.079251 0.018877 0.113576 0.000000
H313  H     H_    0.071335 0.066484 0.068886 0.000000
H314  H     H_    0.047519 0.004021 0.031782 0.000000
H315  H     H_    0.091011 0.973822 0.041400 0.000000
H316  H     H_    0.079944 0.931918 0.086838 0.000000
H317  H     H_    0.110964 0.776556 0.978489 0.000000
H318  H     H_    0.118939 0.778119 0.895593 0.000000
H319  H     H_    0.099133 0.852127 0.850158 0.000000
H320  H     H_    0.070755 0.921136 0.887509 0.000000
C289  C     C_3   0.970952 0.128077 0.848669 0.000000
N97   N     N_3   0.991536 0.095897 0.870639 0.000000
C290  C     C_3   0.996616 0.116809 0.916943 0.000000
C291  C     C_R   0.024383 0.105012 0.932009 0.000000
N98   N     N_R   0.036942 0.053898 0.938966 0.000000
C292  C     C_R   0.061606 0.070315 0.950569 0.000000
C293  C     C_R   0.083335 0.037566 0.957996 0.000000
C294  C     C_R   0.106234 0.062309 0.974014 0.000000
C295  C     C_R   0.106936 0.118854 0.982747 0.000000
C296  C     C_R   0.085272 0.151507 0.973045 0.000000
C297  C     C_R   0.063052 0.126578 0.954809 0.000000
N99   N     N_R   0.039900 0.149973 0.942528 0.000000
H321  H     H_    0.975776 0.172344 0.849386 0.000000
H322  H     H_    0.968533 0.113189 0.812641 0.000000
H323  H     H_    0.952006 0.122778 0.866784 0.000000
H324  H     H_    0.008642 0.092231 0.851559 0.000000
H325  H     H_    0.994376 0.162158 0.917280 0.000000
H326  H     H_    0.981827 0.101255 0.940964 0.000000
H327  H     H_    0.083228 0.994186 0.950024 0.000000
H328  H     H_    0.123516 0.037277 0.980512 0.000000
H329  H     H_    0.124606 0.137674 0.996960 0.000000
H330  H     H_    0.086022 0.194464 0.981965 0.000000
C298  C     C_3   0.007969 0.397559 0.010508 0.000000
N100  N     N_3   0.023837 0.354162 0.990265 0.000000
C299  C     C_3   0.038602 0.331638 0.027379 0.000000
C300  C     C_R   0.062442 0.306292 0.008463 0.000000
N101  N     N_R   0.059400 0.277471 0.967995 0.000000
C301  C     C_R   0.081971 0.288160 0.946036 0.000000
C302  C     C_R   0.088242 0.272861 0.901756 0.000000
C303  C     C_R   0.111332 0.293047 0.883722 0.000000
C304  C     C_R   0.127112 0.328650 0.909784 0.000000
C305  C     C_R   0.120485 0.342985 0.954541 0.000000
C306  C     C_R   0.098267 0.320008 0.973216 0.000000
N102  N     N_R   0.087262 0.329541 0.015184 0.000000
H331  H     H_    0.997081 0.417062 0.982860 0.000000
H332  H     H_    0.994369 0.379681 0.035716 0.000000
H333  H     H_    0.020434 0.429555 0.027237 0.000000
H334  H     H_    0.036880 0.372333 0.967909 0.000000
H335  H     H_    0.044590 0.365629 0.051105 0.000000
H336  H     H_    0.026287 0.299592 0.043138 0.000000
H337  H     H_    0.075451 0.246681 0.881261 0.000000
H338  H     H_    0.116725 0.282313 0.848784 0.000000
H339  H     H_    0.144720 0.345727 0.894907 0.000000
H340  H     H_    0.132600 0.371929 0.973088 0.000000
C307  C     C_3   0.871038 0.064879 0.908597 0.000000
N103  N     N_3   0.843896 0.059073 0.920161 0.000000
C308  C     C_3   0.838222 0.093866 0.959577 0.000000
C309  C     C_R   0.809588 0.094360 0.961844 0.000000
N104  N     N_R   0.795107 0.142581 0.958121 0.000000
C310  C     C_R   0.770428 0.122040 0.951533 0.000000
C311  C     C_R   0.746860 0.149974 0.949263 0.000000
C312  C     C_R   0.723957 0.120189 0.941073 0.000000
C313  C     C_R   0.724816 0.063125 0.935136 0.000000
C314  C     C_R   0.748478 0.035096 0.939310 0.000000
C315  C     C_R   0.770822 0.065320 0.948897 0.000000
N105  N     N_R   0.795448 0.045833 0.955244 0.000000
H341  H     H_    0.874765 0.037064 0.878587 0.000000
H342  H     H_    0.875564 0.107511 0.899122 0.000000
H343  H     H_    0.882650 0.054013 0.938485 0.000000
H344  H     H_    0.841180 0.018801 0.929855 0.000000
H345  H     H_    0.846788 0.076659 0.990805 0.000000
H346  H     H_    0.845463 0.136196 0.954468 0.000000
H347  H     H_    0.745516 0.192794 0.957995 0.000000
H348  H     H_    0.705181 0.141576 0.939937 0.000000
H349  H     H_    0.706808 0.040330 0.928498 0.000000
H350  H     H_    0.749161 0.990841 0.935481 0.000000
C316  C     C_3   0.718535 0.017186 0.059133 0.000000
N106  N     N_3   0.726703 0.963257 0.041527 0.000000
C317  C     C_3   0.755220 0.960227 0.043322 0.000000
C318  C     C_R   0.764513 0.906572 0.022120 0.000000
N107  N     N_R   0.747336 0.861743 0.022717 0.000000
C319  C     C_R   0.744138 0.850117 0.977447 0.000000
C320  C     C_R   0.723412 0.822857 0.956297 0.000000
C321  C     C_R   0.721644 0.822380 0.909072 0.000000
C322  C     C_R   0.739077 0.852960 0.883759 0.000000
C323  C     C_R   0.758302 0.884289 0.905604 0.000000
C324  C     C_R   0.761142 0.880543 0.952385 0.000000
N108  N     N_R   0.776230 0.912854 0.980107 0.000000
H351  H     H_    0.697116 0.022429 0.052645 0.000000
H352  H     H_    0.722607 0.020023 0.096378 0.000000
H353  H     H_    0.729132 0.050209 0.041223 0.000000
H354  H     H_    0.721441 0.961916 0.006895 0.000000
H355  H     H_    0.762300 0.992488 0.020879 0.000000
H356  H     H_    0.762461 0.969890 0.078049 0.000000
H357  H     H_    0.707000 0.808004 0.975163 0.000000
H358  H     H_    0.705363 0.801408 0.892072 0.000000
H359  H     H_    0.736500 0.855346 0.847114 0.000000
H360  H     H_    0.769537 0.912986 0.886228 0.000000
C325  C     C_3   0.839947 0.050720 0.248949 0.000000
N109  N     N_3   0.839862 0.088239 0.288515 0.000000
C326  C     C_3   0.815981 0.083659 0.316010 0.000000
C327  C     C_R   0.824903 0.088515 0.362796 0.000000
N110  N     N_R   0.838725 0.043315 0.377308 0.000000
C328  C     C_R   0.861012 0.067278 0.392994 0.000000
C329  C     C_R   0.882970 0.041797 0.407169 0.000000
C330  C     C_R   0.905656 0.073205 0.411180 0.000000
C331  C     C_R   0.904501 0.130338 0.409158 0.000000
C332  C     C_R   0.880883 0.155937 0.400112 0.000000
C333  C     C_R   0.859727 0.122906 0.391424 0.000000
N111  N     N_R   0.836525 0.138638 0.375095 0.000000
H361  H     H_    0.859852 0.050403 0.233729 0.000000
H362  H     H_    0.834924 0.008188 0.258680 0.000000
H363  H     H_    0.826885 0.066680 0.222318 0.000000
H364  H     H_    0.840815 0.128194 0.276692 0.000000
H365  H     H_    0.803151 0.119533 0.311827 0.000000
H366  H     H_    0.806065 0.043547 0.310014 0.000000
H367  H     H_    0.882002 0.998013 0.411311 0.000000
H368  H     H_    0.924325 0.053670 0.418091 0.000000
H369  H     H_    0.922097 0.154514 0.415091 0.000000
H370  H     H_    0.879398 0.199669 0.396516 0.000000
C334  C     C_3   0.807539 0.384125 0.315145 0.000000
N112  N     N_3   0.801341 0.328772 0.329892 0.000000
C335  C     C_3   0.782490 0.303339 0.298039 0.000000
C336  C     C_R   0.776000 0.246878 0.312880 0.000000
N113  N     N_R   0.789139 0.223678 0.349211 0.000000
C337  C     C_R   0.769996 0.192010 0.366990 0.000000
C338  C     C_R   0.771954 0.157371 0.402696 0.000000
C339  C     C_R   0.749916 0.127406 0.414936 0.000000
C340  C     C_R   0.726320 0.132818 0.391074 0.000000
C341  C     C_R   0.724817 0.167345 0.354228 0.000000
C342  C     C_R   0.747193 0.195943 0.342941 0.000000
N114  N     N_R   0.751069 0.225356 0.305420 0.000000
H371  H     H_    0.826471 0.397467 0.331058 0.000000
H372  H     H_    0.809597 0.384708 0.277365 0.000000
H373  H     H_    0.791780 0.413136 0.326741 0.000000
H374  H     H_    0.792130 0.333357 0.361714 0.000000
H375  H     H_    0.764333 0.327496 0.299215 0.000000
H376  H     H_    0.789529 0.302621 0.262494 0.000000
H377  H     H_    0.790285 0.154439 0.420116 0.000000
H378  H     H_    0.751019 0.099536 0.443154 0.000000
H379  H     H_    0.709238 0.109161 0.400748 0.000000
H380  H     H_    0.706815 0.170655 0.334515 0.000000
C343  C     C_3   0.939111 0.808484 0.430549 0.000000
N115  N     N_3   0.950931 0.852357 0.404760 0.000000
C344  C     C_3   0.963012 0.827170 0.364495 0.000000
C345  C     C_R   0.971065 0.868581 0.330107 0.000000
N116  N     N_R   0.958851 0.867238 0.287170 0.000000
C346  C     C_R   0.973513 0.903734 0.265334 0.000000
C347  C     C_R   0.974206 0.911647 0.219870 0.000000
C348  C     C_R   0.986783 0.957656 0.205675 0.000000
C349  C     C_R   0.999881 0.992600 0.236462 0.000000
C350  C     C_R   0.004589 0.974941 0.279749 0.000000
C351  C     C_R   0.990782 0.930279 0.293791 0.000000
N117  N     N_R   0.990432 0.910295 0.336106 0.000000
H381  H     H_    0.930140 0.826479 0.462119 0.000000
H382  H     H_    0.923700 0.787572 0.409592 0.000000
H383  H     H_    0.954282 0.777661 0.439768 0.000000
H384  H     H_    0.965706 0.869774 0.424823 0.000000
H385  H     H_    0.979990 0.800871 0.373646 0.000000
H386  H     H_    0.947861 0.800678 0.347773 0.000000
H387  H     H_    0.967199 0.881435 0.195583 0.000000
H388  H     H_    0.987892 0.962929 0.169801 0.000000
H389  H     H_    0.009523 0.029659 0.225432 0.000000
H390  H     H_    0.018641 0.995684 0.301268 0.000000
C352  C     C_3   0.032732 0.805170 0.283184 0.000000
N118  N     N_3   0.043017 0.850300 0.311803 0.000000
C353  C     C_3   0.055268 0.889807 0.282041 0.000000
C354  C     C_R   0.066031 0.936769 0.310496 0.000000
N119  N     N_R   0.056315 0.941903 0.354527 0.000000
C355  C     C_R   0.078574 0.945794 0.379710 0.000000
C356  C     C_R   0.081010 0.943778 0.426329 0.000000
C357  C     C_R   0.105983 0.948994 0.445292 0.000000
C358  C     C_R   0.127781 0.956758 0.417538 0.000000
C359  C     C_R   0.124970 0.957789 0.370444 0.000000
C360  C     C_R   0.100044 0.951467 0.352138 0.000000
N120  N     N_R   0.092810 0.949075 0.307523 0.000000
H391  H     H_    0.024318 0.773550 0.305491 0.000000
H392  H     H_    0.017035 0.820592 0.260227 0.000000
H393  H     H_    0.048829 0.786025 0.262433 0.000000
H394  H     H_    0.057932 0.833625 0.332082 0.000000
H395  H     H_    0.071691 0.868378 0.264345 0.000000
H396  H     H_    0.040652 0.903752 0.257004 0.000000
H397  H     H_    0.064295 0.935549 0.447415 0.000000
H398  H     H_    0.108533 0.947040 0.481986 0.000000
H399  H     H_    0.147169 0.961434 0.432779 0.000000
H400  H     H_    0.142017 0.964061 0.349462 0.000000
C361  C     C_3   0.067022 0.073230 0.320996 0.000000
N121  N     N_3   0.068284 0.058133 0.368669 0.000000
C362  C     C_3   0.053380 0.098478 0.395067 0.000000
C363  C     C_R   0.025852 0.097530 0.379489 0.000000
N122  N     N_R   0.012772 0.146215 0.368796 0.000000
C364  C     C_R   0.989826 0.126490 0.352557 0.000000
C365  C     C_R   0.967509 0.156534 0.344983 0.000000
C366  C     C_R   0.945101 0.129405 0.330938 0.000000
C367  C     C_R   0.945009 0.073017 0.327400 0.000000
C368  C     C_R   0.966687 0.043008 0.341285 0.000000
C369  C     C_R   0.989224 0.070170 0.353084 0.000000
N123  N     N_R   0.011718 0.048735 0.370745 0.000000
H401  H     H_    0.081170 0.048633 0.300409 0.000000
H402  H     H_    0.047383 0.066079 0.305428 0.000000
H403  H     H_    0.072455 0.116722 0.319509 0.000000
H404  H     H_    0.087822 0.062130 0.379651 0.000000
H405  H     H_    0.055208 0.091076 0.431794 0.000000
H406  H     H_    0.061138 0.139576 0.389357 0.000000
H407  H     H_    0.967138 0.200035 0.351798 0.000000
H408  H     H_    0.927152 0.151735 0.324056 0.000000
H409  H     H_    0.926810 0.054013 0.317431 0.000000
H410  H     H_    0.966081 0.999955 0.343942 0.000000
C370  C     C_3   0.137773 0.751742 0.204090 0.000000
N124  N     N_3   0.147648 0.775961 0.162638 0.000000
C371  C     C_3   0.143458 0.738804 0.123196 0.000000
C372  C     C_R   0.153139 0.765164 0.082010 0.000000
N125  N     N_R   0.136316 0.797428 0.057910 0.000000
C373  C     C_R   0.152264 0.819768 0.026501 0.000000
C374  C     C_R   0.147059 0.863366 0.998319 0.000000
C375  C     C_R   0.166265 0.879440 0.968166 0.000000
C376  C     C_R   0.190598 0.853468 0.967743 0.000000
C377  C     C_R   0.196372 0.813634 0.999224 0.000000
C378  C     C_R   0.177140 0.798600 0.029985 0.000000
N126  N     N_R   0.178981 0.765815 0.067007 0.000000
H411  H     H_    0.121904 0.778224 0.218758 0.000000
H412  H     H_    0.130381 0.709310 0.196922 0.000000
H413  H     H_    0.153923 0.750319 0.229401 0.000000
H414  H     H_    0.167699 0.784857 0.166364 0.000000
H415  H     H_    0.152277 0.697762 0.125617 0.000000
H416  H     H_    0.122246 0.732690 0.118250 0.000000
H417  H     H_    0.129045 0.886771 0.000428 0.000000
H418  H     H_    0.162390 0.912977 0.945350 0.000000
H419  H     H_    0.205673 0.866341 0.944199 0.000000
H420  H     H_    0.215982 0.797633 0.999710 0.000000
C379  C     C_3   0.228386 0.687678 0.292793 0.000000
N127  N     N_3   0.239503 0.731279 0.265541 0.000000
C380  C     C_3   0.222057 0.739949 0.227068 0.000000
C381  C     C_R   0.228297 0.788739 0.198850 0.000000
N128  N     N_R   0.232798 0.841788 0.216684 0.000000
C382  C     C_R   0.230057 0.872557 0.179778 0.000000
C383  C     C_R   0.230408 0.928641 0.178765 0.000000
C384  C     C_R   0.227204 0.953243 0.136973 0.000000
C385  C     C_R   0.224234 0.920757 0.097630 0.000000
C386  C     C_R   0.222194 0.864060 0.100520 0.000000
C387  C     C_R   0.225153 0.840920 0.142058 0.000000
N129  N     N_R   0.223628 0.787088 0.151905 0.000000
H421  H     H_    0.208172 0.698037 0.304350 0.000000
H422  H     H_    0.227875 0.648632 0.272014 0.000000
H423  H     H_    0.241004 0.681794 0.323376 0.000000
H424  H     H_    0.256030 0.712175 0.251271 0.000000
H425  H     H_    0.224532 0.704096 0.203991 0.000000
H426  H     H_    0.201591 0.744135 0.239254 0.000000
H427  H     H_    0.233089 0.952380 0.209881 0.000000
H428  H     H_    0.227690 0.997756 0.134747 0.000000
H429  H     H_    0.222811 0.939883 0.064689 0.000000
H430  H     H_    0.220257 0.838273 0.070874 0.000000
C388  C     C_3   0.481702 0.281715 0.855918 0.000000
N130  N     N_3   0.498516 0.322037 0.879475 0.000000
C389  C     C_3   0.485043 0.375229 0.880607 0.000000
C390  C     C_R   0.504423 0.419841 0.872480 0.000000
N131  N     N_R   0.520641 0.443175 0.906239 0.000000
C391  C     C_R   0.535097 0.478560 0.881287 0.000000
C392  C     C_R   0.553437 0.517249 0.895321 0.000000
C393  C     C_R   0.567278 0.544533 0.862033 0.000000
C394  C     C_R   0.562383 0.534505 0.815981 0.000000
C395  C     C_R   0.542133 0.499753 0.803107 0.000000
C396  C     C_R   0.527978 0.475655 0.836524 0.000000
N132  N     N_R   0.506800 0.443990 0.830022 0.000000
H431  H     H_    0.490533 0.239939 0.859024 0.000000
H432  H     H_    0.461820 0.281957 0.871790 0.000000
H433  H     H_    0.480177 0.291230 0.819027 0.000000
H434  H     H_    0.515775 0.325733 0.860412 0.000000
H435  H     H_    0.470421 0.375829 0.852631 0.000000
H436  H     H_    0.475083 0.382225 0.913984 0.000000
H437  H     H_    0.557873 0.525608 0.930733 0.000000
H438  H     H_    0.582553 0.572853 0.871766 0.000000
H439  H     H_    0.574120 0.554369 0.790357 0.000000
H440  H     H_    0.538513 0.487989 0.768155 0.000000
C397  C     C_3   0.444981 0.495696 0.604428 0.000000
N133  N     N_3   0.461166 0.447171 0.612996 0.000000
C398  C     C_3   0.469854 0.452485 0.660057 0.000000
C399  C     C_R   0.486224 0.404889 0.675117 0.000000
N134  N     N_R   0.494245 0.403998 0.719735 0.000000
C400  C     C_R   0.510206 0.359588 0.720855 0.000000
C401  C     C_R   0.525562 0.342401 0.756628 0.000000
C402  C     C_R   0.542523 0.298263 0.748843 0.000000
C403  C     C_R   0.544398 0.273594 0.705540 0.000000
C404  C     C_R   0.528843 0.291897 0.669976 0.000000
C405  C     C_R   0.511236 0.334100 0.678755 0.000000
N135  N     N_R   0.495701 0.360755 0.648626 0.000000
H441  H     H_    0.432414 0.487829 0.573944 0.000000
H442  H     H_    0.431817 0.505502 0.633670 0.000000
H443  H     H_    0.457888 0.531630 0.598562 0.000000
H444  H     H_    0.477868 0.449685 0.592398 0.000000
H445  H     H_    0.481502 0.490851 0.664159 0.000000
H446  H     H_    0.452539 0.455308 0.683015 0.000000
H447  H     H_    0.525166 0.362933 0.789555 0.000000
H448  H     H_    0.554914 0.283937 0.776331 0.000000
H449  H     H_    0.558270 0.240109 0.699400 0.000000
H450  H     H_    0.531202 0.274026 0.636468 0.000000
C406  C     C_3   0.507449 0.010536 0.123411 0.000000
N136  N     N_3   0.501701 0.054970 0.156313 0.000000
C407  C     C_3   0.490392 0.031199 0.196858 0.000000
C408  C     C_R   0.482398 0.076298 0.228417 0.000000
N137  N     N_R   0.499164 0.098221 0.262244 0.000000
C409  C     C_R   0.485721 0.142939 0.276060 0.000000
C410  C     C_R   0.495143 0.182638 0.305857 0.000000
C411  C     C_R   0.481305 0.231098 0.309492 0.000000
C412  C     C_R   0.458311 0.237416 0.284911 0.000000
C413  C     C_R   0.447813 0.194799 0.257754 0.000000
C414  C     C_R   0.462470 0.147790 0.252719 0.000000
N138  N     N_R   0.458882 0.105061 0.222511 0.000000
H451  H     H_    0.516981 0.028397 0.093106 0.000000
H452  H     H_    0.520946 0.979932 0.138680 0.000000
H453  H     H_    0.489033 0.989248 0.112817 0.000000
H454  H     H_    0.487465 0.080532 0.141877 0.000000
H455  H     H_    0.472630 0.007019 0.187484 0.000000
H456  H     H_    0.505292 0.005760 0.214341 0.000000
H457  H     H_    0.513751 0.177984 0.323191 0.000000
H458  H     H_    0.488680 0.264667 0.330653 0.000000
H459  H     H_    0.449448 0.277177 0.286446 0.000000
H460  H     H_    0.429687 0.199376 0.238735 0.000000
C415  C     C_3   0.399191 0.173009 0.329186 0.000000
N139  N     N_3   0.411627 0.126734 0.304921 0.000000
C416  C     C_3   0.392411 0.083247 0.299921 0.000000
C417  C     C_R   0.376691 0.089964 0.257415 0.000000
N140  N     N_R   0.388098 0.089153 0.213984 0.000000
C418  C     C_R   0.366286 0.086718 0.187433 0.000000
C419  C     C_R   0.364874 0.072276 0.142262 0.000000
C420  C     C_R   0.340894 0.077127 0.119947 0.000000
C421  C     C_R   0.318734 0.094446 0.144121 0.000000
C422  C     C_R   0.319759 0.098546 0.191382 0.000000
C423  C     C_R   0.343802 0.091479 0.212323 0.000000
N141  N     N_R   0.349103 0.092346 0.257420 0.000000
H461  H     H_    0.412829 0.208417 0.330496 0.000000
H462  H     H_    0.381135 0.185512 0.310748 0.000000
H463  H     H_    0.394813 0.161924 0.364882 0.000000
H464  H     H_    0.426487 0.111566 0.325882 0.000000
H465  H     H_    0.402828 0.042814 0.297915 0.000000
H466  H     H_    0.379452 0.084689 0.330082 0.000000
H467  H     H_    0.381631 0.053639 0.126015 0.000000
H468  H     H_    0.339343 0.066865 0.083778 0.000000
H469  H     H_    0.300076 0.099303 0.126541 0.000000
H470  H     H_    0.302064 0.106350 0.211044 0.000000
C424  C     C_3   0.353731 0.927724 0.176853 0.000000
N142  N     N_3   0.377647 0.928489 0.149928 0.000000
C425  C     C_3   0.399787 0.947732 0.177980 0.000000
C426  C     C_R   0.420703 0.962462 0.145608 0.000000
N143  N     N_R   0.425679 0.926608 0.108513 0.000000
C427  C     C_R   0.433991 0.962466 0.077110 0.000000
C428  C     C_R   0.434452 0.954198 0.030550 0.000000
C429  C     C_R   0.441896 0.997886 0.003812 0.000000
C430  C     C_R   0.448879 0.048523 0.023983 0.000000
C431  C     C_R   0.446507 0.057343 0.070805 0.000000
C432  C     C_R   0.437208 0.014574 0.096108 0.000000
N144  N     N_R   0.428496 0.017185 0.139662 0.000000
H471  H     H_    0.337247 0.914107 0.154341 0.000000
H472  H     H_    0.355511 0.896980 0.203648 0.000000
H473  H     H_    0.349762 0.969322 0.191844 0.000000
H474  H     H_    0.374634 0.956440 0.123842 0.000000
H475  H     H_    0.394202 0.984104 0.199514 0.000000
H476  H     H_    0.406717 0.914196 0.199872 0.000000
H477  H     H_    0.429624 0.914644 0.015161 0.000000
H478  H     H_    0.443047 0.991985 0.967029 0.000000
H479  H     H_    0.455314 0.081838 0.002805 0.000000
H480  H     H_    0.450601 0.097397 0.086329 0.000000
C433  C     C_3   0.486621 0.311461 0.159351 0.000000
N145  N     N_3   0.470845 0.273914 0.131024 0.000000
C434  C     C_3   0.456531 0.237626 0.160489 0.000000
C435  C     C_R   0.431794 0.221729 0.136810 0.000000
N146  N     N_R   0.418804 0.259697 0.109592 0.000000
C436  C     C_R   0.400671 0.227324 0.088606 0.000000
C437  C     C_R   0.380330 0.243382 0.060919 0.000000
C438  C     C_R   0.366718 0.203305 0.036189 0.000000
C439  C     C_R   0.374156 0.148520 0.039245 0.000000
C440  C     C_R   0.392832 0.133074 0.071120 0.000000
C441  C     C_R   0.403969 0.173103 0.099540 0.000000
N147  N     N_R   0.422015 0.167629 0.133837 0.000000
H481  H     H_    0.497269 0.339781 0.136918 0.000000
H482  H     H_    0.474039 0.337304 0.182335 0.000000
H483  H     H_    0.500782 0.287629 0.180024 0.000000
H484  H     H_    0.483555 0.248807 0.111656 0.000000
H485  H     H_    0.468523 0.200336 0.167181 0.000000
H486  H     H_    0.451899 0.260700 0.192319 0.000000
H487  H     H_    0.374289 0.285560 0.059739 0.000000
H488  H     H_    0.351052 0.214906 0.013083 0.000000
H489  H     H_    0.364836 0.117358 0.017449 0.000000
H490  H     H_    0.398921 0.090791 0.071078 0.000000
C442  C     C_3   0.783375 0.140962 0.226213 0.000000
N148  N     N_3   0.771401 0.087216 0.233193 0.000000
C443  C     C_3   0.755714 0.086602 0.274681 0.000000
C444  C     C_R   0.727282 0.086007 0.262675 0.000000
N149  N     N_R   0.715236 0.132804 0.245687 0.000000
C445  C     C_R   0.698832 0.110509 0.213519 0.000000
C446  C     C_R   0.687821 0.136827 0.176886 0.000000
C447  C     C_R   0.676144 0.105138 0.142299 0.000000
C448  C     C_R   0.676688 0.048056 0.143689 0.000000
C449  C     C_R   0.690226 0.022497 0.178313 0.000000
C450  C     C_R   0.700055 0.054277 0.213592 0.000000
N150  N     N_R   0.716546 0.036957 0.246174 0.000000
H491  H     H_    0.769687 0.175147 0.235084 0.000000
H492  H     H_    0.801816 0.146034 0.244815 0.000000
H493  H     H_    0.789130 0.143003 0.190040 0.000000
H494  H     H_    0.786645 0.059447 0.238159 0.000000
H495  H     H_    0.760410 0.049196 0.293529 0.000000
H496  H     H_    0.761249 0.121144 0.295957 0.000000
H497  H     H_    0.689663 0.180907 0.173736 0.000000
H498  H     H_    0.667762 0.124742 0.112802 0.000000
H499  H     H_    0.668228 0.023599 0.115849 0.000000
H500  H     H_    0.694694 0.979356 0.176244 0.000000
C451  C     C_3   0.746001 0.421185 0.259070 0.000000
N151  N     N_3   0.749953 0.388107 0.217064 0.000000
C452  C     C_3   0.726809 0.354184 0.207579 0.000000
C453  C     C_R   0.734390 0.306231 0.178103 0.000000
N152  N     N_R   0.739473 0.309394 0.131526 0.000000
C454  C     C_R   0.742188 0.254714 0.119276 0.000000
C455  C     C_R   0.743389 0.228635 0.076368 0.000000
C456  C     C_R   0.745638 0.172034 0.072290 0.000000
C457  C     C_R   0.746118 0.140847 0.110416 0.000000
C458  C     C_R   0.742618 0.166140 0.152275 0.000000
C459  C     C_R   0.740191 0.222565 0.156450 0.000000
N153  N     N_R   0.734249 0.253126 0.194308 0.000000
H501  H     H_    0.764454 0.443644 0.267736 0.000000
H502  H     H_    0.730308 0.451776 0.254212 0.000000
H503  H     H_    0.739759 0.396046 0.287980 0.000000
H504  H     H_    0.766183 0.362216 0.221218 0.000000
H505  H     H_    0.718578 0.338806 0.239790 0.000000
H506  H     H_    0.711591 0.377600 0.189086 0.000000
H507  H     H_    0.741132 0.248583 0.045145 0.000000
H508  H     H_    0.747073 0.151894 0.039152 0.000000
H509  H     H_    0.749050 0.096732 0.107799 0.000000
H510  H     H_    0.741977 0.140380 0.180452 0.000000
C460  C     C_3   0.629053 0.196760 0.166948 0.000000
N154  N     N_3   0.647976 0.232952 0.190198 0.000000
C461  C     C_3   0.650050 0.215965 0.237340 0.000000
C462  C     C_R   0.662899 0.258878 0.267316 0.000000
N155  N     N_R   0.689249 0.259129 0.280024 0.000000
C463  C     C_R   0.689450 0.296868 0.315596 0.000000
C464  C     C_R   0.710257 0.316471 0.341840 0.000000
C465  C     C_R   0.705695 0.357069 0.375179 0.000000
C466  C     C_R   0.680732 0.379313 0.381228 0.000000
C467  C     C_R   0.660072 0.360084 0.354503 0.000000
C468  C     C_R   0.664789 0.317466 0.323272 0.000000
N156  N     N_R   0.647571 0.294277 0.293415 0.000000
H511  H     H_    0.635111 0.189650 0.130948 0.000000
H512  H     H_    0.627920 0.156441 0.183768 0.000000
H513  H     H_    0.609398 0.216980 0.167185 0.000000
H514  H     H_    0.638467 0.270979 0.191478 0.000000
H515  H     H_    0.629915 0.210197 0.249330 0.000000
H516  H     H_    0.660221 0.176273 0.241147 0.000000
H517  H     H_    0.729877 0.302643 0.337464 0.000000
H518  H     H_    0.721978 0.372702 0.395742 0.000000
H519  H     H_    0.677533 0.412625 0.406101 0.000000
H520  H     H_    0.641216 0.380272 0.356926 0.000000
C469  C     C_3   0.431567 0.787243 0.951046 0.000000
N157  N     N_3   0.408628 0.765968 0.974010 0.000000
C470  C     C_3   0.391226 0.811479 0.986866 0.000000
C471  C     C_R   0.376475 0.797351 0.027756 0.000000
N158  N     N_R   0.351349 0.772612 0.027114 0.000000
C472  C     C_R   0.346793 0.771536 0.072757 0.000000
C473  C     C_R   0.325968 0.748452 0.094596 0.000000
C474  C     C_R   0.324577 0.753938 0.141745 0.000000
C475  C     C_R   0.344190 0.780910 0.166430 0.000000
C476  C     C_R   0.365597 0.802146 0.144262 0.000000
C477  C     C_R   0.366849 0.795484 0.097736 0.000000
N159  N     N_R   0.386738 0.810547 0.070830 0.000000
H521  H     H_    0.444208 0.752146 0.939399 0.000000
H522  H     H_    0.425183 0.810326 0.920995 0.000000
H523  H     H_    0.442897 0.814735 0.974669 0.000000
H524  H     H_    0.415035 0.747489 0.003723 0.000000
H525  H     H_    0.402548 0.849485 0.994022 0.000000
H526  H     H_    0.376607 0.819422 0.960585 0.000000
H527  H     H_    0.311013 0.726675 0.075643 0.000000
H528  H     H_    0.308038 0.737004 0.159682 0.000000
H529  H     H_    0.343470 0.783199 0.203414 0.000000
H530  H     H_    0.380752 0.823121 0.163500 0.000000
C478  C     C_3   0.504968 0.943009 0.018315 0.000000
N160  N     N_3   0.484474 0.905474 0.033153 0.000000
C479  C     C_3   0.497088 0.857244 0.050990 0.000000
C480  C     C_R   0.480848 0.806765 0.043226 0.000000
N161  N     N_R   0.456237 0.800852 0.064399 0.000000
C481  C     C_R   0.455574 0.746053 0.068571 0.000000
C482  C     C_R   0.434842 0.714623 0.081440 0.000000
C483  C     C_R   0.439233 0.658702 0.083432 0.000000
C484  C     C_R   0.464574 0.637934 0.082048 0.000000
C485  C     C_R   0.484899 0.670695 0.067941 0.000000
C486  C     C_R   0.478286 0.721944 0.054413 0.000000
N162  N     N_R   0.493440 0.756649 0.031649 0.000000
H531  H     H_    0.496175 0.983668 0.010631 0.000000
H532  H     H_    0.519720 0.948939 0.045818 0.000000
H533  H     H_    0.514936 0.926456 0.987114 0.000000
H534  H     H_    0.473974 0.891732 0.004541 0.000000
H535  H     H_    0.515556 0.850367 0.032880 0.000000
H536  H     H_    0.501254 0.863762 0.087997 0.000000
H537  H     H_    0.415565 0.731596 0.087637 0.000000
H538  H     H_    0.423125 0.631188 0.088127 0.000000
H539  H     H_    0.467631 0.594955 0.087798 0.000000
H540  H     H_    0.504819 0.656370 0.064467 0.000000
C487  C     C_3   0.388461 0.639844 0.152121 0.000000
N163  N     N_3   0.391240 0.698035 0.164743 0.000000
C488  C     C_3   0.416657 0.706487 0.186615 0.000000
C489  C     C_R   0.421470 0.765408 0.199193 0.000000
N164  N     N_R   0.428000 0.804297 0.166646 0.000000
C490  C     C_R   0.444021 0.837293 0.190772 0.000000
C491  C     C_R   0.462521 0.870859 0.172608 0.000000
C492  C     C_R   0.478609 0.899089 0.202539 0.000000
C493  C     C_R   0.473219 0.899124 0.248847 0.000000
C494  C     C_R   0.456236 0.860483 0.266488 0.000000
C495  C     C_R   0.443734 0.825748 0.235882 0.000000
N165  N     N_R   0.429716 0.779421 0.243362 0.000000
H541  H     H_    0.373330 0.621459 0.173291 0.000000
H542  H     H_    0.382123 0.635490 0.115832 0.000000
H543  H     H_    0.406783 0.616618 0.158506 0.000000
H544  H     H_    0.377301 0.705696 0.190246 0.000000
H545  H     H_    0.417668 0.682523 0.217193 0.000000
H546  H     H_    0.433186 0.691470 0.165591 0.000000
H547  H     H_    0.465587 0.872464 0.136271 0.000000
H548  H     H_    0.495004 0.921698 0.189409 0.000000
H549  H     H_    0.483764 0.927120 0.271211 0.000000
H550  H     H_    0.453801 0.856497 0.302829 0.000000
C496  C     C_3   0.417539 0.515469 0.061356 0.000000
N166  N     N_3   0.429089 0.461370 0.049933 0.000000
C497  C     C_3   0.457534 0.460469 0.058979 0.000000
C498  C     C_R   0.468561 0.409104 0.040519 0.000000
N167  N     N_R   0.456362 0.360752 0.053142 0.000000
C499  C     C_R   0.470342 0.322899 0.028361 0.000000
C500  C     C_R   0.465604 0.267143 0.023337 0.000000
C501  C     C_R   0.482717 0.235804 0.996185 0.000000
C502  C     C_R   0.503992 0.260273 0.974679 0.000000
C503  C     C_R   0.508052 0.316813 0.978841 0.000000
C504  C     C_R   0.490604 0.347471 0.005012 0.000000
N168  N     N_R   0.490789 0.402902 0.012035 0.000000
H551  H     H_    0.410071 0.536585 0.031380 0.000000
H552  H     H_    0.399708 0.511040 0.082306 0.000000
H553  H     H_    0.431954 0.541108 0.080245 0.000000
H554  H     H_    0.425354 0.449985 0.015851 0.000000
H555  H     H_    0.468098 0.497814 0.048998 0.000000
H556  H     H_    0.460526 0.452393 0.094586 0.000000
H557  H     H_    0.449076 0.247983 0.039573 0.000000
H558  H     H_    0.479591 0.191746 0.991915 0.000000
H559  H     H_    0.517298 0.235032 0.954010 0.000000
H560  H     H_    0.524426 0.336239 0.961962 0.000000
C505  C     C_3   0.416457 0.332704 0.931698 0.000000
N169  N     N_3   0.395776 0.370609 0.947231 0.000000
C506  C     C_3   0.383370 0.346721 0.986412 0.000000
C507  C     C_R   0.376523 0.388406 0.023259 0.000000
N170  N     N_R   0.388364 0.381860 0.065996 0.000000
C508  C     C_R   0.373311 0.414585 0.092149 0.000000
C509  C     C_R   0.373351 0.417224 0.138360 0.000000
C510  C     C_R   0.362931 0.463263 0.158719 0.000000
C511  C     C_R   0.351105 0.502135 0.132032 0.000000
C512  C     C_R   0.344149 0.489480 0.086967 0.000000
C513  C     C_R   0.356051 0.444517 0.067117 0.000000
N171  N     N_R   0.355856 0.428390 0.022588 0.000000
H561  H     H_    0.423392 0.345043 0.897648 0.000000
H562  H     H_    0.433436 0.334653 0.955712 0.000000
H563  H     H_    0.408635 0.289931 0.928485 0.000000
H564  H     H_    0.381775 0.370349 0.921113 0.000000
H565  H     H_    0.365935 0.322124 0.976288 0.000000
H566  H     H_    0.397907 0.318272 0.001581 0.000000
H567  H     H_    0.380698 0.384316 0.157942 0.000000
H568  H     H_    0.364259 0.468833 0.195134 0.000000
H569  H     H_    0.345575 0.539934 0.148834 0.000000
H570  H     H_    0.331570 0.515236 0.067280 0.000000
C514  C     C_3   0.463209 0.562315 0.175333 0.000000
N172  N     N_3   0.458384 0.508024 0.155952 0.000000
C515  C     C_3   0.432436 0.489459 0.169743 0.000000
C516  C     C_R   0.433711 0.435528 0.191484 0.000000
N173  N     N_R   0.427501 0.385334 0.168572 0.000000
C517  C     C_R   0.420641 0.354490 0.204977 0.000000
C518  C     C_R   0.404736 0.308499 0.204907 0.000000
C519  C     C_R   0.397258 0.287301 0.246265 0.000000
C520  C     C_R   0.404115 0.313658 0.287253 0.000000
C521  C     C_R   0.418264 0.362105 0.286946 0.000000
C522  C     C_R   0.424966 0.382445 0.245538 0.000000
N174  N     N_R   0.432048 0.434432 0.238713 0.000000
H571  H     H_    0.461486 0.559930 0.212305 0.000000
H572  H     H_    0.483325 0.576118 0.166343 0.000000
H573  H     H_    0.448517 0.591847 0.162639 0.000000
H574  H     H_    0.472754 0.480535 0.167162 0.000000
H575  H     H_    0.423118 0.520257 0.193098 0.000000
H576  H     H_    0.419498 0.483112 0.140640 0.000000
H577  H     H_    0.395690 0.292331 0.174315 0.000000
H578  H     H_    0.385367 0.250434 0.246593 0.000000
H579  H     H_    0.397938 0.297044 0.319393 0.000000
H580  H     H_    0.423187 0.384625 0.317943 0.000000
C523  C     C_3   0.853090 0.375153 0.000251 0.000000
N175  N     N_3   0.876132 0.341863 0.009730 0.000000
C524  C     C_3   0.876618 0.293682 0.978745 0.000000
C525  C     C_R   0.868441 0.245244 0.003970 0.000000
N176  N     N_R   0.882158 0.226374 0.042206 0.000000
C526  C     C_R   0.861915 0.202379 0.064746 0.000000
C527  C     C_R   0.862201 0.175722 0.105195 0.000000
C528  C     C_R   0.838404 0.167058 0.126573 0.000000
C529  C     C_R   0.815005 0.174141 0.103036 0.000000
C530  C     C_R   0.815405 0.187726 0.057778 0.000000
C531  C     C_R   0.839059 0.203687 0.040281 0.000000
N177  N     N_R   0.842474 0.227931 0.000486 0.000000
H581  H     H_    0.848197 0.399193 0.031740 0.000000
H582  H     H_    0.857908 0.404146 0.973114 0.000000
H583  H     H_    0.835876 0.349305 0.990298 0.000000
H584  H     H_    0.874181 0.328763 0.043272 0.000000
H585  H     H_    0.863167 0.299535 0.949351 0.000000
H586  H     H_    0.896539 0.286342 0.966120 0.000000
H587  H     H_    0.880078 0.163422 0.120962 0.000000
H588  H     H_    0.838052 0.152887 0.161298 0.000000
H589  H     H_    0.796524 0.166735 0.119363 0.000000
H590  H     H_    0.797300 0.192076 0.038722 0.000000
C532  C     C_3   0.012853 0.085200 0.045161 0.000000
N178  N     N_3   0.991312 0.114939 0.025124 0.000000
C533  C     C_3   0.997228 0.172179 0.035031 0.000000
C534  C     C_R   0.980190 0.208481 0.009279 0.000000
N179  N     N_R   0.991892 0.240200 0.976570 0.000000
C535  C     C_R   0.973658 0.279904 0.972273 0.000000
C536  C     C_R   0.973624 0.322413 0.943765 0.000000
C537  C     C_R   0.952092 0.356293 0.945892 0.000000
C538  C     C_R   0.934980 0.356735 0.982487 0.000000
C539  C     C_R   0.935925 0.314511 0.012128 0.000000
C540  C     C_R   0.953138 0.273306 0.001496 0.000000
N180  N     N_R   0.955377 0.227218 0.024428 0.000000
H591  H     H_    0.029731 0.085268 0.021982 0.000000
H592  H     H_    0.019554 0.106856 0.076749 0.000000
H593  H     H_    0.006548 0.042826 0.052468 0.000000
H594  H     H_    0.974348 0.104561 0.042596 0.000000
H595  H     H_    0.994916 0.183110 0.071185 0.000000
H596  H     H_    0.017876 0.180696 0.024922 0.000000
H597  H     H_    0.988778 0.328467 0.919461 0.000000
H598  H     H_    0.948950 0.382882 0.918766 0.000000
H599  H     H_    0.920416 0.388981 0.987019 0.000000
H600  H     H_    0.922592 0.312193 0.040705 0.000000
C541  C     C_3   0.911976 0.151355 0.959888 0.000000
N181  N     N_3   0.920230 0.109069 0.990424 0.000000
C542  C     C_3   0.899823 0.098214 0.023674 0.000000
C543  C     C_R   0.912244 0.096827 0.068750 0.000000
N182  N     N_R   0.922465 0.048929 0.084432 0.000000
C544  C     C_R   0.942142 0.066079 0.111564 0.000000
C545  C     C_R   0.963475 0.035287 0.122549 0.000000
C546  C     C_R   0.985450 0.062865 0.139028 0.000000
C547  C     C_R   0.985600 0.119518 0.143551 0.000000
C548  C     C_R   0.964136 0.149752 0.129888 0.000000
C549  C     C_R   0.942688 0.121888 0.114251 0.000000
N183  N     N_R   0.923968 0.142605 0.087621 0.000000
H601  H     H_    0.919719 0.140497 0.925419 0.000000
H602  H     H_    0.890375 0.154675 0.957771 0.000000
H603  H     H_    0.919707 0.191559 0.972068 0.000000
H604  H     H_    0.937142 0.123292 0.006973 0.000000
H605  H     H_    0.883809 0.127598 0.023004 0.000000
H606  H     H_    0.890687 0.058478 0.016021 0.000000
H607  H     H_    0.963596 0.991692 0.114419 0.000000
H608  H     H_    0.003642 0.041372 0.143830 0.000000
H609  H     H_    0.003531 0.140494 0.153202 0.000000
H610  H     H_    0.965187 0.193957 0.128601 0.000000
C550  C     C_3   0.938019 0.276154 0.414023 0.000000
N184  N     N_3   0.925061 0.275938 0.369492 0.000000
C551  C     C_3   0.900272 0.304083 0.376799 0.000000
C552  C     C_R   0.882117 0.295788 0.337570 0.000000
N185  N     N_R   0.888597 0.319798 0.296731 0.000000
C553  C     C_R   0.866423 0.312326 0.272396 0.000000
C554  C     C_R   0.862580 0.326376 0.227761 0.000000
C555  C     C_R   0.843297 0.297927 0.203466 0.000000
C556  C     C_R   0.829231 0.256131 0.223504 0.000000
C557  C     C_R   0.832507 0.245660 0.269450 0.000000
C558  C     C_R   0.849711 0.277672 0.294341 0.000000
N186  N     N_R   0.857270 0.269189 0.337942 0.000000
H611  H     H_    0.958670 0.262971 0.409980 0.000000
H612  H     H_    0.937942 0.318530 0.429531 0.000000
H613  H     H_    0.928035 0.247363 0.437075 0.000000
H614  H     H_    0.920660 0.235070 0.360510 0.000000
H615  H     H_    0.892133 0.286745 0.406141 0.000000
H616  H     H_    0.903617 0.348978 0.382877 0.000000
H617  H     H_    0.876019 0.353674 0.210788 0.000000
H618  H     H_    0.841969 0.302141 0.167124 0.000000
H619  H     H_    0.815548 0.231870 0.203000 0.000000
H620  H     H_    0.822596 0.212177 0.285172 0.000000
C559  C     C_3   0.888699 0.171922 0.247003 0.000000
N187  N     N_3   0.893629 0.227641 0.232939 0.000000
C560  C     C_3   0.898228 0.228898 0.184177 0.000000
C561  C     C_R   0.916839 0.272850 0.171045 0.000000
N188  N     N_R   0.928189 0.310392 0.201910 0.000000
C562  C     C_R   0.949974 0.324927 0.179737 0.000000
C563  C     C_R   0.971362 0.350040 0.199548 0.000000
C564  C     C_R   0.993795 0.355834 0.174141 0.000000
C565  C     C_R   0.994447 0.335397 0.129754 0.000000
C566  C     C_R   0.973316 0.306848 0.111110 0.000000
C567  C     C_R   0.950780 0.301796 0.136805 0.000000
N189  N     N_R   0.929402 0.269177 0.129052 0.000000
H621  H     H_    0.907732 0.150935 0.251334 0.000000
H622  H     H_    0.879321 0.173706 0.281194 0.000000
H623  H     H_    0.875833 0.149945 0.221710 0.000000
H624  H     H_    0.909702 0.242016 0.251146 0.000000
H625  H     H_    0.906734 0.188835 0.172759 0.000000
H626  H     H_    0.879519 0.237578 0.167119 0.000000
H627  H     H_    0.970980 0.364457 0.234388 0.000000
H628  H     H_    0.010807 0.375781 0.189303 0.000000
H629  H     H_    0.012030 0.340009 0.110133 0.000000
H630  H     H_    0.975994 0.287527 0.078582 0.000000
C568  C     C_3   0.997932 0.492766 0.234055 0.000000
N190  N     N_3   0.973067 0.465650 0.243270 0.000000
C569  C     C_3   0.955702 0.473748 0.204252 0.000000
C570  C     C_R   0.927919 0.472573 0.219445 0.000000
N191  N     N_R   0.918174 0.435039 0.250755 0.000000
C571  C     C_R   0.898602 0.465319 0.270789 0.000000
C572  C     C_R   0.884057 0.453116 0.308874 0.000000
C573  C     C_R   0.866856 0.493061 0.326353 0.000000
C574  C     C_R   0.864913 0.544522 0.306603 0.000000
C575  C     C_R   0.880028 0.556474 0.268822 0.000000
C576  C     C_R   0.896211 0.515845 0.251157 0.000000
N192  N     N_R   0.913577 0.521038 0.216969 0.000000
H631  H     H_    0.012622 0.481194 0.260375 0.000000
H632  H     H_    0.004942 0.479586 0.199620 0.000000
H633  H     H_    0.995384 0.538313 0.235447 0.000000
H634  H     H_    0.964766 0.486079 0.271765 0.000000
H635  H     H_    0.959406 0.515383 0.191921 0.000000
H636  H     H_    0.959372 0.444665 0.175267 0.000000
H637  H     H_    0.886860 0.415392 0.326742 0.000000
H638  H     H_    0.855402 0.484691 0.356545 0.000000
H639  H     H_    0.851805 0.575663 0.321215 0.000000
H640  H     H_    0.879401 0.596629 0.253851 0.000000
C577  C     C_3   0.961535 0.182954 0.228997 0.000000
N193  N     N_3   0.956299 0.231838 0.256118 0.000000
C578  C     C_3   0.981390 0.250257 0.272443 0.000000
C579  C     C_R   0.976776 0.289851 0.309595 0.000000
N194  N     N_R   0.957763 0.331545 0.307419 0.000000
C580  C     C_R   0.964792 0.364008 0.343348 0.000000
C581  C     C_R   0.953163 0.413002 0.357125 0.000000
C582  C     C_R   0.963682 0.440884 0.394866 0.000000
C583  C     C_R   0.985597 0.419754 0.417209 0.000000
C584  C     C_R   0.996838 0.369975 0.402784 0.000000
C585  C     C_R   0.985834 0.341656 0.366365 0.000000
N195  N     N_R   0.993339 0.292092 0.347371 0.000000
H641  H     H_    0.944101 0.173515 0.208173 0.000000
H642  H     H_    0.978464 0.192442 0.207338 0.000000
H643  H     H_    0.966203 0.147344 0.250390 0.000000
H644  H     H_    0.945384 0.221381 0.284506 0.000000
H645  H     H_    0.992767 0.215588 0.285952 0.000000
H646  H     H_    0.992620 0.269786 0.244876 0.000000
H647  H     H_    0.936479 0.429515 0.339021 0.000000
H648  H     H_    0.955127 0.479829 0.406478 0.000000
H649  H     H_    0.994174 0.442697 0.445854 0.000000
H650  H     H_    0.014487 0.355761 0.418094 0.000000
C586  C     C_3   0.512311 0.651379 0.269832 0.000000
N196  N     N_3   0.490340 0.617640 0.285054 0.000000
C587  C     C_3   0.466209 0.643369 0.269773 0.000000
C588  C     C_R   0.441547 0.621058 0.290657 0.000000
N197  N     N_R   0.430537 0.569829 0.279468 0.000000
C589  C     C_R   0.404772 0.582200 0.275138 0.000000
C590  C     C_R   0.385633 0.548795 0.256848 0.000000
C591  C     C_R   0.361199 0.571707 0.248643 0.000000
C592  C     C_R   0.357085 0.627884 0.256408 0.000000
C593  C     C_R   0.376548 0.660481 0.275533 0.000000
C594  C     C_R   0.400060 0.635707 0.286041 0.000000
N198  N     N_R   0.422749 0.660848 0.296762 0.000000
H651  H     H_    0.530265 0.641342 0.289656 0.000000
H652  H     H_    0.515887 0.642875 0.232847 0.000000
H653  H     H_    0.508431 0.696046 0.275338 0.000000
H654  H     H_    0.490443 0.617575 0.320583 0.000000
H655  H     H_    0.466575 0.687690 0.278428 0.000000
H656  H     H_    0.465136 0.644140 0.232235 0.000000
H657  H     H_    0.390143 0.506683 0.247082 0.000000
H658  H     H_    0.346136 0.546978 0.232012 0.000000
H659  H     H_    0.339863 0.647745 0.242773 0.000000
H660  H     H_    0.374131 0.704666 0.276116 0.000000
C595  C     C_3   0.459531 0.469646 0.493440 0.000000
N199  N     N_3   0.470355 0.491220 0.451825 0.000000
C596  C     C_3   0.466240 0.451403 0.414753 0.000000
C597  C     C_R   0.480814 0.469163 0.373974 0.000000
N200  N     N_R   0.468814 0.478151 0.331895 0.000000
C598  C     C_R   0.489818 0.491199 0.306690 0.000000
C599  C     C_R   0.490940 0.495245 0.260572 0.000000
C600  C     C_R   0.513934 0.514497 0.241431 0.000000
C601  C     C_R   0.534268 0.532294 0.269741 0.000000
C602  C     C_R   0.532616 0.525840 0.316318 0.000000
C603  C     C_R   0.511727 0.497247 0.332516 0.000000
N201  N     N_R   0.507751 0.479760 0.374957 0.000000
H661  H     H_    0.465262 0.498573 0.521555 0.000000
H662  H     H_    0.437768 0.466289 0.490813 0.000000
H663  H     H_    0.467521 0.428323 0.500321 0.000000
H664  H     H_    0.490526 0.497072 0.456877 0.000000
H665  H     H_    0.472597 0.410599 0.425109 0.000000
H666  H     H_    0.445295 0.448632 0.406460 0.000000
H667  H     H_    0.474530 0.482143 0.240576 0.000000
H668  H     H_    0.515421 0.519562 0.204941 0.000000
H669  H     H_    0.551082 0.552716 0.255867 0.000000
H670  H     H_    0.547002 0.544123 0.338882 0.000000
C604  C     C_3   0.339529 0.341525 0.283880 0.000000
N202  N     N_3   0.349234 0.381506 0.317781 0.000000
C605  C     C_3   0.360721 0.428509 0.295716 0.000000
C606  C     C_R   0.371902 0.464536 0.332063 0.000000
N203  N     N_R   0.356019 0.482300 0.367806 0.000000
C607  C     C_R   0.372015 0.516637 0.390900 0.000000
C608  C     C_R   0.366388 0.541069 0.432086 0.000000
C609  C     C_R   0.387019 0.557481 0.459057 0.000000
C610  C     C_R   0.412155 0.549349 0.443323 0.000000
C611  C     C_R   0.417109 0.537040 0.397524 0.000000
C612  C     C_R   0.396509 0.516770 0.372519 0.000000
N204  N     N_R   0.397718 0.484488 0.334301 0.000000
H671  H     H_    0.351043 0.302979 0.285906 0.000000
H672  H     H_    0.319122 0.330221 0.292966 0.000000
H673  H     H_    0.340747 0.357653 0.248880 0.000000
H674  H     H_    0.364422 0.362973 0.335914 0.000000
H675  H     H_    0.375391 0.415988 0.269684 0.000000
H676  H     H_    0.345044 0.452911 0.280085 0.000000
H677  H     H_    0.347310 0.538180 0.446330 0.000000
H678  H     H_    0.383827 0.569362 0.494441 0.000000
H679  H     H_    0.427586 0.555474 0.467949 0.000000
H680  H     H_    0.436761 0.536752 0.383818 0.000000
C613  C     C_3   0.015764 0.833383 0.058201 0.000000
N205  N     N_3   0.999435 0.867060 0.029771 0.000000
C614  C     C_3   0.991584 0.916865 0.055316 0.000000
C615  C     C_R   0.979678 0.954522 0.022079 0.000000
N206  N     N_R   0.993492 0.968509 0.983169 0.000000
C616  C     C_R   0.974627 0.990517 0.957955 0.000000
C617  C     C_R   0.976828 0.000344 0.912840 0.000000
C618  C     C_R   0.954807 0.011757 0.888290 0.000000
C619  C     C_R   0.931426 0.017178 0.910452 0.000000
C620  C     C_R   0.929119 0.004448 0.956176 0.000000
C621  C     C_R   0.951210 0.991206 0.979598 0.000000
N207  N     N_R   0.952921 0.968154 0.020843 0.000000
H681  H     H_    0.022505 0.796241 0.038651 0.000000
H682  H     H_    0.033171 0.857332 0.067434 0.000000
H683  H     H_    0.004487 0.821049 0.088654 0.000000
H684  H     H_    0.982462 0.844248 0.023940 0.000000
H685  H     H_    0.977316 0.906547 0.082269 0.000000
H686  H     H_    0.008931 0.937391 0.071008 0.000000
H687  H     H_    0.995422 0.003650 0.897139 0.000000
H688  H     H_    0.955969 0.018439 0.852001 0.000000
H689  H     H_    0.915191 0.026873 0.889299 0.000000
H690  H     H_    0.910623 0.001363 0.972518 0.000000
C622  C     C_3   0.895035 0.911016 0.883526 0.000000
N208  N     N_3   0.882217 0.943574 0.919159 0.000000
C623  C     C_3   0.880745 0.911563 0.960241 0.000000
C624  C     C_R   0.867441 0.943799 0.997259 0.000000
N209  N     N_R   0.881473 0.962310 0.035321 0.000000
C625  C     C_R   0.862402 0.986453 0.060546 0.000000
C626  C     C_R   0.865464 0.013071 0.101719 0.000000
C627  C     C_R   0.844202 0.040553 0.120277 0.000000
C628  C     C_R   0.820678 0.043517 0.096164 0.000000
C629  C     C_R   0.817972 0.015797 0.054714 0.000000
C630  C     C_R   0.838921 0.985715 0.038297 0.000000
N210  N     N_R   0.840845 0.958817 0.997665 0.000000
H691  H     H_    0.911994 0.932719 0.868987 0.000000
H692  H     H_    0.901956 0.872243 0.897898 0.000000
H693  H     H_    0.881011 0.903742 0.855313 0.000000
H694  H     H_    0.863110 0.948297 0.907810 0.000000
H695  H     H_    0.870836 0.872487 0.953232 0.000000
H696  H     H_    0.900520 0.902064 0.973361 0.000000
H697  H     H_    0.883985 0.013286 0.118813 0.000000
H698  H     H_    0.846365 0.060766 0.153225 0.000000
H699  H     H_    0.803989 0.065781 0.110533 0.000000
H700  H     H_    0.800245 0.019459 0.035736 0.000000
C631  C     C_3   0.915733 0.055952 0.209345 0.000000
N211  N     N_3   0.927351 0.002284 0.200445 0.000000
C632  C     C_3   0.906559 0.961927 0.194030 0.000000
C633  C     C_R   0.916034 0.917055 0.164937 0.000000
N212  N     N_R   0.920248 0.920904 0.118500 0.000000
C634  C     C_R   0.927252 0.869662 0.107162 0.000000
C635  C     C_R   0.931251 0.850824 0.063718 0.000000
C636  C     C_R   0.940441 0.798323 0.058237 0.000000
C637  C     C_R   0.946434 0.766940 0.095976 0.000000
C638  C     C_R   0.941005 0.786431 0.139985 0.000000
C639  C     C_R   0.929551 0.837675 0.144674 0.000000
N213  N     N_R   0.921921 0.866290 0.183069 0.000000
H701  H     H_    0.932016 0.085898 0.211845 0.000000
H702  H     H_    0.902220 0.067614 0.181264 0.000000
H703  H     H_    0.905277 0.056116 0.242407 0.000000
H704  H     H_    0.937565 0.992639 0.230150 0.000000
H705  H     H_    0.903021 0.939916 0.224758 0.000000
H706  H     H_    0.887562 0.979554 0.183374 0.000000
H707  H     H_    0.927450 0.876121 0.034682 0.000000
H708  H     H_    0.942971 0.782563 0.023769 0.000000
H709  H     H_    0.954632 0.726111 0.090529 0.000000
H710  H     H_    0.946102 0.762104 0.168720 0.000000
C640  C     C_3   0.038341 0.741377 0.940935 0.000000
N214  N     N_3   0.043330 0.697669 0.973124 0.000000
C641  C     C_3   0.064710 0.716674 0.002221 0.000000
C642  C     C_R   0.061935 0.705343 0.051440 0.000000
N215  N     N_R   0.049867 0.659451 0.069985 0.000000
C643  C     C_R   0.057423 0.664187 0.113980 0.000000
C644  C     C_R   0.053132 0.626607 0.147427 0.000000
C645  C     C_R   0.061809 0.639817 0.191301 0.000000
C646  C     C_R   0.073817 0.690410 0.200724 0.000000
C647  C     C_R   0.078327 0.727080 0.166026 0.000000
C648  C     C_R   0.071067 0.711914 0.122247 0.000000
N216  N     N_R   0.075255 0.738948 0.082976 0.000000
H711  H     H_    0.024975 0.726075 0.913640 0.000000
H712  H     H_    0.029015 0.777786 0.958350 0.000000
H713  H     H_    0.056970 0.753327 0.924448 0.000000
H714  H     H_    0.050597 0.664486 0.953275 0.000000
H715  H     H_    0.083812 0.700400 0.989090 0.000000
H716  H     H_    0.063928 0.761297 0.002730 0.000000
H717  H     H_    0.042885 0.588366 0.140003 0.000000
H718  H     H_    0.058504 0.611362 0.218583 0.000000
H719  H     H_    0.079819 0.701180 0.235399 0.000000
H720  H     H_    0.087400 0.766142 0.173310 0.000000
C649  C     C_3   0.063881 0.457161 0.936813 0.000000
N217  N     N_3   0.038258 0.482636 0.945884 0.000000
C650  C     C_3   0.036059 0.533291 0.920823 0.000000
C651  C     C_R   0.014768 0.569223 0.940218 0.000000
N218  N     N_R   0.996798 0.594504 0.911509 0.000000
C652  C     C_R   0.987716 0.635416 0.938902 0.000000
C653  C     C_R   0.976880 0.683653 0.925065 0.000000
C654  C     C_R   0.975948 0.726757 0.956929 0.000000
C655  C     C_R   0.983298 0.719411 0.001772 0.000000
C656  C     C_R   0.992939 0.670162 0.015350 0.000000
C657  C     C_R   0.996675 0.630332 0.982445 0.000000
N219  N     N_R   0.014114 0.589352 0.985553 0.000000
H721  H     H_    0.062006 0.426450 0.909125 0.000000
H722  H     H_    0.079008 0.487244 0.926863 0.000000
H723  H     H_    0.070476 0.434703 0.967165 0.000000
H724  H     H_    0.037426 0.493263 0.980488 0.000000
H725  H     H_    0.054494 0.557663 0.922754 0.000000
H726  H     H_    0.031562 0.523057 0.884430 0.000000
H727  H     H_    0.972135 0.689549 0.889701 0.000000
H728  H     H_    0.970772 0.767213 0.946635 0.000000
H729  H     H_    0.983814 0.753150 0.025858 0.000000
H730  H     H_    0.001109 0.667211 0.048823 0.000000
C658  C     C_3   0.063827 0.442937 0.197257 0.000000
N220  N     N_3   0.060978 0.419959 0.150934 0.000000
C659  C     C_3   0.044098 0.455254 0.123670 0.000000
C660  C     C_R   0.059676 0.475261 0.084608 0.000000
N221  N     N_R   0.053792 0.523909 0.062469 0.000000
C661  C     C_R   0.075083 0.529494 0.035800 0.000000
C662  C     C_R   0.079883 0.571698 0.006768 0.000000
C663  C     C_R   0.102742 0.570594 0.981209 0.000000
C664  C     C_R   0.119522 0.525496 0.983157 0.000000
C665  C     C_R   0.113539 0.481911 0.010883 0.000000
C666  C     C_R   0.091707 0.485764 0.038938 0.000000
N222  N     N_R   0.082802 0.449464 0.069759 0.000000
H731  H     H_    0.081310 0.423773 0.213538 0.000000
H732  H     H_    0.066702 0.488336 0.197264 0.000000
H733  H     H_    0.046238 0.432712 0.217625 0.000000
H734  H     H_    0.051467 0.382180 0.153808 0.000000
H735  H     H_    0.026875 0.431639 0.110607 0.000000
H736  H     H_    0.036724 0.491164 0.144161 0.000000
H737  H     H_    0.065754 0.603869 0.002789 0.000000
H738  H     H_    0.106918 0.603727 0.958244 0.000000
H739  H     H_    0.136990 0.523566 0.961950 0.000000
H740  H     H_    0.126268 0.447120 0.010385 0.000000
C667  C     C_3   0.003726 0.743606 0.176712 0.000000
N223  N     N_3   0.994038 0.704998 0.141462 0.000000
C668  C     C_3   0.987660 0.653513 0.163219 0.000000
C669  C     C_R   0.976623 0.611105 0.130375 0.000000
N224  N     N_R   0.951461 0.588824 0.136939 0.000000
C670  C     C_R   0.951118 0.547819 0.105657 0.000000
C671  C     C_R   0.931822 0.508640 0.101096 0.000000
C672  C     C_R   0.936076 0.466490 0.069640 0.000000
C673  C     C_R   0.957936 0.467817 0.041621 0.000000
C674  C     C_R   0.977434 0.507142 0.047195 0.000000
C675  C     C_R   0.973988 0.545844 0.081090 0.000000
N225  N     N_R   0.991221 0.585150 0.095032 0.000000
H741  H     H_    0.010620 0.781763 0.160648 0.000000
H742  H     H_    0.987767 0.754729 0.201057 0.000000
H743  H     H_    0.020316 0.725036 0.195684 0.000000
H744  H     H_    0.009310 0.697945 0.118557 0.000000
H745  H     H_    0.004979 0.636386 0.181044 0.000000
H746  H     H_    0.972492 0.662789 0.188676 0.000000
H747  H     H_    0.914504 0.509193 0.122534 0.000000
H748  H     H_    0.922055 0.433115 0.065804 0.000000
H749  H     H_    0.959803 0.436963 0.015508 0.000000
H750  H     H_    0.994803 0.506941 0.026169 0.000000
C676  C     C_3   0.778689 0.720914 0.933454 0.000000
N226  N     N_3   0.801518 0.691178 0.950755 0.000000
C677  C     C_3   0.803000 0.638216 0.926430 0.000000
C678  C     C_R   0.821806 0.599768 0.946322 0.000000
N227  N     N_R   0.842658 0.579505 0.920110 0.000000
C679  C     C_R   0.854851 0.547580 0.951178 0.000000
C680  C     C_R   0.879533 0.526448 0.950113 0.000000
C681  C     C_R   0.889757 0.502670 0.989158 0.000000
C682  C     C_R   0.874197 0.495671 0.027150 0.000000
C683  C     C_R   0.848881 0.515312 0.027033 0.000000
C684  C     C_R   0.841043 0.545443 0.990636 0.000000
N228  N     N_R   0.820605 0.579722 0.990416 0.000000
H751  H     H_    0.783488 0.738605 0.900215 0.000000
H752  H     H_    0.761559 0.693535 0.928101 0.000000
H753  H     H_    0.773015 0.754199 0.958207 0.000000
H754  H     H_    0.798700 0.684960 0.985163 0.000000
H755  H     H_    0.783588 0.617887 0.921993 0.000000
H756  H     H_    0.812587 0.645697 0.894249 0.000000
H757  H     H_    0.891043 0.530866 0.920377 0.000000
H758  H     H_    0.909907 0.488270 0.989608 0.000000
H759  H     H_    0.881431 0.474421 0.056621 0.000000
H760  H     H_    0.836023 0.508800 0.055558 0.000000
C685  C     C_3   0.823518 0.494865 0.219605 0.000000
N229  N     N_3   0.830067 0.542863 0.192911 0.000000
C686  C     C_3   0.848721 0.526639 0.157237 0.000000
C687  C     C_R   0.856788 0.576034 0.131402 0.000000
N230  N     N_R   0.841110 0.599273 0.097566 0.000000
C688  C     C_R   0.857615 0.635854 0.079910 0.000000
C689  C     C_R   0.852185 0.668954 0.044053 0.000000
C690  C     C_R   0.872167 0.700814 0.027792 0.000000
C691  C     C_R   0.896790 0.698644 0.047972 0.000000
C692  C     C_R   0.901975 0.665678 0.085056 0.000000
C693  C     C_R   0.881722 0.634363 0.100523 0.000000
N231  N     N_R   0.882152 0.597973 0.134587 0.000000
H761  H     H_    0.815119 0.509037 0.252975 0.000000
H762  H     H_    0.808475 0.469561 0.201167 0.000000
H763  H     H_    0.841305 0.469283 0.225894 0.000000
H764  H     H_    0.838908 0.572491 0.214390 0.000000
H765  H     H_    0.866587 0.508102 0.172369 0.000000
H766  H     H_    0.839501 0.495792 0.133590 0.000000
H767  H     H_    0.832896 0.670302 0.029175 0.000000
H768  H     H_    0.868824 0.726567 0.998719 0.000000
H769  H     H_    0.912259 0.720260 0.031915 0.000000
H770  H     H_    0.921338 0.663148 0.100115 0.000000
C694  C     C_3   0.744495 0.467069 0.943855 0.000000
N232  N     N_3   0.745618 0.473264 0.993463 0.000000
C695  C     C_3   0.772406 0.463416 0.009305 0.000000
C696  C     C_R   0.773423 0.475737 0.059379 0.000000
N233  N     N_R   0.785549 0.522708 0.076947 0.000000
C697  C     C_R   0.776447 0.525728 0.119780 0.000000
C698  C     C_R   0.780152 0.569086 0.150232 0.000000
C699  C     C_R   0.766290 0.568728 0.190643 0.000000
C700  C     C_R   0.746789 0.529562 0.196478 0.000000
C701  C     C_R   0.742962 0.486728 0.164487 0.000000
C702  C     C_R   0.759708 0.483034 0.127858 0.000000
N234  N     N_R   0.758267 0.448046 0.090935 0.000000
H771  H     H_    0.723755 0.472248 0.932332 0.000000
H772  H     H_    0.756829 0.499152 0.928081 0.000000
H773  H     H_    0.751451 0.425352 0.932802 0.000000
H774  H     H_    0.733789 0.442820 0.007174 0.000000
H775  H     H_    0.778439 0.420573 0.001052 0.000000
H776  H     H_    0.786329 0.491110 0.992195 0.000000
H777  H     H_    0.793292 0.602721 0.142870 0.000000
H778  H     H_    0.768719 0.602175 0.215655 0.000000
H779  H     H_    0.733800 0.534518 0.225473 0.000000
H780  H     H_    0.726298 0.459527 0.166785 0.000000
C703  C     C_3   0.834909 0.792694 0.113036 0.000000
N235  N     N_3   0.811894 0.774365 0.086989 0.000000
C704  C     C_3   0.797755 0.732750 0.111993 0.000000
C705  C     C_R   0.777814 0.706873 0.080945 0.000000
N236  N     N_R   0.755377 0.734008 0.065883 0.000000
C706  C     C_R   0.745691 0.697130 0.034538 0.000000
C707  C     C_R   0.724425 0.702612 0.005737 0.000000
C708  C     C_R   0.718516 0.660269 0.974787 0.000000
C709  C     C_R   0.734156 0.613301 0.972465 0.000000
C710  C     C_R   0.755435 0.608308 0.001792 0.000000
C711  C     C_R   0.760592 0.650644 0.032553 0.000000
N237  N     N_R   0.781473 0.655089 0.060711 0.000000
H781  H     H_    0.839863 0.835543 0.103724 0.000000
H782  H     H_    0.830842 0.791756 0.150247 0.000000
H783  H     H_    0.852014 0.765912 0.104279 0.000000
H784  H     H_    0.818370 0.756334 0.056263 0.000000
H785  H     H_    0.811732 0.700500 0.123244 0.000000
H786  H     H_    0.787567 0.751895 0.141973 0.000000
H787  H     H_    0.711183 0.736277 0.009414 0.000000
H788  H     H_    0.701534 0.663753 0.952497 0.000000
H789  H     H_    0.729711 0.580940 0.947460 0.000000
H790  H     H_    0.768443 0.573618 0.998940 0.000000
C712  C     C_3   0.230657 0.187303 0.181000 0.000000
N238  N     N_3   0.222333 0.230400 0.213650 0.000000
C713  C     C_3   0.197867 0.213646 0.235343 0.000000
C714  C     C_R   0.187573 0.258669 0.266398 0.000000
N239  N     N_R   0.204012 0.295567 0.289563 0.000000
C715  C     C_R   0.187045 0.323927 0.316824 0.000000
C716  C     C_R   0.192797 0.364583 0.349148 0.000000
C717  C     C_R   0.171932 0.390546 0.371570 0.000000
C718  C     C_R   0.146030 0.377153 0.360129 0.000000
C719  C     C_R   0.140678 0.336425 0.327148 0.000000
C720  C     C_R   0.161645 0.308308 0.307540 0.000000
N240  N     N_R   0.160964 0.265866 0.276346 0.000000
H791  H     H_    0.247437 0.202680 0.160682 0.000000
H792  H     H_    0.237287 0.150363 0.199454 0.000000
H793  H     H_    0.214268 0.176067 0.157313 0.000000
H794  H     H_    0.219278 0.266322 0.195570 0.000000
H795  H     H_    0.182821 0.201592 0.209536 0.000000
H796  H     H_    0.201969 0.177739 0.256407 0.000000
H797  H     H_    0.212808 0.376581 0.356857 0.000000
H798  H     H_    0.175816 0.422872 0.397014 0.000000
H799  H     H_    0.129912 0.399493 0.376437 0.000000
H800  H     H_    0.120655 0.328867 0.316328 0.000000
C721  C     C_3   0.167482 0.268114 0.126223 0.000000
N241  N     N_3   0.163126 0.286827 0.173007 0.000000
C722  C     C_3   0.144644 0.332953 0.175291 0.000000
C723  C     C_R   0.117972 0.311667 0.171052 0.000000
N242  N     N_R   0.110826 0.266351 0.196173 0.000000
C724  C     C_R   0.090633 0.246404 0.171000 0.000000
C725  C     C_R   0.079178 0.195075 0.171758 0.000000
C726  C     C_R   0.058885 0.183681 0.141429 0.000000
C727  C     C_R   0.048573 0.225708 0.116021 0.000000
C728  C     C_R   0.061690 0.274988 0.114422 0.000000
C729  C     C_R   0.084231 0.281615 0.137555 0.000000
N243  N     N_R   0.101350 0.323594 0.134543 0.000000
H801  H     H_    0.176452 0.226264 0.125833 0.000000
H802  H     H_    0.148612 0.266151 0.107096 0.000000
H803  H     H_    0.182301 0.295388 0.111279 0.000000
H804  H     H_    0.181376 0.302161 0.182123 0.000000
H805  H     H_    0.145580 0.353558 0.209333 0.000000
H806  H     H_    0.148860 0.361825 0.148342 0.000000
H807  H     H_    0.085909 0.163751 0.193990 0.000000
H808  H     H_    0.049660 0.143653 0.140512 0.000000
H809  H     H_    0.030358 0.220614 0.097909 0.000000
H810  H     H_    0.053406 0.310736 0.101775 0.000000
C730  C     C_3   0.534146 0.188519 0.165263 0.000000
N244  N     N_3   0.535098 0.205100 0.213498 0.000000
C731  C     C_3   0.562743 0.208068 0.225775 0.000000
C732  C     C_R   0.567631 0.203117 0.275929 0.000000
N245  N     N_R   0.590091 0.229493 0.293103 0.000000
C733  C     C_R   0.600777 0.190322 0.319816 0.000000
C734  C     C_R   0.625677 0.187185 0.339695 0.000000
C735  C     C_R   0.633394 0.140260 0.361795 0.000000
C736  C     C_R   0.616813 0.095677 0.362304 0.000000
C737  C     C_R   0.592751 0.099197 0.340783 0.000000
C738  C     C_R   0.584785 0.146124 0.320876 0.000000
N246  N     N_R   0.562253 0.153321 0.297155 0.000000
H811  H     H_    0.514417 0.197401 0.151098 0.000000
H812  H     H_    0.549437 0.210762 0.146092 0.000000
H813  H     H_    0.537773 0.143580 0.161073 0.000000
H814  H     H_    0.527438 0.172231 0.230897 0.000000
H815  H     H_    0.573453 0.173398 0.208345 0.000000
H816  H     H_    0.571249 0.247134 0.213933 0.000000
H817  H     H_    0.640163 0.218219 0.338010 0.000000
H818  H     H_    0.652799 0.137931 0.377219 0.000000
H819  H     H_    0.622913 0.057864 0.378216 0.000000
H820  H     H_    0.580383 0.065886 0.337897 0.000000
C739  C     C_3   0.382359 0.875872 0.865565 0.000000
N247  N     N_3   0.362920 0.839952 0.885965 0.000000
C740  C     C_3   0.369750 0.782472 0.874866 0.000000
C741  C     C_R   0.345170 0.749710 0.870444 0.000000
N248  N     N_R   0.325626 0.753410 0.904572 0.000000
C742  C     C_R   0.303844 0.759764 0.878194 0.000000
C743  C     C_R   0.279526 0.778966 0.892250 0.000000
C744  C     C_R   0.260364 0.787698 0.859321 0.000000
C745  C     C_R   0.266174 0.780555 0.813082 0.000000
C746  C     C_R   0.291265 0.764825 0.799182 0.000000
C747  C     C_R   0.309635 0.753383 0.832286 0.000000
N249  N     N_R   0.335606 0.743803 0.825896 0.000000
H821  H     H_    0.380100 0.918362 0.880376 0.000000
H822  H     H_    0.402583 0.860940 0.872489 0.000000
H823  H     H_    0.379286 0.877110 0.828082 0.000000
H824  H     H_    0.344759 0.848846 0.870782 0.000000
H825  H     H_    0.379443 0.782077 0.841347 0.000000
H826  H     H_    0.383390 0.764430 0.899616 0.000000
H827  H     H_    0.275722 0.789988 0.927563 0.000000
H828  H     H_    0.241055 0.802639 0.869619 0.000000
H829  H     H_    0.251372 0.790144 0.787715 0.000000
H830  H     H_    0.296598 0.765732 0.763574 0.000000
C748  C     C_3   0.331582 0.633548 0.628802 0.000000
N250  N     N_3   0.345876 0.674435 0.656399 0.000000
C749  C     C_3   0.349348 0.722483 0.629080 0.000000
C750  C     C_R   0.348976 0.774441 0.658278 0.000000
N251  N     N_R   0.347740 0.775947 0.706019 0.000000
C751  C     C_R   0.345118 0.830649 0.715178 0.000000
C752  C     C_R   0.342031 0.856390 0.757289 0.000000
C753  C     C_R   0.339648 0.913422 0.759289 0.000000
C754  C     C_R   0.341814 0.943634 0.719772 0.000000
C755  C     C_R   0.345787 0.917056 0.677760 0.000000
C756  C     C_R   0.346444 0.860237 0.676061 0.000000
N252  N     N_R   0.349308 0.826244 0.638980 0.000000
H831  H     H_    0.332691 0.593047 0.645514 0.000000
H832  H     H_    0.310512 0.645950 0.626346 0.000000
H833  H     H_    0.340587 0.629234 0.594256 0.000000
H834  H     H_    0.364537 0.658256 0.661606 0.000000
H835  H     H_    0.367452 0.718755 0.608610 0.000000
H836  H     H_    0.333437 0.722539 0.604241 0.000000
H837  H     H_    0.341293 0.833321 0.788001 0.000000
H838  H     H_    0.336942 0.934672 0.792026 0.000000
H839  H     H_    0.340837 0.988306 0.721917 0.000000
H840  H     H_    0.348417 0.940872 0.647818 0.000000
C757  C     C_3   0.685814 0.567244 0.038852 0.000000
N253  N     N_3   0.683212 0.507818 0.038984 0.000000
C758  C     C_3   0.691946 0.488998 0.083119 0.000000
C759  C     C_R   0.682261 0.431980 0.088701 0.000000
N254  N     N_R   0.655911 0.419257 0.094327 0.000000
C760  C     C_R   0.655529 0.364680 0.085051 0.000000
C761  C     C_R   0.634073 0.330684 0.084872 0.000000
C762  C     C_R   0.637423 0.276235 0.070586 0.000000
C763  C     C_R   0.662227 0.257028 0.057676 0.000000
C764  C     C_R   0.683775 0.292009 0.059840 0.000000
C765  C     C_R   0.680020 0.345600 0.074731 0.000000
N255  N     N_R   0.697863 0.386744 0.078265 0.000000
H841  H     H_    0.682714 0.581315 0.003548 0.000000
H842  H     H_    0.670491 0.586289 0.061209 0.000000
H843  H     H_    0.705803 0.578959 0.051103 0.000000
H844  H     H_    0.695403 0.490800 0.013626 0.000000
H845  H     H_    0.713566 0.489323 0.083504 0.000000
H846  H     H_    0.684510 0.516537 0.110669 0.000000
H847  H     H_    0.615287 0.346166 0.095473 0.000000
H848  H     H_    0.620597 0.248839 0.068863 0.000000
H849  H     H_    0.664679 0.214763 0.045286 0.000000
H850  H     H_    0.702266 0.278770 0.046467 0.000000
C766  C     C_3   0.676636 0.433970 0.258818 0.000000
N256  N     N_3   0.658834 0.388160 0.250078 0.000000
C767  C     C_3   0.650366 0.382393 0.202731 0.000000
C768  C     C_R   0.620870 0.379759 0.199776 0.000000
N257  N     N_R   0.604512 0.350695 0.228814 0.000000
C769  C     C_R   0.580347 0.366295 0.215395 0.000000
C770  C     C_R   0.556745 0.351919 0.234686 0.000000
C771  C     C_R   0.534032 0.375628 0.217704 0.000000
C772  C     C_R   0.535378 0.411753 0.181678 0.000000
C773  C     C_R   0.559476 0.426809 0.163740 0.000000
C774  C     C_R   0.581909 0.403181 0.181048 0.000000
N258  N     N_R   0.607371 0.412038 0.169325 0.000000
H851  H     H_    0.689247 0.424552 0.288647 0.000000
H852  H     H_    0.689483 0.440457 0.229234 0.000000
H853  H     H_    0.665094 0.471473 0.268007 0.000000
H854  H     H_    0.642342 0.396170 0.269879 0.000000
H855  H     H_    0.656648 0.417336 0.182791 0.000000
H856  H     H_    0.659936 0.345667 0.186736 0.000000
H857  H     H_    0.555964 0.324666 0.263328 0.000000
H858  H     H_    0.515163 0.366210 0.232775 0.000000
H859  H     H_    0.517402 0.428732 0.167707 0.000000
H860  H     H_    0.560328 0.454030 0.135528 0.000000
C775  C     C_3   0.577002 0.598265 0.183057 0.000000
N259  N     N_3   0.580098 0.556380 0.147261 0.000000
C776  C     C_3   0.590883 0.580667 0.106387 0.000000
C777  C     C_R   0.618585 0.586131 0.113916 0.000000
N260  N     N_R   0.628124 0.636116 0.129990 0.000000
C778  C     C_R   0.644384 0.620757 0.163571 0.000000
C779  C     C_R   0.656059 0.654335 0.196403 0.000000
C780  C     C_R   0.671742 0.629552 0.228737 0.000000
C781  C     C_R   0.676494 0.573110 0.225678 0.000000
C782  C     C_R   0.664193 0.540536 0.192233 0.000000
C783  C     C_R   0.646952 0.564714 0.163111 0.000000
N261  N     N_R   0.630717 0.540652 0.131438 0.000000
H861  H     H_    0.587329 0.636798 0.175466 0.000000
H862  H     H_    0.555693 0.607157 0.188055 0.000000
H863  H     H_    0.585742 0.582317 0.214533 0.000000
H864  H     H_    0.561231 0.542263 0.140876 0.000000
H865  H     H_    0.589837 0.550727 0.077891 0.000000
H866  H     H_    0.581825 0.621191 0.099808 0.000000
H867  H     H_    0.652841 0.698353 0.197461 0.000000
H868  H     H_    0.680979 0.654254 0.255631 0.000000
H869  H     H_    0.689890 0.554577 0.249704 0.000000
H870  H     H_    0.668851 0.498207 0.187425 0.000000
C784  C     C_3   0.664614 0.891092 0.160925 0.000000
N262  N     N_3   0.639451 0.869609 0.174456 0.000000
C785  C     C_3   0.643267 0.815698 0.193823 0.000000
C786  C     C_R   0.616917 0.792853 0.200673 0.000000
N263  N     N_R   0.599360 0.817418 0.230519 0.000000
C787  C     C_R   0.576112 0.796933 0.215878 0.000000
C788  C     C_R   0.551430 0.814757 0.228232 0.000000
C789  C     C_R   0.529923 0.787868 0.208593 0.000000
C790  C     C_R   0.533642 0.744451 0.177107 0.000000
C791  C     C_R   0.558833 0.729644 0.162997 0.000000
C792  C     C_R   0.579814 0.758323 0.181887 0.000000
N264  N     N_R   0.605488 0.756546 0.169726 0.000000
H871  H     H_    0.661371 0.926456 0.138280 0.000000
H872  H     H_    0.675449 0.903717 0.192151 0.000000
H873  H     H_    0.676106 0.859283 0.142406 0.000000
H874  H     H_    0.627869 0.864457 0.145126 0.000000
H875  H     H_    0.654472 0.788154 0.170568 0.000000
H876  H     H_    0.653888 0.818868 0.226556 0.000000
H877  H     H_    0.549231 0.848286 0.252664 0.000000
H878  H     H_    0.510126 0.800356 0.217856 0.000000
H879  H     H_    0.516708 0.723564 0.162112 0.000000
H880  H     H_    0.561521 0.698351 0.136445 0.000000
C793  C     C_3   0.718450 0.636621 0.145531 0.000000
N265  N     N_3   0.708029 0.692204 0.142290 0.000000
C794  C     C_3   0.690788 0.691523 0.102902 0.000000
C795  C     C_R   0.680402 0.746922 0.092612 0.000000
N266  N     N_R   0.653603 0.756038 0.090671 0.000000
C796  C     C_R   0.652146 0.803764 0.068408 0.000000
C797  C     C_R   0.629986 0.832326 0.057101 0.000000
C798  C     C_R   0.632760 0.881642 0.034691 0.000000
C799  C     C_R   0.657700 0.901218 0.024616 0.000000
C800  C     C_R   0.679837 0.871733 0.037236 0.000000
C801  C     C_R   0.676548 0.823068 0.058940 0.000000
N267  N     N_R   0.695296 0.789138 0.074983 0.000000
H881  H     H_    0.723699 0.629476 0.181457 0.000000
H882  H     H_    0.703453 0.605606 0.135013 0.000000
H883  H     H_    0.736011 0.631841 0.123285 0.000000
H884  H     H_    0.723990 0.717625 0.135163 0.000000
H885  H     H_    0.700836 0.672477 0.073645 0.000000
H886  H     H_    0.673790 0.665443 0.108492 0.000000
H887  H     H_    0.611264 0.817189 0.067223 0.000000
H888  H     H_    0.615550 0.905268 0.025164 0.000000
H889  H     H_    0.659856 0.939651 0.006984 0.000000
H890  H     H_    0.699038 0.885250 0.028884 0.000000
C802  C     C_3   0.806985 0.103010 0.491693 0.000000
N268  N     N_3   0.804081 0.043568 0.486613 0.000000
C803  C     C_3   0.830431 0.020990 0.490805 0.000000
C804  C     C_R   0.831504 0.960035 0.487670 0.000000
N269  N     N_R   0.841173 0.931080 0.524559 0.000000
C805  C     C_R   0.849411 0.883305 0.504806 0.000000
C806  C     C_R   0.865066 0.844257 0.525123 0.000000
C807  C     C_R   0.874113 0.800121 0.498832 0.000000
C808  C     C_R   0.872609 0.802783 0.451959 0.000000
C809  C     C_R   0.861898 0.849034 0.432525 0.000000
C810  C     C_R   0.846621 0.884622 0.458474 0.000000
N270  N     N_R   0.834968 0.932546 0.445636 0.000000
H891  H     H_    0.787324 0.123046 0.494321 0.000000
H892  H     H_    0.818377 0.114211 0.522102 0.000000
H893  H     H_    0.818752 0.118222 0.462972 0.000000
H894  H     H_    0.798736 0.037435 0.452415 0.000000
H895  H     H_    0.842533 0.036667 0.464028 0.000000
H896  H     H_    0.839670 0.034571 0.522790 0.000000
H897  H     H_    0.870228 0.847562 0.560793 0.000000
H898  H     H_    0.884770 0.766667 0.514298 0.000000
H899  H     H_    0.882345 0.771685 0.430805 0.000000
H900  H     H_    0.869134 0.860411 0.400317 0.000000
C811  C     C_3   0.921283 0.942402 0.353948 0.000000
N271  N     N_3   0.916315 0.959867 0.308178 0.000000
C812  C     C_3   0.888098 0.966404 0.303881 0.000000
C813  C     C_R   0.875417 0.912378 0.305524 0.000000
N272  N     N_R   0.886929 0.862586 0.289747 0.000000
C814  C     C_R   0.869471 0.825703 0.306264 0.000000
C815  C     C_R   0.873373 0.770246 0.312867 0.000000
C816  C     C_R   0.854124 0.741246 0.335791 0.000000
C817  C     C_R   0.831330 0.767321 0.351567 0.000000
C818  C     C_R   0.828620 0.823870 0.348343 0.000000
C819  C     C_R   0.848513 0.852126 0.327261 0.000000
N273  N     N_R   0.852802 0.906964 0.331226 0.000000
H901  H     H_    0.941915 0.936886 0.360201 0.000000
H902  H     H_    0.917132 0.976692 0.376691 0.000000
H903  H     H_    0.911185 0.903522 0.362193 0.000000
H904  H     H_    0.922673 0.928752 0.286124 0.000000
H905  H     H_    0.880333 0.992460 0.331620 0.000000
H906  H     H_    0.882474 0.987526 0.272814 0.000000
H907  H     H_    0.891399 0.749754 0.303509 0.000000
H908  H     H_    0.856972 0.697665 0.341638 0.000000
H909  H     H_    0.816554 0.743983 0.369312 0.000000
H910  H     H_    0.812360 0.845518 0.364808 0.000000
C820  C     C_3   0.882344 0.035521 0.691892 0.000000
N274  N     N_3   0.887384 0.089694 0.673701 0.000000
C821  C     C_3   0.887112 0.086340 0.623775 0.000000
C822  C     C_R   0.859643 0.084793 0.606996 0.000000
N275  N     N_R   0.845975 0.035410 0.603791 0.000000
C823  C     C_R   0.820720 0.052962 0.604235 0.000000
C824  C     C_R   0.798487 0.021335 0.597800 0.000000
C825  C     C_R   0.774316 0.048271 0.597164 0.000000
C826  C     C_R   0.772943 0.105609 0.601835 0.000000
C827  C     C_R   0.795756 0.136873 0.605631 0.000000
C828  C     C_R   0.819509 0.109620 0.606156 0.000000
N276  N     N_R   0.843947 0.131946 0.604869 0.000000
H911  H     H_    0.886074 0.037292 0.729287 0.000000
H912  H     H_    0.861598 0.024030 0.685985 0.000000
H913  H     H_    0.895339 0.003857 0.675690 0.000000
H914  H     H_    0.906422 0.100250 0.684227 0.000000
H915  H     H_    0.896831 0.122957 0.610622 0.000000
H916  H     H_    0.897494 0.049057 0.611265 0.000000
H917  H     H_    0.799790 0.977091 0.592112 0.000000
H918  H     H_    0.756383 0.024569 0.592611 0.000000
H919  H     H_    0.753924 0.126083 0.601481 0.000000
H920  H     H_    0.794888 0.181039 0.609153 0.000000
C829  C     C_3   0.802276 0.147485 0.723851 0.000000
N277  N     N_3   0.825616 0.179614 0.713377 0.000000
C830  C     C_3   0.817695 0.236560 0.706951 0.000000
C831  C     C_R   0.840030 0.270196 0.689699 0.000000
N278  N     N_R   0.847833 0.317905 0.713932 0.000000
C832  C     C_R   0.852679 0.352952 0.679950 0.000000
C833  C     C_R   0.859113 0.408136 0.683428 0.000000
C834  C     C_R   0.859113 0.437886 0.643574 0.000000
C835  C     C_R   0.852497 0.412461 0.601926 0.000000
C836  C     C_R   0.847206 0.356449 0.599419 0.000000
C837  C     C_R   0.849017 0.327216 0.638453 0.000000
N279  N     N_R   0.843440 0.273398 0.642911 0.000000
H921  H     H_    0.807135 0.102842 0.720662 0.000000
H922  H     H_    0.795787 0.157825 0.759323 0.000000
H923  H     H_    0.785941 0.156327 0.699801 0.000000
H924  H     H_    0.833963 0.164266 0.683276 0.000000
H925  H     H_    0.801587 0.238283 0.681235 0.000000
H926  H     H_    0.810355 0.255119 0.739665 0.000000
H927  H     H_    0.863694 0.428251 0.715808 0.000000
H928  H     H_    0.862913 0.481795 0.645024 0.000000
H929  H     H_    0.850828 0.436804 0.571559 0.000000
H930  H     H_    0.838797 0.337269 0.569331 0.000000
C838  C     C_3   0.944836 0.201601 0.674377 0.000000
N280  N     N_3   0.919378 0.205051 0.652251 0.000000
C839  C     C_3   0.915071 0.258423 0.632956 0.000000
C840  C     C_R   0.913872 0.245895 0.585537 0.000000
N281  N     N_R   0.935714 0.221783 0.564608 0.000000
C841  C     C_R   0.923806 0.184394 0.536912 0.000000
C842  C     C_R   0.934786 0.136985 0.523091 0.000000
C843  C     C_R   0.918781 0.095021 0.508202 0.000000
C844  C     C_R   0.891914 0.099518 0.508430 0.000000
C845  C     C_R   0.880705 0.147487 0.522869 0.000000
C846  C     C_R   0.897178 0.187744 0.539251 0.000000
N282  N     N_R   0.890077 0.225029 0.570494 0.000000
H931  H     H_    0.960179 0.194429 0.648527 0.000000
H932  H     H_    0.950140 0.239148 0.692930 0.000000
H933  H     H_    0.944264 0.168053 0.698861 0.000000
H934  H     H_    0.903539 0.191860 0.671331 0.000000
H935  H     H_    0.895683 0.275552 0.642128 0.000000
H936  H     H_    0.930410 0.287651 0.641486 0.000000
H937  H     H_    0.955229 0.132021 0.528973 0.000000
H938  H     H_    0.927147 0.058591 0.494793 0.000000
H939  H     H_    0.879906 0.065297 0.497940 0.000000
H940  H     H_    0.859725 0.149929 0.525899 0.000000
C847  C     C_3   0.896605 0.335872 0.503081 0.000000
N283  N     N_3   0.870950 0.310852 0.510121 0.000000
C848  C     C_3   0.866334 0.269388 0.474379 0.000000
C849  C     C_R   0.842476 0.237540 0.482727 0.000000
N284  N     N_R   0.832318 0.237020 0.526705 0.000000
C850  C     C_R   0.806719 0.249078 0.519469 0.000000
C851  C     C_R   0.788340 0.264815 0.551791 0.000000
C852  C     C_R   0.763667 0.281145 0.536661 0.000000
C853  C     C_R   0.758377 0.284274 0.490084 0.000000
C854  C     C_R   0.777647 0.271085 0.458013 0.000000
C855  C     C_R   0.801587 0.251875 0.473419 0.000000
N285  N     N_R   0.823706 0.241036 0.448727 0.000000
H941  H     H_    0.900258 0.366917 0.530979 0.000000
H942  H     H_    0.912432 0.304209 0.503656 0.000000
H943  H     H_    0.896701 0.357112 0.469970 0.000000
H944  H     H_    0.857372 0.342216 0.503391 0.000000
H945  H     H_    0.859905 0.292501 0.444280 0.000000
H946  H     H_    0.883667 0.242468 0.468533 0.000000
H947  H     H_    0.793318 0.267485 0.587755 0.000000
H948  H     H_    0.748762 0.293853 0.561263 0.000000
H949  H     H_    0.739380 0.299401 0.478790 0.000000
H950  H     H_    0.774143 0.278974 0.422475 0.000000
C856  C     C_3   0.847634 0.628141 0.672324 0.000000
N286  N     N_3   0.837294 0.646983 0.716537 0.000000
C857  C     C_3   0.859219 0.669035 0.743528 0.000000
C858  C     C_R   0.849972 0.693430 0.788339 0.000000
N287  N     N_R   0.837939 0.744574 0.785296 0.000000
C859  C     C_R   0.813215 0.733669 0.798137 0.000000
C860  C     C_R   0.791618 0.767529 0.793217 0.000000
C861  C     C_R   0.767137 0.746411 0.803731 0.000000
C862  C     C_R   0.764930 0.692812 0.819041 0.000000
C863  C     C_R   0.787141 0.660081 0.825055 0.000000
C864  C     C_R   0.811699 0.681663 0.815021 0.000000
N288  N     N_R   0.836131 0.657131 0.814975 0.000000
H951  H     H_    0.856537 0.663104 0.654129 0.000000
H952  H     H_    0.862750 0.595551 0.677139 0.000000
H953  H     H_    0.831279 0.610549 0.651234 0.000000
H954  H     H_    0.830880 0.611541 0.732373 0.000000
H955  H     H_    0.872387 0.634915 0.750070 0.000000
H956  H     H_    0.869106 0.700584 0.723613 0.000000
H957  H     H_    0.793614 0.808566 0.779955 0.000000
H958  H     H_    0.749603 0.771348 0.799331 0.000000
H959  H     H_    0.745652 0.676593 0.826942 0.000000
H960  H     H_    0.784760 0.618785 0.837471 0.000000
C865  C     C_3   0.900659 0.409916 0.899910 0.000000
N289  N     N_3   0.875623 0.418378 0.877977 0.000000
C866  C     C_3   0.879561 0.455474 0.841222 0.000000
C867  C     C_R   0.854384 0.462951 0.817497 0.000000
N290  N     N_R   0.842636 0.420417 0.793592 0.000000
C868  C     C_R   0.820769 0.443765 0.776928 0.000000
C869  C     C_R   0.801920 0.418838 0.749629 0.000000
C870  C     C_R   0.781695 0.451693 0.733630 0.000000
C871  C     C_R   0.781216 0.508003 0.744495 0.000000
C872  C     C_R   0.800492 0.531793 0.772410 0.000000
C873  C     C_R   0.819837 0.498518 0.789561 0.000000
N291  N     N_R   0.840817 0.512234 0.816575 0.000000
H961  H     H_    0.899123 0.372781 0.920423 0.000000
H962  H     H_    0.916305 0.406876 0.874393 0.000000
H963  H     H_    0.906277 0.444525 0.921938 0.000000
H964  H     H_    0.864618 0.441141 0.901763 0.000000
H965  H     H_    0.885609 0.493944 0.856578 0.000000
H966  H     H_    0.894746 0.441152 0.816607 0.000000
H967  H     H_    0.802909 0.375224 0.740662 0.000000
H968  H     H_    0.766547 0.433757 0.711720 0.000000
H969  H     H_    0.765818 0.533711 0.730535 0.000000
H970  H     H_    0.800899 0.575329 0.778110 0.000000
C874  C     C_3   0.929754 0.615462 0.985908 0.000000
N292  N     N_3   0.934435 0.593517 0.940085 0.000000
C875  C     C_3   0.917526 0.622583 0.908473 0.000000
C876  C     C_R   0.917617 0.595030 0.862688 0.000000
N293  N     N_R   0.940851 0.584021 0.838995 0.000000
C877  C     C_R   0.931758 0.563398 0.798820 0.000000
C878  C     C_R   0.946343 0.552532 0.760153 0.000000
C879  C     C_R   0.933424 0.536240 0.720713 0.000000
C880  C     C_R   0.906343 0.529389 0.720699 0.000000
C881  C     C_R   0.891734 0.542325 0.759481 0.000000
C882  C     C_R   0.904871 0.561587 0.798213 0.000000
N294  N     N_R   0.894741 0.583079 0.837960 0.000000
H971  H     H_    0.942753 0.594078 0.010290 0.000000
H972  H     H_    0.934276 0.660022 0.986936 0.000000
H973  H     H_    0.908975 0.608641 0.995612 0.000000
H974  H     H_    0.929710 0.552105 0.940099 0.000000
H975  H     H_    0.897163 0.628010 0.921650 0.000000
H976  H     H_    0.926310 0.662377 0.903392 0.000000
H977  H     H_    0.966920 0.562427 0.758575 0.000000
H978  H     H_    0.944572 0.531182 0.689476 0.000000
H979  H     H_    0.896468 0.517369 0.689277 0.000000
H980  H     H_    0.870578 0.541750 0.757018 0.000000
C883  C     C_3   0.220144 0.118674 0.337916 0.000000
N295  N     N_3   0.243994 0.127948 0.311988 0.000000
C884  C     C_3   0.253249 0.182041 0.326483 0.000000
C885  C     C_R   0.272254 0.202905 0.293175 0.000000
N296  N     N_R   0.295978 0.176412 0.282791 0.000000
C886  C     C_R   0.305456 0.209623 0.249931 0.000000
C887  C     C_R   0.330514 0.211912 0.232011 0.000000
C888  C     C_R   0.334959 0.245890 0.195666 0.000000
C889  C     C_R   0.314753 0.278235 0.179045 0.000000
C890  C     C_R   0.290559 0.279560 0.200583 0.000000
C891  C     C_R   0.287535 0.249171 0.238979 0.000000
N297  N     N_R   0.267174 0.249988 0.268298 0.000000
H981  H     H_    0.213022 0.076206 0.330677 0.000000
H982  H     H_    0.224203 0.124496 0.375019 0.000000
H983  H     H_    0.204818 0.148959 0.328661 0.000000
H984  H     H_    0.238965 0.128861 0.277409 0.000000
H985  H     H_    0.236186 0.210380 0.326890 0.000000
H986  H     H_    0.262704 0.179727 0.360586 0.000000
H987  H     H_    0.346853 0.190871 0.247103 0.000000
H988  H     H_    0.354202 0.246949 0.179934 0.000000
H989  H     H_    0.318378 0.304564 0.150729 0.000000
H990  H     H_    0.274322 0.302076 0.186447 0.000000
C892  C     C_3   0.349179 0.992115 0.340219 0.000000
N298  N     N_3   0.357502 0.993149 0.387564 0.000000
C893  C     C_3   0.336843 0.021072 0.413171 0.000000
C894  C     C_R   0.340107 0.081026 0.409104 0.000000
N299  N     N_R   0.351524 0.111745 0.444176 0.000000
C895  C     C_R   0.351011 0.162470 0.426654 0.000000
C896  C     C_R   0.359402 0.210307 0.446607 0.000000
C897  C     C_R   0.354068 0.258601 0.424687 0.000000
C898  C     C_R   0.344057 0.257860 0.381182 0.000000
C899  C     C_R   0.337820 0.208929 0.359858 0.000000
C900  C     C_R   0.340089 0.162124 0.384236 0.000000
N300  N     N_R   0.332890 0.111301 0.370878 0.000000
H991  H     H_    0.365820 0.977973 0.318738 0.000000
H992  H     H_    0.330776 0.968098 0.336997 0.000000
H993  H     H_    0.344106 0.032516 0.327702 0.000000
H994  H     H_    0.374559 0.017162 0.390517 0.000000
H995  H     H_    0.317283 0.008978 0.400192 0.000000
H996  H     H_    0.338657 0.010434 0.449650 0.000000
H997  H     H_    0.369798 0.210144 0.478113 0.000000
H998  H     H_    0.357401 0.297638 0.441195 0.000000
H999  H     H_    0.340210 0.295855 0.364816 0.000000
H1000 H     H_    0.332076 0.208455 0.325176 0.000000
C901  C     C_3   0.288090 0.978303 0.147756 0.000000
N301  N     N_3   0.283103 0.009554 0.190181 0.000000
C902  C     C_3   0.296283 0.983368 0.228191 0.000000
C903  C     C_R   0.281413 0.993287 0.271197 0.000000
N302  N     N_R   0.289554 0.035514 0.301379 0.000000
C904  C     C_R   0.273622 0.027841 0.337301 0.000000
C905  C     C_R   0.272898 0.057979 0.378009 0.000000
C906  C     C_R   0.254632 0.043469 0.410607 0.000000
C907  C     C_R   0.236135 0.002788 0.400466 0.000000
C908  C     C_R   0.236642 0.974780 0.358545 0.000000
C909  C     C_R   0.256402 0.985569 0.328456 0.000000
N303  N     N_R   0.260556 0.960618 0.287029 0.000000
H1001 H     H_    0.276549 0.996697 0.119660 0.000000
H1002 H     H_    0.309137 0.981488 0.138629 0.000000
H1003 H     H_    0.282668 0.934224 0.150917 0.000000
H1004 H     H_    0.263013 0.013504 0.196521 0.000000
H1005 H     H_    0.300653 0.939976 0.221097 0.000000
H1006 H     H_    0.315679 0.002743 0.233842 0.000000
H1007 H     H_    0.285623 0.092800 0.384460 0.000000
H1008 H     H_    0.253733 0.066274 0.442960 0.000000
H1009 H     H_    0.220692 0.994289 0.424746 0.000000
H1010 H     H_    0.220965 0.948197 0.348335 0.000000
C910  C     C_3   0.456160 0.170597 0.400896 0.000000
N304  N     N_3   0.453189 0.150642 0.446880 0.000000
C911  C     C_3   0.426358 0.131507 0.453286 0.000000
C912  C     C_R   0.425388 0.104311 0.498105 0.000000
N305  N     N_R   0.447852 0.093304 0.523314 0.000000
C913  C     C_R   0.438037 0.084641 0.565275 0.000000
C914  C     C_R   0.451736 0.076479 0.605268 0.000000
C915  C     C_R   0.437506 0.075226 0.645728 0.000000
C916  C     C_R   0.410051 0.077389 0.645033 0.000000
C917  C     C_R   0.396598 0.082332 0.603991 0.000000
C918  C     C_R   0.411274 0.088875 0.564961 0.000000
N306  N     N_R   0.402399 0.099360 0.522498 0.000000
H1011 H     H_    0.474848 0.194104 0.399196 0.000000
H1012 H     H_    0.457171 0.135566 0.376023 0.000000
H1013 H     H_    0.439329 0.197350 0.392244 0.000000
H1014 H     H_    0.456767 0.183230 0.470172 0.000000
H1015 H     H_    0.412699 0.167107 0.454142 0.000000
H1016 H     H_    0.420181 0.102728 0.425097 0.000000
H1017 H     H_    0.472969 0.074997 0.606065 0.000000
H1018 H     H_    0.447788 0.070723 0.677906 0.000000
H1019 H     H_    0.399140 0.074707 0.676653 0.000000
H1020 H     H_    0.375295 0.084698 0.603409 0.000000
C919  C     C_3   0.429138 0.209252 0.578826 0.000000
N307  N     N_3   0.404471 0.222157 0.558288 0.000000
C920  C     C_3   0.383406 0.217384 0.590342 0.000000
C921  C     C_R   0.359452 0.218314 0.564405 0.000000
N308  N     N_R   0.345112 0.266113 0.563852 0.000000
C922  C     C_R   0.321616 0.247208 0.547541 0.000000
C923  C     C_R   0.297253 0.272152 0.549940 0.000000
C924  C     C_R   0.275472 0.242662 0.534148 0.000000
C925  C     C_R   0.278498 0.190344 0.513886 0.000000
C926  C     C_R   0.303082 0.165422 0.512248 0.000000
C927  C     C_R   0.323663 0.192871 0.533545 0.000000
N309  N     N_R   0.347765 0.172745 0.543596 0.000000
H1021 H     H_    0.438045 0.246310 0.593793 0.000000
H1022 H     H_    0.426167 0.180411 0.606561 0.000000
H1023 H     H_    0.442264 0.193602 0.551501 0.000000
H1024 H     H_    0.401066 0.196487 0.530126 0.000000
H1025 H     H_    0.384152 0.181214 0.611972 0.000000
H1026 H     H_    0.382037 0.254692 0.612000 0.000000
H1027 H     H_    0.294562 0.311168 0.566900 0.000000
H1028 H     H_    0.256031 0.261166 0.536525 0.000000
H1029 H     H_    0.261479 0.168546 0.500186 0.000000
H1030 H     H_    0.305441 0.124071 0.497775 0.000000
C928  C     C_3   0.426374 0.955185 0.600925 0.000000
N310  N     N_3   0.398873 0.945744 0.588856 0.000000
C929  C     C_3   0.392062 0.964777 0.543051 0.000000
C930  C     C_R   0.363227 0.974301 0.542835 0.000000
N311  N     N_R   0.347557 0.934072 0.560482 0.000000
C931  C     C_R   0.324902 0.961372 0.569437 0.000000
C932  C     C_R   0.302953 0.941412 0.590787 0.000000
C933  C     C_R   0.283055 0.978404 0.602475 0.000000
C934  C     C_R   0.286214 0.034398 0.594949 0.000000
C935  C     C_R   0.308696 0.053465 0.573741 0.000000
C936  C     C_R   0.327106 0.015652 0.558438 0.000000
N312  N     N_R   0.350827 0.025485 0.539166 0.000000
H1031 H     H_    0.427434 0.971342 0.636587 0.000000
H1032 H     H_    0.438145 0.917332 0.600913 0.000000
H1033 H     H_    0.435721 0.981657 0.576422 0.000000
H1034 H     H_    0.387699 0.968881 0.612482 0.000000
H1035 H     H_    0.403012 0.999951 0.532108 0.000000
H1036 H     H_    0.397332 0.934121 0.516979 0.000000
H1037 H     H_    0.301568 0.898693 0.599477 0.000000
H1038 H     H_    0.265618 0.964091 0.619770 0.000000
H1039 H     H_    0.271412 0.063571 0.607134 0.000000
H1040 H     H_    0.312556 0.096795 0.573366 0.000000
C937  C     C_3   0.912976 0.687088 0.779513 0.000000
N313  N     N_3   0.938125 0.700846 0.798057 0.000000
C938  C     C_3   0.958152 0.694591 0.764352 0.000000
C939  C     C_R   0.982592 0.700650 0.789554 0.000000
N314  N     N_R   0.995732 0.749638 0.789739 0.000000
C940  C     C_R   0.019075 0.735960 0.808635 0.000000
C941  C     C_R   0.041824 0.766547 0.810537 0.000000
C942  C     C_R   0.064475 0.740649 0.826117 0.000000
C943  C     C_R   0.063686 0.686914 0.841889 0.000000
C944  C     C_R   0.040332 0.657363 0.840916 0.000000
C945  C     C_R   0.018514 0.682483 0.822734 0.000000
N315  N     N_R   0.994926 0.659276 0.813155 0.000000
H1041 H     H_    0.904847 0.723649 0.763610 0.000000
H1042 H     H_    0.914811 0.653509 0.753365 0.000000
H1043 H     H_    0.899900 0.677358 0.808155 0.000000
H1044 H     H_    0.942821 0.678218 0.826333 0.000000
H1045 H     H_    0.957705 0.654465 0.745721 0.000000
H1046 H     H_    0.956629 0.728617 0.739875 0.000000
H1047 H     H_    0.042636 0.807635 0.797178 0.000000
H1048 H     H_    0.083136 0.761895 0.825149 0.000000
H1049 H     H_    0.081574 0.667717 0.854197 0.000000
H1050 H     H_    0.039773 0.614944 0.851272 0.000000
C946  C     C_3   0.968628 0.480345 0.922603 0.000000
N316  N     N_3   0.958041 0.492984 0.878101 0.000000
C947  C     C_3   0.963006 0.448318 0.845226 0.000000
C948  C     C_R   0.984385 0.462829 0.814533 0.000000
N317  N     N_R   0.995017 0.515047 0.812157 0.000000
C949  C     C_R   0.011460 0.509069 0.775976 0.000000
C950  C     C_R   0.025798 0.549253 0.755070 0.000000
C951  C     C_R   0.039742 0.534520 0.715873 0.000000
C952  C     C_R   0.038509 0.480938 0.697575 0.000000
C953  C     C_R   0.023309 0.441358 0.718239 0.000000
C954  C     C_R   0.010160 0.456299 0.757750 0.000000
N318  N     N_R   0.993214 0.425582 0.781764 0.000000
H1051 H     H_    0.972485 0.518185 0.942606 0.000000
H1052 H     H_    0.952862 0.462896 0.943237 0.000000
H1053 H     H_    0.986829 0.455251 0.919143 0.000000
H1054 H     H_    0.937632 0.493850 0.881864 0.000000
H1055 H     H_    0.968684 0.409469 0.861286 0.000000
H1056 H     H_    0.945117 0.442053 0.823916 0.000000
H1057 H     H_    0.026102 0.591182 0.767936 0.000000
H1058 H     H_    0.051291 0.565302 0.698846 0.000000
H1059 H     H_    0.049094 0.470338 0.666421 0.000000
H1060 H     H_    0.021545 0.400703 0.702917 0.000000
C955  C     C_3   0.934939 0.789681 0.565672 0.000000
N319  N     N_3   0.932363 0.849271 0.563716 0.000000
C956  C     C_3   0.923938 0.872993 0.607916 0.000000
C957  C     C_R   0.921657 0.933451 0.602725 0.000000
N320  N     N_R   0.944419 0.955649 0.585057 0.000000
C958  C     C_R   0.935995 0.972240 0.545036 0.000000
C959  C     C_R   0.951804 0.974616 0.508674 0.000000
C960  C     C_R   0.942071 0.959340 0.466737 0.000000
C961  C     C_R   0.915710 0.946569 0.464133 0.000000
C962  C     C_R   0.899335 0.961657 0.499238 0.000000
C963  C     C_R   0.909634 0.969481 0.541524 0.000000
N321  N     N_R   0.899051 0.950974 0.580207 0.000000
H1061 H     H_    0.939789 0.772650 0.531074 0.000000
H1062 H     H_    0.951275 0.778891 0.589092 0.000000
H1063 H     H_    0.915972 0.771700 0.576218 0.000000
H1064 H     H_    0.917858 0.857107 0.539444 0.000000
H1065 H     H_    0.904554 0.856054 0.617581 0.000000
H1066 H     H_    0.939674 0.865047 0.632858 0.000000
H1067 H     H_    0.970462 0.991597 0.514463 0.000000
H1068 H     H_    0.954631 0.959036 0.436984 0.000000
H1069 H     H_    0.906802 0.928041 0.434524 0.000000
H1070 H     H_    0.879365 0.964320 0.492622 0.000000
C964  C     C_3   0.933341 0.970476 0.766988 0.000000
N322  N     N_3   0.941410 0.942781 0.724445 0.000000
C965  C     C_3   0.969931 0.943350 0.721932 0.000000
C966  C     C_R   0.980266 0.898764 0.690847 0.000000
N323  N     N_R   0.987240 0.849589 0.710208 0.000000
C967  C     C_R   0.004265 0.827363 0.679375 0.000000
C968  C     C_R   0.019358 0.780431 0.683507 0.000000
C969  C     C_R   0.038658 0.769788 0.650918 0.000000
C970  C     C_R   0.043328 0.807071 0.616537 0.000000
C971  C     C_R   0.028216 0.854641 0.613446 0.000000
C972  C     C_R   0.007918 0.862558 0.644043 0.000000
N324  N     N_R   0.992084 0.907404 0.648455 0.000000
H1071 H     H_    0.911485 0.971976 0.768512 0.000000
H1072 H     H_    0.940407 0.946835 0.796667 0.000000
H1073 H     H_    0.941308 0.013147 0.768700 0.000000
H1074 H     H_    0.933700 0.964493 0.697308 0.000000
H1075 H     H_    0.977326 0.982895 0.711805 0.000000
H1076 H     H_    0.977769 0.936334 0.756422 0.000000
H1077 H     H_    0.016595 0.752626 0.711153 0.000000
H1078 H     H_    0.050816 0.733100 0.653180 0.000000
H1079 H     H_    0.059200 0.799367 0.592474 0.000000
H1080 H     H_    0.032858 0.885209 0.588575 0.000000
C973  C     C_3   0.973373 0.082884 0.688061 0.000000
N325  N     N_3   0.951876 0.061218 0.659091 0.000000
C974  C     C_3   0.951550 0.084669 0.613696 0.000000
C975  C     C_R   0.978362 0.087542 0.595694 0.000000
N326  N     N_R   0.990963 0.137973 0.591526 0.000000
C976  C     C_R   0.016381 0.123199 0.598278 0.000000
C977  C     C_R   0.038033 0.156928 0.600171 0.000000
C978  C     C_R   0.061621 0.134391 0.615185 0.000000
C979  C     C_R   0.063115 0.079026 0.626953 0.000000
C980  C     C_R   0.041465 0.044522 0.621338 0.000000
C981  C     C_R   0.018489 0.067492 0.605610 0.000000
N327  N     N_R   0.994849 0.042676 0.600259 0.000000
H1081 H     H_    0.991131 0.056362 0.685657 0.000000
H1082 H     H_    0.980054 0.124108 0.678618 0.000000
H1083 H     H_    0.966746 0.084639 0.724239 0.000000
H1084 H     H_    0.955423 0.019289 0.653720 0.000000
H1085 H     H_    0.939506 0.059227 0.590763 0.000000
H1086 H     H_    0.942295 0.125102 0.614160 0.000000
H1087 H     H_    0.036627 0.199704 0.591081 0.000000
H1088 H     H_    0.078949 0.160241 0.618347 0.000000
H1089 H     H_    0.081563 0.062402 0.639385 0.000000
H1090 H     H_    0.042477 0.001353 0.629945 0.000000
C982  C     C_3   0.071838 0.047709 0.516721 0.000000
N328  N     N_3   0.054833 0.999376 0.516078 0.000000
C983  C     C_3   0.029087 0.013964 0.497638 0.000000
C984  C     C_R   0.013596 0.963008 0.490561 0.000000
N329  N     N_R   0.014737 0.934995 0.448674 0.000000
C985  C     C_R   0.010595 0.882743 0.461448 0.000000
C986  C     C_R   0.014905 0.835302 0.435755 0.000000
C987  C     C_R   0.009271 0.785378 0.455632 0.000000
C988  C     C_R   0.998726 0.784204 0.499552 0.000000
C989  C     C_R   0.995069 0.832668 0.525211 0.000000
C990  C     C_R   0.002804 0.881245 0.506398 0.000000
N330  N     N_R   0.004018 0.932057 0.526731 0.000000
H1091 H     H_    0.086860 0.043801 0.544138 0.000000
H1092 H     H_    0.082346 0.049962 0.483635 0.000000
H1093 H     H_    0.060034 0.085931 0.522542 0.000000
H1094 H     H_    0.052617 0.985084 0.549092 0.000000
H1095 H     H_    0.018515 0.044050 0.519728 0.000000
H1096 H     H_    0.032001 0.030767 0.463621 0.000000
H1097 H     H_    0.022493 0.836888 0.401283 0.000000
H1098 H     H_    0.012273 0.747099 0.436276 0.000000
H1099 H     H_    0.993574 0.745019 0.513994 0.000000
H1100 H     H_    0.987178 0.831858 0.559338 0.000000
C991  C     C_3   0.412431 0.716590 0.654128 0.000000
N331  N     N_3   0.420459 0.749405 0.616368 0.000000
C992  C     C_3   0.417145 0.807987 0.624876 0.000000
C993  C     C_R   0.417600 0.829777 0.579667 0.000000
N332  N     N_R   0.440679 0.828495 0.554763 0.000000
C994  C     C_R   0.431028 0.827693 0.511098 0.000000
C995  C     C_R   0.444312 0.830651 0.470017 0.000000
C996  C     C_R   0.430341 0.841104 0.430481 0.000000
C997  C     C_R   0.403560 0.851270 0.432719 0.000000
C998  C     C_R   0.390516 0.845707 0.473514 0.000000
C999  C     C_R   0.404237 0.831954 0.511447 0.000000
N333  N     N_R   0.394871 0.834549 0.554309 0.000000
H1101 H     H_    0.407033 0.675769 0.639230 0.000000
H1102 H     H_    0.428808 0.712162 0.678322 0.000000
H1103 H     H_    0.395562 0.734722 0.672464 0.000000
H1104 H     H_    0.408277 0.738690 0.588725 0.000000
H1105 H     H_    0.398149 0.818221 0.640921 0.000000
H1106 H     H_    0.433984 0.825858 0.643762 0.000000
H1107 H     H_    0.465334 0.829164 0.468247 0.000000
H1108 H     H_    0.440720 0.846029 0.398561 0.000000
H1109 H     H_    0.393186 0.867005 0.403552 0.000000
H1110 H     H_    0.371343 0.861581 0.478676 0.000000
C1000 C     C_3   0.291901 0.932187 0.454113 0.000000
N334  N     N_3   0.308874 0.899246 0.482988 0.000000
C1001 C     C_3   0.322793 0.858133 0.454623 0.000000
C1002 C     C_R   0.328828 0.807546 0.481618 0.000000
N335  N     N_R   0.330521 0.811745 0.528670 0.000000
C1003 C     C_R   0.311069 0.778108 0.542206 0.000000
C1004 C     C_R   0.296993 0.781941 0.582612 0.000000
C1005 C     C_R   0.274623 0.749961 0.586877 0.000000
C1006 C     C_R   0.265252 0.719015 0.549730 0.000000
C1007 C     C_R   0.278362 0.719675 0.508354 0.000000
C1008 C     C_R   0.301948 0.747801 0.505836 0.000000
N336  N     N_R   0.314472 0.762993 0.467324 0.000000
H1111 H     H_    0.292253 0.975809 0.466864 0.000000
H1112 H     H_    0.298359 0.929598 0.417916 0.000000
H1113 H     H_    0.271329 0.917190 0.456279 0.000000
H1114 H     H_    0.295952 0.878753 0.504415 0.000000
H1115 H     H_    0.309269 0.843484 0.427313 0.000000
H1116 H     H_    0.339623 0.876910 0.436932 0.000000
H1117 H     H_    0.302949 0.808716 0.610696 0.000000
H1118 H     H_    0.263670 0.751309 0.618618 0.000000
H1119 H     H_    0.246797 0.696980 0.552323 0.000000
H1120 H     H_    0.269048 0.702854 0.477743 0.000000
C1009 C     C_3   0.414089 0.901621 0.741534 0.000000
N337  N     N_3   0.423967 0.853947 0.765463 0.000000
C1010 C     C_3   0.420721 0.805667 0.735209 0.000000
C1011 C     C_R   0.419012 0.753604 0.760920 0.000000
N338  N     N_R   0.440534 0.727456 0.780287 0.000000
C1012 C     C_R   0.428506 0.695579 0.810125 0.000000
C1013 C     C_R   0.439230 0.671380 0.846473 0.000000
C1014 C     C_R   0.424235 0.632241 0.866792 0.000000
C1015 C     C_R   0.397691 0.626960 0.855840 0.000000
C1016 C     C_R   0.385953 0.663493 0.828336 0.000000
C1017 C     C_R   0.402251 0.695470 0.803931 0.000000
N339  N     N_R   0.395114 0.730324 0.772154 0.000000
H1121 H     H_    0.421920 0.901257 0.706093 0.000000
H1122 H     H_    0.392356 0.901060 0.740722 0.000000
H1123 H     H_    0.420695 0.939946 0.759862 0.000000
H1124 H     H_    0.444114 0.861265 0.767807 0.000000
H1125 H     H_    0.402048 0.810674 0.716336 0.000000
H1126 H     H_    0.437970 0.802149 0.712756 0.000000
H1127 H     H_    0.459117 0.678915 0.856008 0.000000
H1128 H     H_    0.433799 0.605524 0.890320 0.000000
H1129 H     H_    0.384983 0.597175 0.870210 0.000000
H1130 H     H_    0.364995 0.661847 0.823769 0.000000
C1018 C     C_3   0.492458 0.599165 0.879240 0.000000
N340  N     N_3   0.493967 0.611711 0.832444 0.000000
C1019 C     C_3   0.475756 0.576031 0.809300 0.000000
C1020 C     C_R   0.481474 0.583706 0.763445 0.000000
N341  N     N_R   0.491094 0.634797 0.751776 0.000000
C1021 C     C_R   0.511719 0.619913 0.725153 0.000000
C1022 C     C_R   0.532337 0.653067 0.712935 0.000000
C1023 C     C_R   0.553164 0.628520 0.689422 0.000000
C1024 C     C_R   0.553285 0.571901 0.679740 0.000000
C1025 C     C_R   0.532948 0.538508 0.694462 0.000000
C1026 C     C_R   0.512641 0.563416 0.718539 0.000000
N342  N     N_R   0.493732 0.539126 0.743692 0.000000
H1131 H     H_    0.489070 0.638585 0.897296 0.000000
H1132 H     H_    0.475882 0.571076 0.885183 0.000000
H1133 H     H_    0.511370 0.581079 0.889854 0.000000
H1134 H     H_    0.512625 0.597802 0.822304 0.000000
H1135 H     H_    0.481617 0.533670 0.816209 0.000000
H1136 H     H_    0.454947 0.583463 0.814897 0.000000
H1137 H     H_    0.532397 0.696829 0.721526 0.000000
H1138 H     H_    0.569557 0.653544 0.678692 0.000000
H1139 H     H_    0.569961 0.553749 0.661876 0.000000
H1140 H     H_    0.533629 0.494147 0.688922 0.000000
C1027 C     C_3   0.583463 0.703552 0.826244 0.000000
N343  N     N_3   0.563175 0.723013 0.857970 0.000000
C1028 C     C_3   0.540178 0.687707 0.851839 0.000000
C1029 C     C_R   0.516496 0.717385 0.869856 0.000000
N344  N     N_R   0.514637 0.739858 0.914528 0.000000
C1030 C     C_R   0.497115 0.780888 0.907774 0.000000
C1031 C     C_R   0.495082 0.829147 0.932758 0.000000
C1032 C     C_R   0.479693 0.871554 0.915453 0.000000
C1033 C     C_R   0.465285 0.863399 0.875591 0.000000
C1034 C     C_R   0.468471 0.815033 0.850309 0.000000
C1035 C     C_R   0.486327 0.777291 0.865084 0.000000
N345  N     N_R   0.497720 0.737074 0.839472 0.000000
H1141 H     H_    0.602451 0.723941 0.835233 0.000000
H1142 H     H_    0.585909 0.658163 0.828519 0.000000
H1143 H     H_    0.577909 0.714108 0.790740 0.000000
H1144 H     H_    0.557765 0.762798 0.848434 0.000000
H1145 H     H_    0.537135 0.679291 0.814706 0.000000
H1146 H     H_    0.543007 0.648161 0.869002 0.000000
H1147 H     H_    0.507885 0.835665 0.961467 0.000000
H1148 H     H_    0.479026 0.911842 0.932217 0.000000
H1149 H     H_    0.452955 0.896172 0.862800 0.000000
H1150 H     H_    0.459742 0.809591 0.817481 0.000000
C1036 C     C_3   0.492964 0.629082 0.613077 0.000000
N346  N     N_3   0.501977 0.680414 0.635345 0.000000
C1037 C     C_3   0.479159 0.708855 0.654539 0.000000
C1038 C     C_R   0.486064 0.764011 0.674150 0.000000
N347  N     N_R   0.490170 0.771051 0.720727 0.000000
C1039 C     C_R   0.492266 0.826306 0.725574 0.000000
C1040 C     C_R   0.498924 0.856674 0.764206 0.000000
C1041 C     C_R   0.496380 0.913609 0.763063 0.000000
C1042 C     C_R   0.486729 0.938414 0.724049 0.000000
C1043 C     C_R   0.481614 0.907015 0.684660 0.000000
C1044 C     C_R   0.486591 0.851151 0.685290 0.000000
N348  N     N_R   0.483772 0.813254 0.650686 0.000000
H1151 H     H_    0.503989 0.593598 0.626667 0.000000
H1152 H     H_    0.471721 0.622740 0.619255 0.000000
H1153 H     H_    0.496298 0.630136 0.575665 0.000000
H1154 H     H_    0.510405 0.705459 0.611130 0.000000
H1155 H     H_    0.464211 0.714220 0.628348 0.000000
H1156 H     H_    0.471033 0.684116 0.682255 0.000000
H1157 H     H_    0.506760 0.837065 0.793977 0.000000
H1158 H     H_    0.501181 0.938726 0.793143 0.000000
H1159 H     H_    0.483621 0.982683 0.724140 0.000000
H1160 H     H_    0.473637 0.926179 0.654870 0.000000
C1045 C     C_3   0.429916 0.601328 0.699788 0.000000
N349  N     N_3   0.401703 0.611417 0.702594 0.000000
C1046 C     C_3   0.392756 0.582474 0.741728 0.000000
C1047 C     C_R   0.364087 0.590647 0.750657 0.000000
N350  N     N_R   0.349515 0.639145 0.746186 0.000000
C1048 C     C_R   0.324811 0.619104 0.740509 0.000000
C1049 C     C_R   0.302214 0.647791 0.730590 0.000000
C1050 C     C_R   0.278820 0.618381 0.726891 0.000000
C1051 C     C_R   0.278453 0.561515 0.733157 0.000000
C1052 C     C_R   0.301595 0.533055 0.742234 0.000000
C1053 C     C_R   0.324477 0.563109 0.745120 0.000000
N351  N     N_R   0.348914 0.544236 0.753328 0.000000
H1161 H     H_    0.436460 0.606271 0.664106 0.000000
H1162 H     H_    0.440092 0.631605 0.722610 0.000000
H1163 H     H_    0.434876 0.558684 0.709937 0.000000
H1164 H     H_    0.393461 0.590560 0.674267 0.000000
H1165 H     H_    0.394255 0.538898 0.731156 0.000000
H1166 H     H_    0.405756 0.590332 0.771353 0.000000
H1167 H     H_    0.302934 0.690999 0.723134 0.000000
H1168 H     H_    0.260704 0.639774 0.718639 0.000000
H1169 H     H_    0.260011 0.539258 0.730275 0.000000
H1170 H     H_    0.301642 0.488847 0.746676 0.000000
C1054 C     C_3   0.410526 0.298962 0.796960 0.000000
N352  N     N_3   0.414814 0.358232 0.800328 0.000000
C1055 C     C_3   0.420101 0.380381 0.755340 0.000000
C1056 C     C_R   0.422446 0.440608 0.761308 0.000000
N353  N     N_R   0.400139 0.465529 0.778903 0.000000
C1057 C     C_R   0.409234 0.490789 0.816533 0.000000
C1058 C     C_R   0.394132 0.496229 0.853437 0.000000
C1059 C     C_R   0.402761 0.472797 0.892272 0.000000
C1060 C     C_R   0.429159 0.463228 0.897301 0.000000
C1061 C     C_R   0.445873 0.478611 0.863216 0.000000
C1062 C     C_R   0.435478 0.484479 0.820477 0.000000
N354  N     N_R   0.445194 0.459120 0.782726 0.000000
H1171 H     H_    0.429367 0.277535 0.788795 0.000000
H1172 H     H_    0.403641 0.284469 0.830550 0.000000
H1173 H     H_    0.395132 0.289228 0.770961 0.000000
H1174 H     H_    0.431577 0.364302 0.820406 0.000000
H1175 H     H_    0.439064 0.364301 0.741953 0.000000
H1176 H     H_    0.402884 0.372071 0.733250 0.000000
H1177 H     H_    0.374894 0.509941 0.848801 0.000000
H1178 H     H_    0.389012 0.463516 0.918324 0.000000
H1179 H     H_    0.436616 0.445291 0.928101 0.000000
H1180 H     H_    0.466306 0.477619 0.869032 0.000000
C1063 C     C_3   0.369880 0.511463 0.587061 0.000000
N355  N     N_3   0.375429 0.457340 0.605043 0.000000
C1064 C     C_3   0.375341 0.462070 0.654620 0.000000
C1065 C     C_R   0.361192 0.414130 0.673005 0.000000
N356  N     N_R   0.352581 0.369965 0.645968 0.000000
C1066 C     C_R   0.335318 0.345180 0.674214 0.000000
C1067 C     C_R   0.319905 0.299287 0.665875 0.000000
C1068 C     C_R   0.301533 0.285081 0.698459 0.000000
C1069 C     C_R   0.298248 0.317421 0.738014 0.000000
C1070 C     C_R   0.314203 0.362831 0.746332 0.000000
C1071 C     C_R   0.333526 0.373861 0.715011 0.000000
N357  N     N_R   0.350758 0.415926 0.716443 0.000000
H1181 H     H_    0.372917 0.509725 0.549693 0.000000
H1182 H     H_    0.348987 0.522636 0.593720 0.000000
H1183 H     H_    0.383419 0.542748 0.602571 0.000000
H1184 H     H_    0.394384 0.445994 0.594836 0.000000
H1185 H     H_    0.395728 0.464059 0.668196 0.000000
H1186 H     H_    0.364592 0.500101 0.665760 0.000000
H1187 H     H_    0.321741 0.274195 0.635558 0.000000
H1188 H     H_    0.289127 0.249292 0.692403 0.000000
H1189 H     H_    0.283098 0.307194 0.762348 0.000000
H1190 H     H_    0.310858 0.389584 0.775852 0.000000
C1072 C     C_3   0.300063 0.614200 0.856175 0.000000
N358  N     N_3   0.300742 0.556064 0.866959 0.000000
C1073 C     C_3   0.328263 0.539738 0.866401 0.000000
C1074 C     C_R   0.331447 0.478946 0.871078 0.000000
N359  N     N_R   0.327715 0.450995 0.911633 0.000000
C1075 C     C_R   0.331789 0.398279 0.897401 0.000000
C1076 C     C_R   0.327840 0.351620 0.921922 0.000000
C1077 C     C_R   0.334403 0.301145 0.901217 0.000000
C1078 C     C_R   0.345549 0.298738 0.857705 0.000000
C1079 C     C_R   0.349119 0.346472 0.833378 0.000000
C1080 C     C_R   0.340718 0.395536 0.853124 0.000000
N360  N     N_R   0.341016 0.446127 0.834833 0.000000
H1191 H     H_    0.279409 0.629051 0.855138 0.000000
H1192 H     H_    0.312177 0.638023 0.881327 0.000000
H1193 H     H_    0.308576 0.620714 0.822471 0.000000
H1194 H     H_    0.291196 0.534209 0.840416 0.000000
H1195 H     H_    0.336799 0.551244 0.833736 0.000000
H1196 H     H_    0.339378 0.562521 0.892571 0.000000
H1197 H     H_    0.320088 0.354185 0.956301 0.000000
H1198 H     H_    0.331673 0.263473 0.919687 0.000000
H1199 H     H_    0.351349 0.259207 0.842615 0.000000
H1200 H     H_    0.357720 0.344925 0.799643 0.000000
C1081 C     C_3   0.284740 0.906781 0.030241 0.000000
N361  N     N_3   0.265645 0.862454 0.034200 0.000000
C1082 C     C_3   0.277777 0.818253 0.059767 0.000000
C1083 C     C_R   0.268867 0.763991 0.040014 0.000000
N362  N     N_R   0.244188 0.740535 0.048085 0.000000
C1084 C     C_R   0.241092 0.707582 0.010858 0.000000
C1085 C     C_R   0.218541 0.679801 0.997813 0.000000
C1086 C     C_R   0.218953 0.650513 0.956616 0.000000
C1087 C     C_R   0.241953 0.647513 0.930951 0.000000
C1088 C     C_R   0.264575 0.674703 0.945795 0.000000
C1089 C     C_R   0.263271 0.706696 0.984850 0.000000
N363  N     N_R   0.281997 0.740725 0.002721 0.000000
H1201 H     H_    0.300139 0.894544 0.004888 0.000000
H1202 H     H_    0.274485 0.944376 0.018330 0.000000
H1203 H     H_    0.293974 0.916200 0.064014 0.000000
H1204 H     H_    0.261667 0.847218 0.001095 0.000000
H1205 H     H_    0.299257 0.821607 0.055015 0.000000
H1206 H     H_    0.273026 0.822275 0.096644 0.000000
H1207 H     H_    0.200852 0.681728 0.018323 0.000000
H1208 H     H_    0.201316 0.629711 0.944452 0.000000
H1209 H     H_    0.241945 0.624294 0.898858 0.000000
H1210 H     H_    0.282377 0.673654 0.926489 0.000000
C1090 C     C_3   0.537830 0.294188 0.082384 0.000000
N364  N     N_3   0.539025 0.348803 0.063210 0.000000
C1091 C     C_3   0.566354 0.364909 0.065378 0.000000
C1092 C     C_R   0.569964 0.421783 0.048932 0.000000
N365  N     N_R   0.561227 0.430745 0.004673 0.000000
C1093 C     C_R   0.582946 0.452432 0.985822 0.000000
C1094 C     C_R   0.590924 0.446618 0.941045 0.000000
C1095 C     C_R   0.615160 0.468509 0.929273 0.000000
C1096 C     C_R   0.631407 0.492426 0.962700 0.000000
C1097 C     C_R   0.624507 0.489628 0.008342 0.000000
C1098 C     C_R   0.601047 0.465999 0.018577 0.000000
N366  N     N_R   0.593750 0.448091 0.059607 0.000000
H1211 H     H_    0.518751 0.274920 0.073390 0.000000
H1212 H     H_    0.553738 0.267283 0.068063 0.000000
H1213 H     H_    0.540003 0.297991 0.120101 0.000000
H1214 H     H_    0.528409 0.376001 0.084625 0.000000
H1215 H     H_    0.573642 0.360168 0.100253 0.000000
H1216 H     H_    0.578026 0.337016 0.042325 0.000000
H1217 H     H_    0.578921 0.424831 0.915848 0.000000
H1218 H     H_    0.621469 0.466833 0.893920 0.000000
H1219 H     H_    0.650096 0.510264 0.953244 0.000000
H1220 H     H_    0.636654 0.505112 0.035784 0.000000
C1099 C     C_3   0.520862 0.556127 0.090411 0.000000
N367  N     N_3   0.543605 0.540399 0.063073 0.000000
C1100 C     C_3   0.550551 0.582255 0.029757 0.000000
C1101 C     C_R   0.531077 0.582582 0.993425 0.000000
N368  N     N_R   0.517988 0.534066 0.983047 0.000000
C1102 C     C_R   0.494379 0.552428 0.973140 0.000000
C1103 C     C_R   0.473543 0.520466 0.965010 0.000000
C1104 C     C_R   0.450262 0.545648 0.973381 0.000000
C1105 C     C_R   0.448662 0.602116 0.982421 0.000000
C1106 C     C_R   0.469710 0.635168 0.975317 0.000000
C1107 C     C_R   0.493075 0.608335 0.976336 0.000000
N369  N     N_R   0.516651 0.630042 0.985202 0.000000
H1221 H     H_    0.503497 0.557352 0.068081 0.000000
H1222 H     H_    0.517222 0.523620 0.115645 0.000000
H1223 H     H_    0.524537 0.595736 0.109346 0.000000
H1224 H     H_    0.538905 0.502786 0.047783 0.000000
H1225 H     H_    0.550457 0.623573 0.046811 0.000000
H1226 H     H_    0.569977 0.572740 0.013995 0.000000
H1227 H     H_    0.475269 0.476441 0.960167 0.000000
H1228 H     H_    0.433669 0.519478 0.975011 0.000000
H1229 H     H_    0.431558 0.620631 0.997513 0.000000
H1230 H     H_    0.468092 0.679492 0.976596 0.000000
C1108 C     C_3   0.564737 0.888864 0.069346 0.000000
N370  N     N_3   0.561004 0.838016 0.042252 0.000000
C1109 C     C_3   0.558862 0.792510 0.073487 0.000000
C1110 C     C_R   0.569429 0.741428 0.050857 0.000000
N371  N     N_R   0.559815 0.722182 0.009358 0.000000
C1111 C     C_R   0.580276 0.691297 0.993277 0.000000
C1112 C     C_R   0.582701 0.663691 0.952109 0.000000
C1113 C     C_R   0.606963 0.639618 0.941548 0.000000
C1114 C     C_R   0.627276 0.639278 0.973409 0.000000
C1115 C     C_R   0.623743 0.663687 0.016134 0.000000
C1116 C     C_R   0.600129 0.689911 0.024544 0.000000
N372  N     N_R   0.593593 0.718975 0.062356 0.000000
H1231 H     H_    0.565093 0.924456 0.046254 0.000000
H1232 H     H_    0.548427 0.894164 0.094372 0.000000
H1233 H     H_    0.583666 0.887948 0.088286 0.000000
H1234 H     H_    0.577232 0.831747 0.020806 0.000000
H1235 H     H_    0.570882 0.802836 0.103888 0.000000
H1236 H     H_    0.538027 0.786403 0.083448 0.000000
H1237 H     H_    0.566540 0.662410 0.928731 0.000000
H1238 H     H_    0.610726 0.621828 0.908046 0.000000
H1239 H     H_    0.645973 0.620323 0.964454 0.000000
H1240 H     H_    0.639481 0.664069 0.041103 0.000000
C1117 C     C_3   0.318262 0.620195 0.118520 0.000000
N373  N     N_3   0.325056 0.627116 0.071238 0.000000
C1118 C     C_3   0.303073 0.609254 0.042123 0.000000
C1119 C     C_R   0.313408 0.604277 0.996112 0.000000
N374  N     N_R   0.324788 0.652135 0.980825 0.000000
C1120 C     C_R   0.348207 0.634866 0.968447 0.000000
C1121 C     C_R   0.368378 0.668385 0.959756 0.000000
C1122 C     C_R   0.391737 0.642934 0.953079 0.000000
C1123 C     C_R   0.392961 0.585559 0.952396 0.000000
C1124 C     C_R   0.373057 0.553433 0.966902 0.000000
C1125 C     C_R   0.350522 0.579812 0.973225 0.000000
N375  N     N_R   0.328210 0.557467 0.986324 0.000000
H1241 H     H_    0.335833 0.625578 0.139917 0.000000
H1242 H     H_    0.305337 0.653254 0.129999 0.000000
H1243 H     H_    0.308889 0.579770 0.122845 0.000000
H1244 H     H_    0.341917 0.603580 0.064369 0.000000
H1245 H     H_    0.294875 0.569083 0.052089 0.000000
H1246 H     H_    0.288511 0.642424 0.041839 0.000000
H1247 H     H_    0.365861 0.712182 0.957705 0.000000
H1248 H     H_    0.408519 0.667444 0.944221 0.000000
H1249 H     H_    0.408672 0.565390 0.935788 0.000000
H1250 H     H_    0.374629 0.510026 0.972780 0.000000
C1126 C     C_3   0.308264 0.314374 0.058330 0.000000
N376  N     N_3   0.295107 0.361066 0.038024 0.000000
C1127 C     C_3   0.286567 0.400130 0.073864 0.000000
C1128 C     C_R   0.275350 0.448563 0.050400 0.000000
N377  N     N_R   0.249111 0.465455 0.055929 0.000000
C1129 C     C_R   0.243707 0.486397 0.014836 0.000000
C1130 C     C_R   0.219434 0.502734 0.999015 0.000000
C1131 C     C_R   0.217295 0.514591 0.953086 0.000000
C1132 C     C_R   0.239286 0.511194 0.924697 0.000000
C1133 C     C_R   0.263757 0.496755 0.942026 0.000000
C1134 C     C_R   0.265423 0.484522 0.987318 0.000000
N378  N     N_R   0.286380 0.463184 0.009197 0.000000
H1251 H     H_    0.313744 0.283968 0.030811 0.000000
H1252 H     H_    0.326546 0.328534 0.075986 0.000000
H1253 H     H_    0.294661 0.294241 0.082368 0.000000
H1254 H     H_    0.278195 0.346094 0.021330 0.000000
H1255 H     H_    0.271128 0.380678 0.094769 0.000000
H1256 H     H_    0.303584 0.412673 0.095546 0.000000
H1257 H     H_    0.202300 0.503943 0.020948 0.000000
H1258 H     H_    0.198282 0.525664 0.939006 0.000000
H1259 H     H_    0.237207 0.519313 0.888645 0.000000
H1260 H     H_    0.280457 0.490782 0.920008 0.000000
C1135 C     C_3   0.028914 0.158169 0.235237 0.000000
N379  N     N_3   0.048641 0.174205 0.268695 0.000000
C1136 C     C_3   0.051729 0.233697 0.273077 0.000000
C1137 C     C_R   0.069536 0.243647 0.312102 0.000000
N380  N     N_R   0.059660 0.242073 0.355996 0.000000
C1138 C     C_R   0.081860 0.236139 0.381261 0.000000
C1139 C     C_R   0.083789 0.223273 0.426825 0.000000
C1140 C     C_R   0.108534 0.214328 0.445322 0.000000
C1141 C     C_R   0.130772 0.215615 0.417896 0.000000
C1142 C     C_R   0.128344 0.224049 0.371482 0.000000
C1143 C     C_R   0.103659 0.234405 0.353785 0.000000
N381  N     N_R   0.096804 0.238295 0.309191 0.000000
H1261 H     H_    0.011775 0.140827 0.253119 0.000000
H1262 H     H_    0.023420 0.194091 0.214515 0.000000
H1263 H     H_    0.036965 0.124036 0.213349 0.000000
H1264 H     H_    0.066575 0.158235 0.257279 0.000000
H1265 H     H_    0.059849 0.251588 0.242017 0.000000
H1266 H     H_    0.032891 0.254026 0.281510 0.000000
H1267 H     H_    0.066565 0.216498 0.447272 0.000000
H1268 H     H_    0.110450 0.204386 0.481047 0.000000
H1269 H     H_    0.149989 0.207165 0.432416 0.000000
H1270 H     H_    0.145436 0.220409 0.349942 0.000000
C1144 C     C_3   0.164936 0.452263 0.265071 0.000000
N382  N     N_3   0.192403 0.443746 0.252170 0.000000
C1145 C     C_3   0.193129 0.402168 0.215393 0.000000
C1146 C     C_R   0.220135 0.396275 0.196649 0.000000
N383  N     N_R   0.229124 0.431084 0.163305 0.000000
C1147 C     C_R   0.254524 0.435176 0.173837 0.000000
C1148 C     C_R   0.270767 0.475281 0.159753 0.000000
C1149 C     C_R   0.295442 0.477200 0.178237 0.000000
C1150 C     C_R   0.303661 0.438122 0.208597 0.000000
C1151 C     C_R   0.286013 0.400948 0.225561 0.000000
C1152 C     C_R   0.261195 0.401047 0.207855 0.000000
N384  N     N_R   0.240075 0.373388 0.222491 0.000000
H1271 H     H_    0.163974 0.476243 0.297965 0.000000
H1272 H     H_    0.154391 0.474870 0.238208 0.000000
H1273 H     H_    0.154994 0.412401 0.268950 0.000000
H1274 H     H_    0.201901 0.427073 0.280090 0.000000
H1275 H     H_    0.187754 0.363354 0.230693 0.000000
H1276 H     H_    0.179729 0.414437 0.187520 0.000000
H1277 H     H_    0.263923 0.506062 0.137238 0.000000
H1278 H     H_    0.307566 0.511613 0.171326 0.000000
H1279 H     H_    0.323447 0.439274 0.220735 0.000000
H1280 H     H_    0.291076 0.374008 0.252547 0.000000
C1153 C     C_3   0.119000 0.518804 0.170329 0.000000
N385  N     N_3   0.132089 0.468973 0.152700 0.000000
C1154 C     C_3   0.146035 0.483925 0.111571 0.000000
C1155 C     C_R   0.157846 0.434981 0.087366 0.000000
N386  N     N_R   0.184766 0.429683 0.080530 0.000000
C1156 C     C_R   0.186437 0.382181 0.055491 0.000000
C1157 C     C_R   0.208977 0.355238 0.040923 0.000000
C1158 C     C_R   0.206259 0.304876 0.017698 0.000000
C1159 C     C_R   0.181462 0.281435 0.011243 0.000000
C1160 C     C_R   0.159069 0.308205 0.027753 0.000000
C1161 C     C_R   0.161969 0.359563 0.048699 0.000000
N387  N     N_R   0.143157 0.391691 0.068742 0.000000
H1281 H     H_    0.112769 0.512678 0.206172 0.000000
H1282 H     H_    0.132632 0.554515 0.169773 0.000000
H1283 H     H_    0.101437 0.527865 0.148972 0.000000
H1284 H     H_    0.117329 0.440866 0.143290 0.000000
H1285 H     H_    0.132956 0.507522 0.089348 0.000000
H1286 H     H_    0.162176 0.511298 0.120412 0.000000
H1287 H     H_    0.228296 0.371704 0.047968 0.000000
H1288 H     H_    0.223650 0.282804 0.005760 0.000000
H1289 H     H_    0.179710 0.241112 0.994577 0.000000
H1290 H     H_    0.140130 0.287948 0.026000 0.000000
C1162 C     C_3   0.259445 0.635944 0.161041 0.000000
N388  N     N_3   0.253469 0.654490 0.114923 0.000000
C1163 C     C_3   0.245436 0.608274 0.085036 0.000000
C1164 C     C_R   0.217831 0.602529 0.094532 0.000000
N389  N     N_R   0.210014 0.554803 0.115321 0.000000
C1165 C     C_R   0.195786 0.575171 0.150480 0.000000
C1166 C     C_R   0.189993 0.548240 0.189367 0.000000
C1167 C     C_R   0.179681 0.578037 0.226280 0.000000
C1168 C     C_R   0.175043 0.633836 0.222776 0.000000
C1169 C     C_R   0.182067 0.659951 0.183353 0.000000
C1170 C     C_R   0.192665 0.630501 0.147818 0.000000
N390  N     N_R   0.206237 0.650287 0.112190 0.000000
H1291 H     H_    0.241546 0.624034 0.179593 0.000000
H1292 H     H_    0.272460 0.599413 0.160688 0.000000
H1293 H     H_    0.269041 0.670507 0.180165 0.000000
H1294 H     H_    0.269193 0.676009 0.101685 0.000000
H1295 H     H_    0.248042 0.615750 0.048551 0.000000
H1296 H     H_    0.256164 0.570556 0.093208 0.000000
H1297 H     H_    0.194945 0.505752 0.190632 0.000000
H1298 H     H_    0.176099 0.559046 0.258545 0.000000
H1299 H     H_    0.167674 0.657507 0.252007 0.000000
H1300 H     H_    0.181856 0.703438 0.181360 0.000000
C1171 C     C_3   0.445473 0.682855 0.535156 0.000000
N391  N     N_3   0.464989 0.726618 0.537939 0.000000
C1172 C     C_3   0.479754 0.728100 0.495732 0.000000
C1173 C     C_R   0.503230 0.763692 0.502409 0.000000
N392  N     N_R   0.506356 0.790093 0.544280 0.000000
C1174 C     C_R   0.532110 0.781229 0.553727 0.000000
C1175 C     C_R   0.545348 0.790687 0.594217 0.000000
C1176 C     C_R   0.571882 0.776632 0.596055 0.000000
C1177 C     C_R   0.584517 0.753099 0.557986 0.000000
C1178 C     C_R   0.570497 0.741444 0.518134 0.000000
C1179 C     C_R   0.544111 0.755009 0.517594 0.000000
N393  N     N_R   0.526779 0.746772 0.483170 0.000000
H1301 H     H_    0.453929 0.644548 0.520144 0.000000
H1302 H     H_    0.439492 0.671155 0.569815 0.000000
H1303 H     H_    0.428016 0.697943 0.516520 0.000000
H1304 H     H_    0.478647 0.713160 0.561163 0.000000
H1305 H     H_    0.487603 0.686971 0.489461 0.000000
H1306 H     H_    0.467312 0.739567 0.466897 0.000000
H1307 H     H_    0.535141 0.804406 0.624639 0.000000
H1308 H     H_    0.582772 0.783258 0.627632 0.000000
H1309 H     H_    0.605242 0.742439 0.559934 0.000000
H1310 H     H_    0.579939 0.722036 0.488630 0.000000
C1180 C     C_3   0.521198 0.885675 0.330687 0.000000
N394  N     N_3   0.503407 0.849613 0.353773 0.000000
C1181 C     C_3   0.502682 0.798867 0.326385 0.000000
C1182 C     C_R   0.488745 0.757112 0.351680 0.000000
N395  N     N_R   0.502394 0.721918 0.379852 0.000000
C1183 C     C_R   0.483411 0.686374 0.389852 0.000000
C1184 C     C_R   0.484953 0.638403 0.411767 0.000000
C1185 C     C_R   0.462805 0.621722 0.433213 0.000000
C1186 C     C_R   0.439905 0.652582 0.429193 0.000000
C1187 C     C_R   0.438025 0.690845 0.396270 0.000000
C1188 C     C_R   0.460043 0.703236 0.374262 0.000000
N396  N     N_R   0.462102 0.744500 0.346117 0.000000
H1311 H     H_    0.518255 0.928632 0.343228 0.000000
H1312 H     H_    0.541424 0.870794 0.336064 0.000000
H1313 H     H_    0.517701 0.883424 0.293674 0.000000
H1314 H     H_    0.484741 0.867820 0.354589 0.000000
H1315 H     H_    0.493452 0.803682 0.292843 0.000000
H1316 H     H_    0.522867 0.784001 0.320315 0.000000
H1317 H     H_    0.502113 0.614682 0.412439 0.000000
H1318 H     H_    0.465098 0.590742 0.458307 0.000000
H1319 H     H_    0.423545 0.648113 0.451839 0.000000
H1320 H     H_    0.422006 0.718739 0.394259 0.000000

loop_
_geom_bond_atom_site_label_1
_geom_bond_atom_site_label_2
_geom_bond_distance
_geom_bond_site_symmetry_2
_ccdc_geom_bond_type
Zn1   N2    2.099 .      S
Zn1   N12   2.102 .      S
Zn1   N47   2.105 .      S
Zn1   N150  2.085 1_565  S
Zn2   N6    2.066 .      S
Zn2   N8    2.077 .      S
Zn2   N11   2.088 .      S
Zn2   N263  2.023 .      S
Zn3   N14   2.050 .      S
Zn3   N17   1.977 .      S
Zn3   N21   2.106 1_565  S
Zn3   N120  2.122 .      S
Zn4   N24   2.076 .      S
Zn4   N27   2.104 .      S
Zn4   N80   2.066 .      S
Zn4   N201  2.104 .      S
Zn5   N29   2.103 .      S
Zn5   N33   2.130 .      S
Zn5   N35   2.104 .      S
Zn5   N336  2.003 .      S
Zn6   N38   2.170 .      S
Zn6   N332  2.156 .      S
Zn6   N348  2.132 .      S
Zn6   N392  2.050 .      S
Zn7   N51   2.120 .      S
Zn7   N269  2.086 .      S
Zn7   N275  2.106 1_565  S
Zn7   N321  2.113 .      S
Zn8   N39   2.125 .      S
Zn8   N42   2.173 .      S
Zn8   N75   2.146 .      S
Zn8   N305  2.036 .      S
Zn9   N9    2.066 .      S
Zn9   N41   2.113 .      S
Zn9   N137  2.128 .      S
Zn9   N246  2.166 .      S
Zn10  N30   2.137 .      S
Zn10  N165  2.142 .      S
Zn10  N198  1.954 .      S
Zn10  N396  2.106 .      S
Zn11  N45   2.086 .      S
Zn11  N116  2.187 .      S
Zn11  N213  2.152 .      S
Zn11  N272  2.203 .      S
Zn12  N44   2.048 .      S
Zn12  N192  2.110 .      S
Zn12  N224  2.129 .      S
Zn12  N231  2.121 .      S
Zn13  N48   2.055 .      S
Zn13  N107  2.141 .      S
Zn13  N236  2.077 .      S
Zn13  N267  2.059 .      S
Zn14  N50   2.144 .      S
Zn14  N53   2.055 .      S
Zn14  N57   2.139 .      S
Zn14  N287  2.105 .      S
Zn15  N59   2.064 .      S
Zn15  N86   2.113 .      S
Zn15  N278  2.105 .      S
Zn15  N290  1.994 .      S
Zn16  N54   2.181 .      S
Zn16  N62   2.129 1_655  S
Zn16  N314  2.052 .      S
Zn16  N323  2.074 .      S
Zn17  N66   2.155 .      S
Zn17  N78   2.162 .      S
Zn17  N308  2.125 .      S
Zn17  N356  2.080 .      S
Zn18  N68   2.089 .      S
Zn18  N72   2.074 .      S
Zn18  N281  2.158 .      S
Zn18  N326  2.140 .      S
Zn19  N74   2.089 .      S
Zn19  N77   2.075 .      S
Zn19  N81   2.106 .      S
Zn19  N135  2.055 .      S
Zn20  N36   2.085 .      S
Zn20  N65   2.130 .      S
Zn20  N83   2.158 .      S
Zn20  N203  2.059 .      S
Zn21  N71   2.103 .      S
Zn21  N87   2.118 .      S
Zn21  N89   2.064 1_655  S
Zn21  N318  2.067 .      S
Zn22  N60   2.091 .      S
Zn22  N93   2.054 .      S
Zn22  N104  2.144 .      S
Zn22  N177  2.084 1_556  S
Zn23  N63   2.104 .      S
Zn23  N96   2.122 .      S
Zn23  N98   2.135 1_565  S
Zn23  N206  2.060 1_455  S
Zn24  N90   2.080 .      S
Zn24  N99   2.075 .      S
Zn24  N101  2.047 .      S
Zn24  N179  2.138 1_455  S
Zn25  N56   2.097 .      S
Zn25  N105  2.140 1_565  S
Zn25  N108  2.086 .      S
Zn25  N210  2.097 .      S
Zn26  N111  2.061 .      S
Zn26  N113  2.101 .      S
Zn26  N186  2.234 .      S
Zn26  N285  2.137 .      S
Zn27  N117  2.185 1_455  S
Zn27  N119  2.095 .      S
Zn27  N123  2.221 1_565  S
Zn27  N329  2.146 .      S
Zn28  N126  2.083 .      S
Zn28  N129  2.093 .      S
Zn28  N362  2.103 .      S
Zn28  N390  2.149 .      S
Zn29  N132  2.120 .      S
Zn29  N134  1.996 .      S
Zn29  N342  2.127 .      S
Zn29  N354  2.070 .      S
Zn30  N138  2.162 .      S
Zn30  N140  2.159 .      S
Zn30  N144  2.154 .      S
Zn30  N147  2.217 .      S
Zn31  N114  2.048 .      S
Zn31  N149  2.114 .      S
Zn31  N153  2.085 .      S
Zn31  N155  2.070 .      S
Zn32  N143  2.182 .      S
Zn32  N159  2.152 .      S
Zn32  N161  2.125 .      S
Zn32  N164  2.113 .      S
Zn33  N146  2.162 .      S
Zn33  N167  2.189 .      S
Zn33  N170  2.169 .      S
Zn33  N173  2.219 .      S
Zn34  N176  2.199 .      S
Zn34  N180  2.139 .      S
Zn34  N183  1.943 .      S
Zn34  N189  2.112 .      S
Zn35  N185  2.128 .      S
Zn35  N188  2.075 .      S
Zn35  N191  2.149 .      S
Zn35  N194  2.157 .      S
Zn36  N174  2.103 .      S
Zn36  N197  2.033 .      S
Zn36  N200  2.110 .      S
Zn36  N204  2.108 .      S
Zn37  N182  1.953 1_565  S
Zn37  N207  2.111 .      S
Zn37  N209  2.089 .      S
Zn37  N212  2.054 .      S
Zn38  N215  2.100 .      S
Zn38  N219  2.109 1_554  S
Zn38  N221  2.081 .      S
Zn38  N225  2.183 1_455  S
Zn39  N228  2.070 1_554  S
Zn39  N230  2.107 .      S
Zn39  N233  2.043 .      S
Zn39  N237  2.042 .      S
Zn40  N20   2.080 .      S
Zn40  N240  2.103 .      S
Zn40  N242  2.122 .      S
Zn40  N381  2.114 .      S
Zn41  N26   2.076 .      S
Zn41  N156  2.006 .      S
Zn41  N245  2.106 .      S
Zn41  N257  2.061 .      S
Zn42  N249  2.190 .      S
Zn42  N251  2.115 .      S
Zn42  N339  2.010 .      S
Zn42  N350  2.111 .      S
Zn43  N254  2.039 .      S
Zn43  N258  2.087 .      S
Zn43  N261  2.133 .      S
Zn43  N366  2.127 .      S
Zn44  N260  2.059 .      S
Zn44  N264  2.016 .      S
Zn44  N266  2.060 .      S
Zn44  N372  2.018 .      S
Zn45  N3    2.110 .      S
Zn45  N110  2.114 1_565  S
Zn45  N270  2.138 .      S
Zn45  N273  2.143 .      S
Zn46  N276  2.163 .      S
Zn46  N279  2.104 .      S
Zn46  N282  2.033 .      S
Zn46  N284  2.110 .      S
Zn47  N227  2.176 .      S
Zn47  N288  2.185 .      S
Zn47  N291  2.068 .      S
Zn47  N294  2.126 .      S
Zn48  N141  2.130 .      S
Zn48  N296  2.166 .      S
Zn48  N300  2.128 .      S
Zn48  N302  2.137 .      S
Zn49  N299  2.094 .      S
Zn49  N306  2.016 .      S
Zn49  N309  2.075 .      S
Zn49  N312  2.108 .      S
Zn50  N218  2.097 .      S
Zn50  N293  2.100 .      S
Zn50  N315  2.075 .      S
Zn50  N317  2.077 .      S
Zn51  N320  2.067 .      S
Zn51  N324  2.126 .      S
Zn51  N327  2.104 1_565  S
Zn51  N330  2.201 1_655  S
Zn52  N252  2.104 .      S
Zn52  N311  2.060 .      S
Zn52  N333  2.085 .      S
Zn52  N335  2.020 .      S
Zn53  N338  2.084 .      S
Zn53  N341  2.139 .      S
Zn53  N345  2.139 .      S
Zn53  N347  2.087 .      S
Zn54  N351  2.033 .      S
Zn54  N353  2.060 .      S
Zn54  N357  2.036 .      S
Zn54  N360  2.157 .      S
Zn55  N158  2.236 1_556  S
Zn55  N248  2.231 .      S
Zn55  N363  2.121 1_556  S
Zn55  N374  2.026 .      S
Zn56  N131  2.109 .      S
Zn56  N168  2.214 1_556  S
Zn56  N365  2.152 1_556  S
Zn56  N368  2.058 .      S
Zn57  N162  2.190 1_556  S
Zn57  N344  2.188 .      S
Zn57  N369  2.089 .      S
Zn57  N371  2.053 1_556  S
Zn58  N171  2.230 1_556  S
Zn58  N359  2.132 .      S
Zn58  N375  2.074 .      S
Zn58  N378  2.106 1_556  S
Zn59  N102  2.140 .      S
Zn59  N222  2.102 .      S
Zn59  N243  2.181 .      S
Zn59  N387  2.084 .      S
Zn60  N18   2.023 .      S
Zn60  N32   2.024 .      S
Zn60  N128  2.053 .      S
Zn60  N303  2.200 .      S
Zn61  N92   2.022 .      S
Zn61  N152  2.121 .      S
Zn61  N234  2.119 .      S
Zn61  N255  2.042 .      S
Zn62  N69   2.086 .      S
Zn62  N122  2.150 .      S
Zn62  N195  2.199 1_455  S
Zn62  N380  2.095 .      S
Zn63  N84   2.075 .      S
Zn63  N239  2.065 .      S
Zn63  N297  2.132 .      S
Zn63  N384  2.075 .      S
Zn64  N377  2.114 .      S
Zn64  N383  2.064 .      S
Zn64  N386  2.072 .      S
Zn64  N389  2.090 .      S
Zn65  N15   2.069 .      S
Zn65  N95   2.094 .      S
Zn65  N125  2.027 .      S
Zn65  N216  2.153 .      S
Zn66  N5    2.083 .      S
Zn66  N23   2.092 .      S
Zn66  N393  2.033 .      S
Zn66  N395  2.084 .      S
C1    N1    1.450 .      S
C1    H1    1.105 .      S
C1    H2    1.108 .      S
C1    H3    1.106 .      S
N1    C2    1.450 .      S
N1    H4    1.044 .      S
C2    C3    1.467 .      S
C2    H5    1.081 .      S
C2    H6    1.088 .      S
C5    H7    1.077 .      S
C6    H8    1.081 .      S
C7    H9    1.081 .      S
C8    H10   1.074 .      S
C10   N4    1.442 .      S
C10   H11   1.108 .      S
C10   H12   1.108 .      S
C10   H13   1.103 .      S
N4    C11   1.450 .      S
N4    H14   1.039 .      S
C11   C12   1.477 .      S
C11   H15   1.090 .      S
C11   H16   1.107 .      S
C14   H17   1.064 .      S
C15   H18   1.081 .      S
C16   H19   1.081 .      S
C17   H20   1.076 .      S
C19   N7    1.443 1_565  S
C19   H21   1.100 .      S
C19   H22   1.099 .      S
C19   H23   1.105 1_565  S
N7    C19   1.443 1_545  S
N7    C20   1.452 1_545  S
N7    H24   1.043 .      S
C20   N7    1.452 1_565  S
C20   C21   1.507 .      S
C20   H25   1.105 .      S
C20   H26   1.087 .      S
C23   H27   1.065 .      S
C24   H28   1.079 .      S
C25   H29   1.081 .      S
C26   H30   1.074 .      S
H23   C19   1.105 1_545  S
C28   N10   1.454 1_545  S
C28   H31   1.107 .      S
C28   H32   1.105 .      S
C28   H33   1.106 .      S
N10   C28   1.454 1_565  S
N10   C29   1.448 .      S
N10   H34   1.037 .      S
C29   C30   1.486 .      S
C29   H35   1.103 1_565  S
C29   H36   1.108 .      S
C32   H37   1.073 .      S
C33   H38   1.081 .      S
C34   H39   1.081 .      S
C35   H40   1.076 .      S
H35   C29   1.103 1_545  S
C37   N13   1.448 .      S
C37   H41   1.108 .      S
C37   H42   1.102 .      S
C37   H43   1.109 .      S
N13   C38   1.453 .      S
N13   H44   1.039 .      S
C38   C39   1.486 .      S
C38   H45   1.099 .      S
C38   H46   1.100 .      S
C41   H47   1.081 .      S
C42   H48   1.059 .      S
C43   H49   1.075 .      S
C44   H50   1.073 .      S
C46   N16   1.448 .      S
C46   H51   1.109 .      S
C46   H52   1.101 .      S
C46   H53   1.108 .      S
N16   C47   1.449 1_545  S
N16   H54   1.035 1_545  S
C47   N16   1.449 1_565  S
C47   C48   1.475 .      S
C47   H55   1.103 1_565  S
C47   H56   1.096 1_565  S
C50   H57   1.069 .      S
C51   H58   1.081 .      S
C52   H59   1.080 .      S
C53   H60   1.067 .      S
H54   N16   1.035 1_565  S
H55   C47   1.103 1_545  S
H56   C47   1.096 1_545  S
C55   N19   1.454 .      S
C55   H61   1.108 .      S
C55   H62   1.110 .      S
C55   H63   1.109 .      S
N19   C56   1.443 .      S
N19   H64   1.036 .      S
C56   C57   1.483 .      S
C56   H65   1.098 .      S
C56   H66   1.096 .      S
C59   H67   1.056 .      S
C60   H68   1.081 .      S
C61   H69   1.080 .      S
C62   H70   1.055 1_545  S
N21   Zn3   2.106 1_545  S
H70   C62   1.055 1_565  S
C64   N22   1.449 .      S
C64   H71   1.108 .      S
C64   H72   1.101 .      S
C64   H73   1.105 .      S
N22   C65   1.460 .      S
N22   H74   1.041 .      S
C65   C66   1.480 .      S
C65   H75   1.101 .      S
C65   H76   1.088 .      S
C68   H77   1.077 .      S
C69   H78   1.081 .      S
C70   H79   1.081 .      S
C71   H80   1.078 .      S
C73   N25   1.449 .      S
C73   H81   1.103 .      S
C73   H82   1.104 .      S
C73   H83   1.107 .      S
N25   C74   1.440 .      S
N25   H84   1.044 .      S
C74   C75   1.464 .      S
C74   H85   1.085 .      S
C74   H86   1.099 .      S
C77   H87   1.053 .      S
C78   H88   1.081 .      S
C79   H89   1.080 .      S
C80   H90   1.051 .      S
C82   N28   1.450 .      S
C82   H91   1.097 .      S
C82   H92   1.103 .      S
C82   H93   1.107 .      S
N28   C83   1.464 .      S
N28   H94   1.040 .      S
C83   C84   1.481 .      S
C83   H95   1.099 .      S
C83   H96   1.098 .      S
C86   H97   1.076 .      S
C87   H98   1.079 .      S
C88   H99   1.075 .      S
C89   H100  1.053 .      S
C91   N31   1.447 .      S
C91   H101  1.105 .      S
C91   H102  1.095 .      S
C91   H103  1.104 .      S
N31   C92   1.440 .      S
N31   H104  1.043 .      S
C92   C93   1.494 .      S
C92   H105  1.099 .      S
C92   H106  1.101 .      S
C95   H107  1.064 .      S
C96   H108  1.081 .      S
C97   H109  1.081 .      S
C98   H110  1.037 .      S
C100  N34   1.455 .      S
C100  H111  1.108 .      S
C100  H112  1.106 .      S
C100  H113  1.108 .      S
N34   C101  1.444 .      S
N34   H114  1.043 .      S
C101  C102  1.491 .      S
C101  H115  1.103 .      S
C101  H116  1.094 .      S
C104  H117  1.064 .      S
C105  H118  1.073 .      S
C106  H119  1.068 .      S
C107  H120  1.075 .      S
C109  N37   1.455 .      S
C109  H121  1.087 .      S
C109  H122  1.107 .      S
C109  H123  1.107 .      S
N37   C110  1.458 .      S
N37   H124  1.042 .      S
C110  C111  1.441 .      S
C110  H125  1.094 .      S
C110  H126  1.070 .      S
C113  H127  1.067 .      S
C114  H128  1.081 .      S
C115  H129  1.081 .      S
C116  H130  1.066 .      S
C118  N40   1.445 .      S
C118  H131  1.106 .      S
C118  H132  1.104 .      S
C118  H133  1.109 .      S
N40   C119  1.437 .      S
N40   H134  1.044 .      S
C119  C120  1.468 .      S
C119  H135  1.101 .      S
C119  H136  1.100 .      S
C122  H137  1.073 .      S
C123  H138  1.078 .      S
C124  H139  1.081 1_545  S
C125  H140  1.056 .      S
H139  C124  1.081 1_565  S
C127  N43   1.448 .      S
C127  H141  1.108 .      S
C127  H142  1.102 .      S
C127  H143  1.106 .      S
N43   C128  1.457 .      S
N43   H144  1.038 .      S
C128  C129  1.491 .      S
C128  H145  1.104 .      S
C128  H146  1.108 .      S
C131  H147  1.069 .      S
C132  H148  1.081 .      S
C133  H149  1.079 .      S
C134  H150  1.063 .      S
C136  N46   1.450 .      S
C136  H151  1.107 .      S
C136  H152  1.108 .      S
C136  H153  1.100 .      S
N46   C137  1.455 .      S
N46   H154  1.044 .      S
C137  C138  1.476 .      S
C137  H155  1.098 .      S
C137  H156  1.095 .      S
C140  H157  1.059 .      S
C141  H158  1.073 1_565  S
C142  H159  1.078 .      S
C143  H160  1.068 .      S
H158  C141  1.073 1_545  S
C145  N49   1.454 .      S
C145  H161  1.109 .      S
C145  H162  1.108 .      S
C145  H163  1.109 .      S
N49   C146  1.458 .      S
N49   H164  1.044 .      S
C146  C147  1.497 .      S
C146  H165  1.102 .      S
C146  H166  1.093 .      S
C149  H167  1.062 .      S
C150  H168  1.081 .      S
C151  H169  1.081 .      S
C152  H170  1.072 .      S
C154  N52   1.458 .      S
C154  H171  1.092 .      S
C154  H172  1.107 .      S
C154  H173  1.102 .      S
N52   C155  1.461 .      S
N52   H174  1.035 .      S
C155  C156  1.478 .      S
C155  H175  1.097 .      S
C155  H176  1.105 .      S
C158  H177  1.062 .      S
C159  H178  1.077 .      S
C160  H179  1.070 .      S
C161  H180  1.074 .      S
C163  N55   1.452 .      S
C163  H181  1.108 1_556  S
C163  H182  1.097 .      S
C163  H183  1.102 .      S
N55   C164  1.448 .      S
N55   H184  1.042 .      S
C164  C165  1.497 .      S
C164  H185  1.088 .      S
C164  H186  1.092 .      S
C167  H187  1.068 .      S
C168  H188  1.079 .      S
C169  H189  1.076 .      S
C170  H190  1.077 .      S
H181  C163  1.108 1_554  S
C172  N58   1.446 .      S
C172  H191  1.105 .      S
C172  H192  1.109 .      S
C172  H193  1.095 .      S
N58   C173  1.430 .      S
N58   H194  1.036 .      S
C173  C174  1.479 .      S
C173  H195  1.094 .      S
C173  H196  1.109 .      S
C176  H197  1.044 .      S
C177  H198  1.080 .      S
C178  H199  1.060 .      S
C179  H200  1.059 .      S
C181  N61   1.442 .      S
C181  H201  1.091 .      S
C181  H202  1.068 .      S
C181  H203  1.077 .      S
N61   C182  1.443 .      S
N61   H204  1.038 .      S
C182  C183  1.452 1_655  S
C182  H205  1.105 1_655  S
C182  H206  1.106 .      S
C183  C182  1.452 1_455  S
N62   Zn16  2.129 1_455  S
C185  H207  1.061 .      S
C186  H208  1.081 .      S
C187  H209  1.080 1_565  S
C188  H210  1.076 1_565  S
H205  C182  1.105 1_455  S
H209  C187  1.080 1_545  S
H210  C188  1.076 1_545  S
C190  N64   1.443 .      S
C190  H211  1.103 .      S
C190  H212  1.084 .      S
C190  H213  1.104 .      S
N64   C191  1.446 .      S
N64   H214  1.033 .      S
C191  C192  1.460 .      S
C191  H215  1.056 .      S
C191  H216  1.087 .      S
C194  H217  1.081 .      S
C195  H218  1.081 .      S
C196  H219  1.081 .      S
C197  H220  1.076 .      S
C199  N67   1.442 .      S
C199  H221  1.069 .      S
C199  H222  1.103 .      S
C199  H223  1.087 .      S
N67   C200  1.445 .      S
N67   H224  1.041 1_655  S
C200  C201  1.429 .      S
C200  H225  1.074 .      S
C200  H226  1.090 .      S
C203  H227  1.065 .      S
C204  H228  1.081 .      S
C205  H229  1.081 .      S
C206  H230  1.079 .      S
H224  N67   1.041 1_455  S
C208  N70   1.455 .      S
C208  H231  1.108 .      S
C208  H232  1.108 .      S
C208  H233  1.109 .      S
N70   C209  1.453 .      S
N70   H234  1.040 .      S
C209  C210  1.496 1_455  S
C209  H235  1.101 .      S
C209  H236  1.103 .      S
C210  C209  1.496 1_655  S
C212  H237  1.080 .      S
C213  H238  1.076 .      S
C214  H239  1.080 .      S
C215  H240  1.081 .      S
C217  N73   1.455 .      S
C217  H241  1.109 .      S
C217  H242  1.109 .      S
C217  H243  1.108 .      S
N73   C218  1.453 .      S
N73   H244  1.039 .      S
C218  C219  1.497 .      S
C218  H245  1.078 .      S
C218  H246  1.107 .      S
C221  H247  1.078 .      S
C222  H248  1.077 .      S
C223  H249  1.081 .      S
C224  H250  1.078 .      S
C226  N76   1.460 .      S
C226  H251  1.107 .      S
C226  H252  1.093 .      S
C226  H253  1.100 .      S
N76   C227  1.455 .      S
N76   H254  1.041 .      S
C227  C228  1.483 .      S
C227  H255  1.098 .      S
C227  H256  1.095 .      S
C230  H257  1.061 .      S
C231  H258  1.069 .      S
C232  H259  1.076 .      S
C233  H260  1.066 .      S
C235  N79   1.451 .      S
C235  H261  1.108 .      S
C235  H262  1.089 .      S
C235  H263  1.103 .      S
N79   C236  1.450 .      S
N79   H264  1.040 .      S
C236  C237  1.508 .      S
C236  H265  1.096 .      S
C236  H266  1.096 .      S
C239  H267  1.073 .      S
C240  H268  1.081 .      S
C241  H269  1.080 .      S
C242  H270  1.059 .      S
C244  N82   1.452 .      S
C244  H271  1.109 .      S
C244  H272  1.109 .      S
C244  H273  1.108 .      S
N82   C245  1.452 .      S
N82   H274  1.044 .      S
C245  C246  1.480 .      S
C245  H275  1.097 .      S
C245  H276  1.096 .      S
C248  H277  1.055 .      S
C249  H278  1.070 .      S
C250  H279  1.078 .      S
C251  H280  1.073 .      S
C253  N85   1.471 .      S
C253  H281  1.101 .      S
C253  H282  1.104 .      S
C253  H283  1.095 .      S
N85   C254  1.458 .      S
N85   H284  1.026 .      S
C254  C255  1.417 .      S
C254  H285  1.080 .      S
C254  H286  1.103 .      S
C257  H287  1.055 .      S
C258  H288  1.067 .      S
C259  H289  1.076 .      S
C260  H290  1.048 .      S
C262  N88   1.451 .      S
C262  H291  1.109 .      S
C262  H292  1.107 .      S
C262  H293  1.109 .      S
N88   C263  1.459 .      S
N88   H294  1.043 .      S
C263  C264  1.475 .      S
C263  H295  1.103 .      S
C263  H296  1.107 .      S
N89   Zn21  2.064 1_455  S
C266  H297  1.075 1_455  S
C267  H298  1.074 .      S
C268  H299  1.075 .      S
C269  H300  1.077 .      S
H297  C266  1.075 1_655  S
C271  N91   1.442 .      S
C271  H301  1.104 .      S
C271  H302  1.108 .      S
C271  H303  1.107 .      S
N91   C272  1.443 .      S
N91   H304  1.037 .      S
C272  C273  1.486 .      S
C272  H305  1.098 .      S
C272  H306  1.104 .      S
C275  H307  1.078 .      S
C276  H308  1.081 .      S
C277  H309  1.081 .      S
C278  H310  1.079 .      S
C280  N94   1.453 1_545  S
C280  H311  1.103 .      S
C280  H312  1.101 .      S
C280  H313  1.109 .      S
N94   C280  1.453 1_565  S
N94   C281  1.434 .      S
N94   H314  1.038 1_565  S
C281  C282  1.479 .      S
C281  H315  1.108 .      S
C281  H316  1.093 .      S
C284  H317  1.077 .      S
C285  H318  1.081 .      S
C286  H319  1.081 .      S
C287  H320  1.060 .      S
H314  N94   1.038 1_545  S
C289  N97   1.456 .      S
C289  H321  1.098 .      S
C289  H322  1.108 .      S
C289  H323  1.106 .      S
N97   C290  1.452 .      S
N97   H324  1.033 1_655  S
C290  C291  1.500 1_655  S
C290  H325  1.101 .      S
C290  H326  1.102 .      S
C291  C290  1.500 1_455  S
N98   Zn23  2.135 1_545  S
C293  H327  1.068 1_545  S
C294  H328  1.081 .      S
C295  H329  1.081 .      S
C296  H330  1.064 .      S
H324  N97   1.033 1_455  S
H327  C293  1.068 1_565  S
C298  N100  1.434 1_554  S
C298  H331  1.093 1_454  S
C298  H332  1.107 1_455  S
C298  H333  1.102 .      S
N100  C298  1.434 1_556  S
N100  C299  1.433 1_556  S
N100  H334  1.037 .      S
C299  N100  1.433 1_554  S
C299  C300  1.454 .      S
C299  H335  1.102 .      S
C299  H336  1.107 .      S
C302  H337  1.075 .      S
C303  H338  1.081 .      S
C304  H339  1.081 .      S
C305  H340  1.067 .      S
H331  C298  1.093 1_656  S
H332  C298  1.107 1_655  S
C307  N103  1.424 .      S
C307  H341  1.105 .      S
C307  H342  1.100 .      S
C307  H343  1.088 .      S
N103  C308  1.435 .      S
N103  H344  1.031 .      S
C308  C309  1.451 .      S
C308  H345  1.100 .      S
C308  H346  1.102 .      S
C311  H347  1.061 .      S
C312  H348  1.081 .      S
C313  H349  1.081 .      S
C314  H350  1.073 1_545  S
N105  Zn25  2.140 1_545  S
H350  C314  1.073 1_565  S
C316  N106  1.447 1_545  S
C316  H351  1.107 .      S
C316  H352  1.106 .      S
C316  H353  1.108 .      S
N106  C316  1.447 1_565  S
N106  C317  1.445 .      S
N106  H354  1.044 .      S
C317  C318  1.496 .      S
C317  H355  1.095 .      S
C317  H356  1.096 .      S
C320  H357  1.067 .      S
C321  H358  1.081 .      S
C322  H359  1.080 .      S
C323  H360  1.073 .      S
C325  N109  1.448 .      S
C325  H361  1.102 .      S
C325  H362  1.105 .      S
C325  H363  1.096 .      S
N109  C326  1.459 .      S
N109  H364  1.036 .      S
C326  C327  1.439 .      S
C326  H365  1.091 .      S
C326  H366  1.103 .      S
N110  Zn45  2.114 1_545  S
C329  H367  1.070 1_545  S
C330  H368  1.076 .      S
C331  H369  1.078 .      S
C332  H370  1.068 .      S
H367  C329  1.070 1_565  S
C334  N112  1.453 .      S
C334  H371  1.108 .      S
C334  H372  1.109 .      S
C334  H373  1.107 .      S
N112  C335  1.456 .      S
N112  H374  1.043 .      S
C335  C336  1.482 .      S
C335  H375  1.087 .      S
C335  H376  1.098 .      S
C338  H377  1.060 .      S
C339  H378  1.080 .      S
C340  H379  1.081 .      S
C341  H380  1.080 .      S
C343  N115  1.450 .      S
C343  H381  1.106 .      S
C343  H382  1.105 .      S
C343  H383  1.106 .      S
N115  C344  1.445 .      S
N115  H384  1.032 .      S
C344  C345  1.496 .      S
C344  H385  1.104 .      S
C344  H386  1.104 .      S
C347  H387  1.064 .      S
C348  H388  1.060 .      S
C349  H389  1.079 1_665  S
C350  H390  1.065 .      S
N117  Zn27  2.185 1_655  S
H389  C349  1.079 1_445  S
C352  N118  1.452 .      S
C352  H391  1.105 .      S
C352  H392  1.108 .      S
C352  H393  1.109 .      S
N118  C353  1.451 .      S
N118  H394  1.045 .      S
C353  C354  1.491 .      S
C353  H395  1.100 .      S
C353  H396  1.097 .      S
C356  H397  1.070 .      S
C357  H398  1.081 .      S
C358  H399  1.081 .      S
C359  H400  1.073 .      S
C361  N121  1.450 .      S
C361  H401  1.098 .      S
C361  H402  1.104 .      S
C361  H403  1.090 .      S
N121  C362  1.438 .      S
N121  H404  1.042 .      S
C362  C363  1.464 .      S
C362  H405  1.096 .      S
C362  H406  1.087 .      S
C365  H407  1.065 .      S
C366  H408  1.076 .      S
C367  H409  1.067 .      S
C368  H410  1.046 1_545  S
N123  Zn27  2.221 1_545  S
H410  C368  1.046 1_565  S
C370  N124  1.450 .      S
C370  H411  1.105 .      S
C370  H412  1.107 .      S
C370  H413  1.101 .      S
N124  C371  1.455 .      S
N124  H414  1.043 .      S
C371  C372  1.463 .      S
C371  H415  1.090 .      S
C371  H416  1.093 .      S
C374  H417  1.072 1_556  S
C375  H418  1.081 .      S
C376  H419  1.081 .      S
C377  H420  1.064 .      S
H417  C374  1.072 1_554  S
C379  N127  1.454 .      S
C379  H421  1.104 .      S
C379  H422  1.108 .      S
C379  H423  1.108 .      S
N127  C380  1.446 .      S
N127  H424  1.037 .      S
C380  C381  1.493 .      S
C380  H425  1.089 .      S
C380  H426  1.099 .      S
C383  H427  1.069 .      S
C384  H428  1.080 .      S
C385  H429  1.081 .      S
C386  H430  1.057 .      S
C388  N130  1.453 .      S
C388  H431  1.109 .      S
C388  H432  1.109 .      S
C388  H433  1.110 .      S
N130  C389  1.453 .      S
N130  H434  1.043 .      S
C389  C390  1.485 .      S
C389  H435  1.101 .      S
C389  H436  1.107 .      S
C392  H437  1.071 .      S
C393  H438  1.067 .      S
C394  H439  1.081 .      S
C395  H440  1.067 .      S
C397  N133  1.455 .      S
C397  H441  1.105 .      S
C397  H442  1.104 .      S
C397  H443  1.106 .      S
N133  C398  1.444 .      S
N133  H444  1.042 .      S
C398  C399  1.491 .      S
C398  H445  1.104 .      S
C398  H446  1.105 .      S
C401  H447  1.069 .      S
C402  H448  1.081 .      S
C403  H449  1.081 .      S
C404  H450  1.065 .      S
C406  N136  1.450 .      S
C406  H451  1.108 .      S
C406  H452  1.107 1_545  S
C406  H453  1.105 1_545  S
N136  C407  1.450 .      S
N136  H454  1.043 .      S
C407  C408  1.464 .      S
C407  H455  1.103 .      S
C407  H456  1.104 .      S
C410  H457  1.075 .      S
C411  H458  1.073 .      S
C412  H459  1.059 .      S
C413  H460  1.078 .      S
H452  C406  1.107 1_565  S
H453  C406  1.105 1_565  S
C415  N139  1.450 .      S
C415  H461  1.101 .      S
C415  H462  1.105 .      S
C415  H463  1.107 .      S
N139  C416  1.439 .      S
N139  H464  1.040 .      S
C416  C417  1.484 .      S
C416  H465  1.109 .      S
C416  H466  1.099 .      S
C419  H467  1.065 .      S
C420  H468  1.080 .      S
C421  H469  1.081 .      S
C422  H470  1.078 .      S
C424  N142  1.446 .      S
C424  H471  1.106 .      S
C424  H472  1.097 .      S
C424  H473  1.103 .      S
N142  C425  1.455 .      S
N142  H474  1.043 .      S
C425  C426  1.472 .      S
C425  H475  1.103 .      S
C425  H476  1.102 .      S
C428  H477  1.073 .      S
C429  H478  1.081 1_554  S
C430  H479  1.081 .      S
C431  H480  1.078 .      S
H478  C429  1.081 1_556  S
C433  N145  1.450 .      S
C433  H481  1.104 .      S
C433  H482  1.105 .      S
C433  H483  1.106 .      S
N145  C434  1.444 .      S
N145  H484  1.040 .      S
C434  C435  1.475 .      S
C434  H485  1.106 .      S
C434  H486  1.096 .      S
C437  H487  1.065 .      S
C438  H488  1.081 .      S
C439  H489  1.081 .      S
C440  H490  1.066 .      S
C442  N148  1.455 .      S
C442  H491  1.102 .      S
C442  H492  1.084 .      S
C442  H493  1.099 .      S
N148  C443  1.451 .      S
N148  H494  1.033 .      S
C443  C444  1.480 .      S
C443  H495  1.097 .      S
C443  H496  1.064 .      S
C446  H497  1.076 .      S
C447  H498  1.080 .      S
C448  H499  1.080 .      S
C449  H500  1.066 1_545  S
N150  Zn1   2.085 1_545  S
H500  C449  1.066 1_565  S
C451  N151  1.459 .      S
C451  H501  1.107 .      S
C451  H502  1.095 .      S
C451  H503  1.102 .      S
N151  C452  1.454 .      S
N151  H504  1.040 .      S
C452  C453  1.474 .      S
C452  H505  1.104 .      S
C452  H506  1.103 .      S
C455  H507  1.049 .      S
C456  H508  1.073 .      S
C457  H509  1.077 .      S
C458  H510  1.046 .      S
C460  N154  1.453 .      S
C460  H511  1.104 .      S
C460  H512  1.105 .      S
C460  H513  1.107 .      S
N154  C461  1.451 .      S
N154  H514  1.036 .      S
C461  C462  1.488 .      S
C461  H515  1.089 .      S
C461  H516  1.095 .      S
C464  H517  1.053 .      S
C465  H518  1.081 .      S
C466  H519  1.081 .      S
C467  H520  1.072 .      S
C469  N157  1.446 .      S
C469  H521  1.107 .      S
C469  H522  1.100 .      S
C469  H523  1.105 .      S
N157  C470  1.448 .      S
N157  H524  1.037 1_556  S
C470  C471  1.459 1_556  S
C470  H525  1.099 .      S
C470  H526  1.085 .      S
C471  C470  1.459 1_554  S
N158  Zn55  2.236 1_554  S
C473  H527  1.067 .      S
C474  H528  1.077 .      S
C475  H529  1.080 .      S
C476  H530  1.070 .      S
H524  N157  1.037 1_554  S
C478  N160  1.455 .      S
C478  H531  1.106 .      S
C478  H532  1.101 .      S
C478  H533  1.107 1_554  S
N160  C479  1.437 .      S
N160  H534  1.036 .      S
C479  C480  1.485 .      S
C479  H535  1.085 .      S
C479  H536  1.107 .      S
C482  H537  1.071 .      S
C483  H538  1.066 .      S
C484  H539  1.068 .      S
C485  H540  1.069 .      S
N162  Zn57  2.190 1_554  S
H533  C478  1.107 1_556  S
C487  N163  1.451 .      S
C487  H541  1.089 .      S
C487  H542  1.108 .      S
C487  H543  1.100 .      S
N163  C488  1.447 .      S
N163  H544  1.039 .      S
C488  C489  1.481 .      S
C488  H545  1.079 .      S
C488  H546  1.094 .      S
C491  H547  1.074 .      S
C492  H548  1.073 .      S
C493  H549  1.070 .      S
C494  H550  1.075 .      S
C496  N166  1.461 .      S
C496  H551  1.091 .      S
C496  H552  1.099 .      S
C496  H553  1.096 .      S
N166  C497  1.463 .      S
N166  H554  1.042 .      S
C497  C498  1.450 .      S
C497  H555  1.098 .      S
C497  H556  1.073 .      S
C500  H557  1.075 .      S
C501  H558  1.081 .      S
C502  H559  1.081 .      S
C503  H560  1.081 .      S
N168  Zn56  2.214 1_554  S
C505  N169  1.453 .      S
C505  H561  1.105 .      S
C505  H562  1.107 .      S
C505  H563  1.110 .      S
N169  C506  1.442 .      S
N169  H564  1.039 .      S
C506  C507  1.493 1_556  S
C506  H565  1.101 .      S
C506  H566  1.105 1_556  S
C507  C506  1.493 1_554  S
C509  H567  1.058 .      S
C510  H568  1.070 .      S
C511  H569  1.062 .      S
C512  H570  1.067 .      S
N171  Zn58  2.230 1_554  S
H566  C506  1.105 1_554  S
C514  N172  1.436 .      S
C514  H571  1.086 .      S
C514  H572  1.107 .      S
C514  H573  1.100 .      S
N172  C515  1.451 .      S
N172  H574  1.041 .      S
C515  C516  1.467 .      S
C515  H575  1.101 .      S
C515  H576  1.079 .      S
C518  H577  1.067 .      S
C519  H578  1.077 .      S
C520  H579  1.079 .      S
C521  H580  1.072 .      S
C523  N175  1.445 .      S
C523  H581  1.102 .      S
C523  H582  1.101 1_554  S
C523  H583  1.107 1_554  S
N175  C524  1.454 1_554  S
N175  H584  1.043 .      S
C524  N175  1.454 1_556  S
C524  C525  1.462 1_556  S
C524  H585  1.106 .      S
C524  H586  1.087 .      S
C525  C524  1.462 1_554  S
C527  H587  1.059 .      S
C528  H588  1.079 .      S
C529  H589  1.069 .      S
C530  H590  1.077 .      S
N177  Zn22  2.084 1_554  S
H582  C523  1.101 1_556  S
H583  C523  1.107 1_556  S
C532  N178  1.436 1_455  S
C532  H591  1.091 .      S
C532  H592  1.101 .      S
C532  H593  1.101 .      S
N178  C532  1.436 1_655  S
N178  C533  1.438 .      S
N178  H594  1.035 .      S
C533  C534  1.451 .      S
C533  H595  1.087 .      S
C533  H596  1.108 1_655  S
N179  Zn24  2.138 1_655  S
C536  H597  1.060 .      S
C537  H598  1.045 .      S
C538  H599  1.076 .      S
C539  H600  1.077 .      S
H596  C533  1.108 1_455  S
C541  N181  1.435 .      S
C541  H601  1.105 .      S
C541  H602  1.097 .      S
C541  H603  1.098 .      S
N181  C542  1.449 1_556  S
N181  H604  1.036 1_556  S
C542  N181  1.449 1_554  S
C542  C543  1.458 .      S
C542  H605  1.076 .      S
C542  H606  1.085 .      S
N182  Zn37  1.953 1_545  S
C545  H607  1.074 1_545  S
C546  H608  1.066 1_655  S
C547  H609  1.074 1_655  S
C548  H610  1.072 .      S
H604  N181  1.036 1_554  S
H607  C545  1.074 1_565  S
H608  C546  1.066 1_455  S
H609  C547  1.074 1_455  S
C550  N184  1.454 .      S
C550  H611  1.097 .      S
C550  H612  1.108 .      S
C550  H613  1.106 .      S
N184  C551  1.438 .      S
N184  H614  1.040 .      S
C551  C552  1.476 .      S
C551  H615  1.050 .      S
C551  H616  1.108 .      S
C554  H617  1.080 .      S
C555  H618  1.071 .      S
C556  H619  1.078 .      S
C557  H620  1.069 .      S
C559  N187  1.442 .      S
C559  H621  1.096 .      S
C559  H622  1.106 .      S
C559  H623  1.108 .      S
N187  C560  1.444 .      S
N187  H624  1.026 .      S
C560  C561  1.482 .      S
C560  H625  1.102 .      S
C560  H626  1.091 .      S
C563  H627  1.066 .      S
C564  H628  1.076 1_655  S
C565  H629  1.068 1_655  S
C566  H630  1.055 .      S
H628  C564  1.076 1_455  S
H629  C565  1.068 1_455  S
C568  N190  1.450 .      S
C568  H631  1.108 1_655  S
C568  H632  1.105 1_655  S
C568  H633  1.108 .      S
N190  C569  1.454 .      S
N190  H634  1.044 .      S
C569  C570  1.476 .      S
C569  H635  1.095 .      S
C569  H636  1.100 .      S
C572  H637  1.072 .      S
C573  H638  1.081 .      S
C574  H639  1.081 .      S
C575  H640  1.076 .      S
H631  C568  1.108 1_455  S
H632  C568  1.105 1_455  S
C577  N193  1.428 .      S
C577  H641  1.091 .      S
C577  H642  1.095 .      S
C577  H643  1.102 .      S
N193  C578  1.423 .      S
N193  H644  1.035 .      S
C578  C579  1.445 .      S
C578  H645  1.097 .      S
C578  H646  1.104 .      S
C581  H647  1.076 .      S
C582  H648  1.081 .      S
C583  H649  1.081 .      S
C584  H650  1.058 1_655  S
N195  Zn62  2.199 1_655  S
H650  C584  1.058 1_455  S
C586  N196  1.459 .      S
C586  H651  1.106 .      S
C586  H652  1.109 .      S
C586  H653  1.104 .      S
N196  C587  1.443 .      S
N196  H654  1.037 .      S
C587  C588  1.499 .      S
C587  H655  1.094 .      S
C587  H656  1.098 .      S
C590  H657  1.073 .      S
C591  H658  1.076 .      S
C592  H659  1.074 .      S
C593  H660  1.074 .      S
C595  N199  1.446 .      S
C595  H661  1.102 .      S
C595  H662  1.107 .      S
C595  H663  1.100 .      S
N199  C596  1.443 .      S
N199  H664  1.040 .      S
C596  C597  1.477 .      S
C596  H665  1.087 .      S
C596  H666  1.088 .      S
C599  H667  1.058 .      S
C600  H668  1.079 .      S
C601  H669  1.072 .      S
C602  H670  1.069 .      S
C604  N202  1.449 .      S
C604  H671  1.100 .      S
C604  H672  1.104 .      S
C604  H673  1.106 .      S
N202  C605  1.447 .      S
N202  H674  1.039 .      S
C605  C606  1.467 .      S
C605  H675  1.099 .      S
C605  H676  1.093 .      S
C608  H677  1.056 .      S
C609  H678  1.077 .      S
C610  H679  1.068 .      S
C611  H680  1.073 .      S
C613  N205  1.436 1_455  S
C613  H681  1.104 .      S
C613  H682  1.085 .      S
C613  H683  1.106 .      S
N205  C613  1.436 1_655  S
N205  C614  1.453 .      S
N205  H684  1.033 .      S
C614  C615  1.475 .      S
C614  H685  1.104 .      S
C614  H686  1.102 1_655  S
N206  Zn23  2.060 1_655  S
C617  H687  1.052 .      S
C618  H688  1.078 .      S
C619  H689  1.056 .      S
C620  H690  1.056 .      S
H686  C614  1.102 1_455  S
C622  N208  1.441 .      S
C622  H691  1.100 .      S
C622  H692  1.094 .      S
C622  H693  1.096 .      S
N208  C623  1.448 .      S
N208  H694  1.028 .      S
C623  C624  1.477 .      S
C623  H695  1.085 .      S
C623  H696  1.096 .      S
C626  H697  1.060 .      S
C627  H698  1.072 .      S
C628  H699  1.079 .      S
C629  H700  1.058 .      S
C631  N211  1.439 .      S
C631  H701  1.100 .      S
C631  H702  1.108 .      S
C631  H703  1.102 .      S
N211  C632  1.446 1_545  S
N211  H704  1.040 1_545  S
C632  N211  1.446 1_565  S
C632  C633  1.440 .      S
C632  H705  1.072 .      S
C632  H706  1.098 .      S
C635  H707  1.076 .      S
C636  H708  1.074 .      S
C637  H709  1.077 .      S
C638  H710  1.068 .      S
H704  N211  1.040 1_565  S
C640  N214  1.455 .      S
C640  H711  1.100 .      S
C640  H712  1.108 .      S
C640  H713  1.103 .      S
N214  C641  1.442 1_556  S
N214  H714  1.043 .      S
C641  N214  1.442 1_554  S
C641  C642  1.478 .      S
C641  H715  1.108 1_554  S
C641  H716  1.079 .      S
C644  H717  1.078 .      S
C645  H718  1.081 .      S
C646  H719  1.081 .      S
C647  H720  1.067 .      S
H715  C641  1.108 1_556  S
C649  N217  1.455 .      S
C649  H721  1.086 .      S
C649  H722  1.103 .      S
C649  H723  1.102 .      S
N217  C650  1.448 .      S
N217  H724  1.036 .      S
C650  C651  1.485 .      S
C650  H725  1.106 .      S
C650  H726  1.107 .      S
C653  H727  1.073 .      S
C654  H728  1.063 .      S
C655  H729  1.062 .      S
C656  H730  1.064 1_655  S
N219  Zn38  2.109 1_556  S
H730  C656  1.064 1_455  S
C658  N220  1.454 .      S
C658  H731  1.109 .      S
C658  H732  1.108 .      S
C658  H733  1.105 .      S
N220  C659  1.456 .      S
N220  H734  1.039 .      S
C659  C660  1.482 .      S
C659  H735  1.105 .      S
C659  H736  1.105 .      S
C662  H737  1.063 .      S
C663  H738  1.081 .      S
C664  H739  1.081 .      S
C665  H740  1.057 .      S
C667  N223  1.455 1_455  S
C667  H741  1.105 .      S
C667  H742  1.105 1_455  S
C667  H743  1.105 .      S
N223  C667  1.455 1_655  S
N223  C668  1.451 .      S
N223  H744  1.034 1_655  S
C668  C669  1.492 .      S
C668  H745  1.103 1_655  S
C668  H746  1.088 .      S
C671  H747  1.078 .      S
C672  H748  1.079 .      S
C673  H749  1.055 .      S
C674  H750  1.073 .      S
N225  Zn38  2.183 1_655  S
H742  C667  1.105 1_655  S
H744  N223  1.034 1_455  S
H745  C668  1.103 1_455  S
C676  N226  1.455 .      S
C676  H751  1.100 .      S
C676  H752  1.101 .      S
C676  H753  1.104 .      S
N226  C677  1.448 .      S
N226  H754  1.030 .      S
C677  C678  1.459 .      S
C677  H755  1.106 .      S
C677  H756  1.079 .      S
C680  H757  1.055 .      S
C681  H758  1.076 .      S
C682  H759  1.077 .      S
C683  H760  1.074 .      S
N228  Zn39  2.070 1_556  S
C685  N229  1.456 .      S
C685  H761  1.109 .      S
C685  H762  1.107 .      S
C685  H763  1.108 .      S
N229  C686  1.452 .      S
N229  H764  1.040 .      S
C686  C687  1.489 .      S
C686  H765  1.104 .      S
C686  H766  1.105 .      S
C689  H767  1.068 .      S
C690  H768  1.079 1_554  S
C691  H769  1.061 .      S
C692  H770  1.075 .      S
H768  C690  1.079 1_556  S
C694  N232  1.453 .      S
C694  H771  1.109 .      S
C694  H772  1.108 .      S
C694  H773  1.107 .      S
N232  C695  1.452 1_556  S
N232  H774  1.040 1_556  S
C695  N232  1.452 1_554  S
C695  C696  1.484 .      S
C695  H775  1.099 .      S
C695  H776  1.104 1_554  S
C698  H777  1.079 .      S
C699  H778  1.081 .      S
C700  H779  1.077 .      S
C701  H780  1.075 .      S
H774  N232  1.040 1_554  S
H776  C695  1.104 1_556  S
C703  N235  1.453 .      S
C703  H781  1.108 .      S
C703  H782  1.107 .      S
C703  H783  1.105 .      S
N235  C704  1.452 .      S
N235  H784  1.039 .      S
C704  C705  1.482 .      S
C704  H785  1.107 .      S
C704  H786  1.106 .      S
C707  H787  1.056 .      S
C708  H788  1.081 .      S
C709  H789  1.078 .      S
C710  H790  1.066 1_554  S
H790  C710  1.066 1_556  S
C712  N238  1.454 .      S
C712  H791  1.109 .      S
C712  H792  1.106 .      S
C712  H793  1.108 .      S
N238  C713  1.456 .      S
N238  H794  1.040 .      S
C713  C714  1.490 .      S
C713  H795  1.103 .      S
C713  H796  1.097 .      S
C716  H797  1.076 .      S
C717  H798  1.081 .      S
C718  H799  1.081 .      S
C719  H800  1.075 .      S
C721  N241  1.444 .      S
C721  H801  1.107 .      S
C721  H802  1.105 .      S
C721  H803  1.100 .      S
N241  C722  1.453 .      S
N241  H804  1.028 .      S
C722  C723  1.450 .      S
C722  H805  1.100 .      S
C722  H806  1.089 .      S
C725  H807  1.065 .      S
C726  H808  1.075 .      S
C727  H809  1.067 .      S
C728  H810  1.036 .      S
C730  N244  1.454 .      S
C730  H811  1.102 .      S
C730  H812  1.106 .      S
C730  H813  1.104 .      S
N244  C731  1.445 .      S
N244  H814  1.032 .      S
C731  C732  1.492 .      S
C731  H815  1.109 .      S
C731  H816  1.104 .      S
C734  H817  1.053 .      S
C735  H818  1.081 .      S
C736  H819  1.081 .      S
C737  H820  1.023 .      S
C739  N247  1.454 .      S
C739  H821  1.109 .      S
C739  H822  1.104 .      S
C739  H823  1.106 .      S
N247  C740  1.458 .      S
N247  H824  1.043 .      S
C740  C741  1.480 .      S
C740  H825  1.096 .      S
C740  H826  1.096 .      S
C743  H827  1.075 .      S
C744  H828  1.081 .      S
C745  H829  1.081 .      S
C746  H830  1.076 .      S
C748  N250  1.451 .      S
C748  H831  1.107 .      S
C748  H832  1.109 .      S
C748  H833  1.110 .      S
N250  C749  1.439 .      S
N250  H834  1.033 .      S
C749  C750  1.498 .      S
C749  H835  1.097 .      S
C749  H836  1.082 .      S
C752  H837  1.070 .      S
C753  H838  1.081 .      S
C754  H839  1.081 .      S
C755  H840  1.069 .      S
C757  N253  1.443 .      S
C757  H841  1.105 .      S
C757  H842  1.106 .      S
C757  H843  1.107 .      S
N253  C758  1.446 .      S
N253  H844  1.040 .      S
C758  C759  1.478 .      S
C758  H845  1.094 .      S
C758  H846  1.096 .      S
C761  H847  1.064 .      S
C762  H848  1.081 .      S
C763  H849  1.081 .      S
C764  H850  1.060 .      S
C766  N256  1.447 .      S
C766  H851  1.106 .      S
C766  H852  1.098 .      S
C766  H853  1.104 .      S
N256  C767  1.449 .      S
N256  H854  1.031 .      S
C767  C768  1.496 .      S
C767  H855  1.088 .      S
C767  H856  1.102 .      S
C770  H857  1.080 .      S
C771  H858  1.080 .      S
C772  H859  1.080 .      S
C773  H860  1.070 .      S
C775  N259  1.443 .      S
C775  H861  1.098 .      S
C775  H862  1.108 .      S
C775  H863  1.098 .      S
N259  C776  1.453 .      S
N259  H864  1.030 .      S
C776  C777  1.424 .      S
C776  H865  1.088 .      S
C776  H866  1.102 .      S
C779  H867  1.075 .      S
C780  H868  1.079 .      S
C781  H869  1.079 .      S
C782  H870  1.055 .      S
C784  N262  1.438 .      S
C784  H871  1.107 .      S
C784  H872  1.099 .      S
C784  H873  1.094 .      S
N262  C785  1.447 .      S
N262  H874  1.041 .      S
C785  C786  1.462 .      S
C785  H875  1.095 .      S
C785  H876  1.096 .      S
C788  H877  1.070 .      S
C789  H878  1.078 .      S
C790  H879  1.081 .      S
C791  H880  1.076 .      S
C793  N265  1.447 .      S
C793  H881  1.099 .      S
C793  H882  1.105 .      S
C793  H883  1.106 .      S
N265  C794  1.441 .      S
N265  H884  1.042 .      S
C794  C795  1.475 .      S
C794  H885  1.086 .      S
C794  H886  1.084 .      S
C797  H887  1.063 .      S
C798  H888  1.080 .      S
C799  H889  1.081 .      S
C800  H890  1.058 .      S
C802  N268  1.448 .      S
C802  H891  1.107 .      S
C802  H892  1.085 .      S
C802  H893  1.102 .      S
N268  C803  1.445 .      S
N268  H894  1.040 .      S
C803  C804  1.474 1_545  S
C803  H895  1.073 .      S
C803  H896  1.086 .      S
C804  C803  1.474 1_565  S
C806  H897  1.074 .      S
C807  H898  1.079 .      S
C808  H899  1.078 .      S
C809  H900  1.054 .      S
C811  N271  1.434 .      S
C811  H901  1.068 .      S
C811  H902  1.068 .      S
C811  H903  1.104 .      S
N271  C812  1.441 .      S
N271  H904  1.027 .      S
C812  C813  1.459 .      S
C812  H905  1.085 .      S
C812  H906  1.090 .      S
C815  H907  1.069 .      S
C816  H908  1.081 .      S
C817  H909  1.081 .      S
C818  H910  1.080 .      S
C820  N274  1.451 .      S
C820  H911  1.107 .      S
C820  H912  1.099 .      S
C820  H913  1.104 .      S
N274  C821  1.457 .      S
N274  H914  1.041 .      S
C821  C822  1.473 .      S
C821  H915  1.094 .      S
C821  H916  1.096 .      S
N275  Zn7   2.106 1_545  S
C824  H917  1.079 1_545  S
C825  H918  1.081 .      S
C826  H919  1.081 .      S
C827  H920  1.070 .      S
H917  C824  1.079 1_565  S
C829  N277  1.454 .      S
C829  H921  1.107 .      S
C829  H922  1.109 .      S
C829  H923  1.107 .      S
N277  C830  1.449 .      S
N277  H924  1.035 .      S
C830  C831  1.492 .      S
C830  H925  1.108 .      S
C830  H926  1.108 .      S
C833  H927  1.076 .      S
C834  H928  1.079 .      S
C835  H929  1.081 .      S
C836  H930  1.069 .      S
C838  N280  1.443 .      S
C838  H931  1.094 .      S
C838  H932  1.078 .      S
C838  H933  1.097 .      S
N280  C839  1.438 .      S
N280  H934  1.034 .      S
C839  C840  1.410 .      S
C839  H935  1.094 .      S
C839  H936  1.075 .      S
C842  H937  1.055 .      S
C843  H938  1.042 .      S
C844  H939  1.066 .      S
C845  H940  1.067 .      S
C847  N283  1.452 .      S
C847  H941  1.107 .      S
C847  H942  1.106 .      S
C847  H943  1.107 .      S
N283  C848  1.445 .      S
N283  H944  1.044 .      S
C848  C849  1.459 .      S
C848  H945  1.102 .      S
C848  H946  1.101 .      S
C851  H947  1.079 .      S
C852  H948  1.081 .      S
C853  H949  1.081 .      S
C854  H950  1.074 .      S
C856  N286  1.455 .      S
C856  H951  1.109 .      S
C856  H952  1.108 .      S
C856  H953  1.109 .      S
N286  C857  1.453 .      S
N286  H954  1.039 .      S
C857  C858  1.495 .      S
C857  H955  1.079 .      S
C857  H956  1.095 .      S
C860  H957  1.080 .      S
C861  H958  1.080 .      S
C862  H959  1.081 .      S
C863  H960  1.079 .      S
C865  N289  1.434 .      S
C865  H961  1.096 .      S
C865  H962  1.090 .      S
C865  H963  1.079 .      S
N289  C866  1.433 .      S
N289  H964  1.036 .      S
C866  C867  1.461 .      S
C866  H965  1.066 .      S
C866  H966  1.102 .      S
C869  H967  1.080 .      S
C870  H968  1.081 .      S
C871  H969  1.081 .      S
C872  H970  1.061 .      S
C874  N292  1.445 .      S
C874  H971  1.105 1_556  S
C874  H972  1.102 .      S
C874  H973  1.104 .      S
N292  C875  1.451 .      S
N292  H974  1.030 .      S
C875  C876  1.476 .      S
C875  H975  1.107 .      S
C875  H976  1.075 .      S
C878  H977  1.071 .      S
C879  H978  1.078 .      S
C880  H979  1.076 .      S
C881  H980  1.073 .      S
H971  C874  1.105 1_554  S
C883  N295  1.448 .      S
C883  H981  1.104 .      S
C883  H982  1.107 .      S
C883  H983  1.103 .      S
N295  C884  1.442 .      S
N295  H984  1.041 .      S
C884  C885  1.470 .      S
C884  H985  1.100 .      S
C884  H986  1.106 .      S
C887  H987  1.069 .      S
C888  H988  1.079 .      S
C889  H989  1.074 .      S
C890  H990  1.072 .      S
C892  N298  1.443 .      S
C892  H991  1.099 .      S
C892  H992  1.102 .      S
C892  H993  1.082 1_565  S
N298  C893  1.442 1_565  S
N298  H994  1.044 1_565  S
C893  N298  1.442 1_545  S
C893  C894  1.467 .      S
C893  H995  1.096 .      S
C893  H996  1.106 .      S
C896  H997  1.058 .      S
C897  H998  1.061 .      S
C898  H999  1.064 .      S
C899  H1000 1.052 .      S
H993  C892  1.082 1_545  S
H994  N298  1.044 1_545  S
C901  N301  1.454 1_565  S
C901  H1001 1.108 .      S
C901  H1002 1.102 .      S
C901  H1003 1.108 .      S
N301  C901  1.454 1_545  S
N301  C902  1.452 1_545  S
N301  H1004 1.037 .      S
C902  N301  1.452 1_565  S
C902  C903  1.479 .      S
C902  H1005 1.085 .      S
C902  H1006 1.099 1_565  S
C905  H1007 1.074 .      S
C906  H1008 1.081 .      S
C907  H1009 1.081 1_545  S
C908  H1010 1.059 .      S
H1006 C902  1.099 1_545  S
H1009 C907  1.081 1_565  S
C910  N304  1.448 .      S
C910  H1011 1.107 .      S
C910  H1012 1.101 .      S
C910  H1013 1.101 .      S
N304  C911  1.450 .      S
N304  H1014 1.042 .      S
C911  C912  1.482 .      S
C911  H1015 1.102 .      S
C911  H1016 1.107 .      S
C914  H1017 1.075 .      S
C915  H1018 1.080 .      S
C916  H1019 1.081 .      S
C917  H1020 1.079 .      S
C919  N307  1.421 .      S
C919  H1021 1.084 .      S
C919  H1022 1.094 .      S
C919  H1023 1.098 .      S
N307  C920  1.428 .      S
N307  H1024 1.030 .      S
C920  C921  1.428 .      S
C920  H1025 1.093 .      S
C920  H1026 1.089 .      S
C923  H1027 1.061 .      S
C924  H1028 1.081 .      S
C925  H1029 1.081 .      S
C926  H1030 1.080 .      S
C928  N310  1.452 .      S
C928  H1031 1.103 .      S
C928  H1032 1.090 .      S
C928  H1033 1.084 .      S
N310  C929  1.466 .      S
N310  H1034 1.042 .      S
C929  C930  1.476 .      S
C929  H1035 1.073 .      S
C929  H1036 1.080 .      S
C932  H1037 1.073 .      S
C933  H1038 1.081 .      S
C934  H1039 1.081 .      S
C935  H1040 1.066 .      S
C937  N313  1.418 .      S
C937  H1041 1.089 .      S
C937  H1042 1.102 .      S
C937  H1043 1.099 .      S
N313  C938  1.419 .      S
N313  H1044 1.030 .      S
C938  C939  1.443 .      S
C938  H1045 1.099 .      S
C938  H1046 1.107 .      S
C941  H1047 1.078 .      S
C942  H1048 1.077 .      S
C943  H1049 1.081 .      S
C944  H1050 1.078 .      S
C946  N316  1.444 .      S
C946  H1051 1.089 .      S
C946  H1052 1.094 .      S
C946  H1053 1.104 .      S
N316  C947  1.446 .      S
N316  H1054 1.039 .      S
C947  C948  1.457 .      S
C947  H1055 1.098 .      S
C947  H1056 1.105 .      S
C950  H1057 1.071 .      S
C951  H1058 1.081 .      S
C952  H1059 1.081 .      S
C953  H1060 1.072 .      S
C955  N319  1.449 .      S
C955  H1061 1.108 .      S
C955  H1062 1.106 .      S
C955  H1063 1.103 .      S
N319  C956  1.461 .      S
N319  H1064 1.039 .      S
C956  C957  1.478 .      S
C956  H1065 1.105 .      S
C956  H1066 1.097 .      S
C959  H1067 1.042 .      S
C960  H1068 1.078 .      S
C961  H1069 1.062 .      S
C962  H1070 1.030 .      S
C964  N322  1.453 .      S
C964  H1071 1.107 .      S
C964  H1072 1.109 .      S
C964  H1073 1.109 1_565  S
N322  C965  1.445 .      S
N322  H1074 1.037 .      S
C965  C966  1.484 .      S
C965  H1075 1.077 .      S
C965  H1076 1.098 .      S
C968  H1077 1.075 .      S
C969  H1078 1.081 .      S
C970  H1079 1.081 .      S
C971  H1080 1.078 .      S
H1073 C964  1.109 1_545  S
C973  N325  1.465 .      S
C973  H1081 1.103 .      S
C973  H1082 1.096 .      S
C973  H1083 1.109 .      S
N325  C974  1.456 .      S
N325  H1084 1.036 .      S
C974  C975  1.459 .      S
C974  H1085 1.084 .      S
C974  H1086 1.082 .      S
C977  H1087 1.077 .      S
C978  H1088 1.081 .      S
C979  H1089 1.081 .      S
C980  H1090 1.081 .      S
N327  Zn51  2.104 1_545  S
C982  N328  1.453 1_545  S
C982  H1091 1.108 .      S
C982  H1092 1.107 .      S
C982  H1093 1.108 .      S
N328  C982  1.453 1_565  S
N328  C983  1.454 1_565  S
N328  H1094 1.040 .      S
C983  N328  1.454 1_545  S
C983  C984  1.472 1_545  S
C983  H1095 1.097 .      S
C983  H1096 1.094 .      S
C984  C983  1.472 1_565  S
C986  H1097 1.080 .      S
C987  H1098 1.081 .      S
C988  H1099 1.081 .      S
C989  H1100 1.075 .      S
N330  Zn51  2.201 1_455  S
C991  N331  1.437 .      S
C991  H1101 1.102 .      S
C991  H1102 1.094 .      S
C991  H1103 1.093 .      S
N331  C992  1.440 .      S
N331  H1104 1.041 .      S
C992  C993  1.435 .      S
C992  H1105 1.095 .      S
C992  H1106 1.097 .      S
C995  H1107 1.066 .      S
C996  H1108 1.081 .      S
C997  H1109 1.077 .      S
C998  H1110 1.052 .      S
C1000 N334  1.453 .      S
C1000 H1111 1.108 .      S
C1000 H1112 1.107 .      S
C1000 H1113 1.106 .      S
N334  C1001 1.456 .      S
N334  H1114 1.043 .      S
C1001 C1002 1.503 .      S
C1001 H1115 1.101 .      S
C1001 H1116 1.103 .      S
C1004 H1117 1.073 .      S
C1005 H1118 1.081 .      S
C1006 H1119 1.081 .      S
C1007 H1120 1.079 .      S
C1009 N337  1.451 .      S
C1009 H1121 1.109 .      S
C1009 H1122 1.100 .      S
C1009 H1123 1.109 .      S
N337  C1010 1.453 .      S
N337  H1124 1.037 .      S
C1010 C1011 1.486 .      S
C1010 H1125 1.100 .      S
C1010 H1126 1.095 .      S
C1013 H1127 1.058 .      S
C1014 H1128 1.070 .      S
C1015 H1129 1.063 .      S
C1016 H1130 1.069 .      S
C1018 N340  1.410 .      S
C1018 H1131 1.089 .      S
C1018 H1132 1.098 .      S
C1018 H1133 1.098 .      S
N340  C1019 1.421 .      S
N340  H1134 1.042 .      S
C1019 C1020 1.388 .      S
C1019 H1135 1.089 .      S
C1019 H1136 1.080 .      S
C1022 H1137 1.080 .      S
C1023 H1138 1.081 .      S
C1024 H1139 1.079 .      S
C1025 H1140 1.080 .      S
C1027 N343  1.453 .      S
C1027 H1141 1.109 .      S
C1027 H1142 1.107 .      S
C1027 H1143 1.110 .      S
N343  C1028 1.453 .      S
N343  H1144 1.044 .      S
C1028 C1029 1.484 .      S
C1028 H1145 1.108 .      S
C1028 H1146 1.101 .      S
C1031 H1147 1.066 .      S
C1032 H1148 1.078 .      S
C1033 H1149 1.081 .      S
C1034 H1150 1.059 .      S
C1036 N346  1.458 .      S
C1036 H1151 1.104 .      S
C1036 H1152 1.102 .      S
C1036 H1153 1.107 .      S
N346  C1037 1.448 .      S
N346  H1154 1.037 .      S
C1037 C1038 1.479 .      S
C1037 H1155 1.084 .      S
C1037 H1156 1.101 .      S
C1040 H1157 1.076 .      S
C1041 H1158 1.081 .      S
C1042 H1159 1.081 .      S
C1043 H1160 1.074 .      S
C1045 N349  1.450 .      S
C1045 H1161 1.104 .      S
C1045 H1162 1.103 .      S
C1045 H1163 1.108 .      S
N349  C1046 1.432 .      S
N349  H1164 1.043 .      S
C1046 C1047 1.486 .      S
C1046 H1165 1.092 .      S
C1046 H1166 1.098 .      S
C1049 H1167 1.074 .      S
C1050 H1168 1.081 .      S
C1051 H1169 1.081 .      S
C1052 H1170 1.080 .      S
C1054 N352  1.450 .      S
C1054 H1171 1.107 .      S
C1054 H1172 1.108 .      S
C1054 H1173 1.107 .      S
N352  C1055 1.458 .      S
N352  H1174 1.038 .      S
C1055 C1056 1.466 .      S
C1055 H1175 1.103 .      S
C1055 H1176 1.098 .      S
C1058 H1177 1.037 .      S
C1059 H1178 1.062 .      S
C1060 H1179 1.076 .      S
C1061 H1180 1.048 .      S
C1063 N355  1.450 .      S
C1063 H1181 1.102 .      S
C1063 H1182 1.107 .      S
C1063 H1183 1.108 .      S
N355  C1064 1.449 .      S
N355  H1184 1.039 .      S
C1064 C1065 1.479 .      S
C1064 H1185 1.105 .      S
C1064 H1186 1.108 .      S
C1067 H1187 1.063 .      S
C1068 H1188 1.081 .      S
C1069 H1189 1.081 .      S
C1070 H1190 1.076 .      S
C1072 N358  1.449 .      S
C1072 H1191 1.104 .      S
C1072 H1192 1.106 .      S
C1072 H1193 1.091 .      S
N358  C1073 1.446 .      S
N358  H1194 1.044 .      S
C1073 C1074 1.488 .      S
C1073 H1195 1.092 .      S
C1073 H1196 1.086 .      S
C1076 H1197 1.079 .      S
C1077 H1198 1.081 .      S
C1078 H1199 1.081 .      S
C1079 H1200 1.078 .      S
C1081 N361  1.453 .      S
C1081 H1201 1.110 .      S
C1081 H1202 1.109 .      S
C1081 H1203 1.108 .      S
N361  C1082 1.454 .      S
N361  H1204 1.044 .      S
C1082 C1083 1.489 .      S
C1082 H1205 1.100 .      S
C1082 H1206 1.105 .      S
C1085 H1207 1.079 1_556  S
C1086 H1208 1.080 .      S
C1087 H1209 1.078 .      S
C1088 H1210 1.064 .      S
N363  Zn55  2.121 1_554  S
H1207 C1085 1.079 1_554  S
C1090 N364  1.450 .      S
C1090 H1211 1.101 .      S
C1090 H1212 1.108 .      S
C1090 H1213 1.107 .      S
N364  C1091 1.439 .      S
N364  H1214 1.043 .      S
C1091 C1092 1.481 .      S
C1091 H1215 1.091 .      S
C1091 H1216 1.109 .      S
N365  Zn56  2.152 1_554  S
C1094 H1217 1.079 .      S
C1095 H1218 1.081 .      S
C1096 H1219 1.081 .      S
C1097 H1220 1.068 .      S
C1099 N367  1.446 .      S
C1099 H1221 1.093 .      S
C1099 H1222 1.109 .      S
C1099 H1223 1.108 .      S
N367  C1100 1.468 .      S
N367  H1224 1.030 .      S
C1100 C1101 1.446 1_554  S
C1100 H1225 1.103 .      S
C1100 H1226 1.107 .      S
C1101 C1100 1.446 1_556  S
C1103 H1227 1.073 .      S
C1104 H1228 1.055 .      S
C1105 H1229 1.064 .      S
C1106 H1230 1.074 .      S
C1108 N370  1.455 .      S
C1108 H1231 1.108 .      S
C1108 H1232 1.109 .      S
C1108 H1233 1.105 .      S
N370  C1109 1.453 .      S
N370  H1234 1.042 .      S
C1109 C1110 1.482 .      S
C1109 H1235 1.098 .      S
C1109 H1236 1.106 .      S
N371  Zn57  2.053 1_554  S
C1112 H1237 1.063 .      S
C1113 H1238 1.074 .      S
C1114 H1239 1.079 .      S
C1115 H1240 1.078 .      S
C1117 N373  1.438 .      S
C1117 H1241 1.091 .      S
C1117 H1242 1.077 .      S
C1117 H1243 1.098 .      S
N373  C1118 1.457 .      S
N373  H1244 1.041 .      S
C1118 C1119 1.445 1_554  S
C1118 H1245 1.104 .      S
C1118 H1246 1.087 .      S
C1119 C1118 1.445 1_556  S
C1121 H1247 1.069 .      S
C1122 H1248 1.074 .      S
C1123 H1249 1.044 .      S
C1124 H1250 1.071 .      S
C1126 N376  1.449 .      S
C1126 H1251 1.108 .      S
C1126 H1252 1.108 .      S
C1126 H1253 1.108 .      S
N376  C1127 1.455 .      S
N376  H1254 1.044 .      S
C1127 C1128 1.483 .      S
C1127 H1255 1.107 .      S
C1127 H1256 1.105 .      S
C1130 H1257 1.079 1_556  S
C1131 H1258 1.081 .      S
C1132 H1259 1.081 .      S
C1133 H1260 1.070 .      S
N378  Zn58  2.106 1_554  S
H1257 C1130 1.079 1_554  S
C1135 N379  1.441 .      S
C1135 H1261 1.104 .      S
C1135 H1262 1.106 .      S
C1135 H1263 1.106 .      S
N379  C1136 1.449 .      S
N379  H1264 1.037 .      S
C1136 C1137 1.465 .      S
C1136 H1265 1.097 .      S
C1136 H1266 1.096 .      S
C1139 H1267 1.074 .      S
C1140 H1268 1.081 .      S
C1141 H1269 1.081 .      S
C1142 H1270 1.073 .      S
C1144 N382  1.454 .      S
C1144 H1271 1.108 .      S
C1144 H1272 1.104 .      S
C1144 H1273 1.097 .      S
N382  C1145 1.450 .      S
N382  H1274 1.036 .      S
C1145 C1146 1.478 .      S
C1145 H1275 1.086 .      S
C1145 H1276 1.104 .      S
C1148 H1277 1.063 .      S
C1149 H1278 1.060 .      S
C1150 H1279 1.061 .      S
C1151 H1280 1.066 .      S
C1153 N385  1.454 .      S
C1153 H1281 1.108 .      S
C1153 H1282 1.107 .      S
C1153 H1283 1.109 .      S
N385  C1154 1.450 .      S
N385  H1284 1.042 .      S
C1154 C1155 1.485 .      S
C1154 H1285 1.095 .      S
C1154 H1286 1.079 .      S
C1157 H1287 1.074 .      S
C1158 H1288 1.081 .      S
C1159 H1289 1.081 1_554  S
C1160 H1290 1.078 .      S
H1289 C1159 1.081 1_556  S
C1162 N388  1.461 .      S
C1162 H1291 1.100 .      S
C1162 H1292 1.099 .      S
C1162 H1293 1.105 .      S
N388  C1163 1.456 .      S
N388  H1294 1.034 .      S
C1163 C1164 1.433 .      S
C1163 H1295 1.094 .      S
C1163 H1296 1.091 .      S
C1166 H1297 1.058 .      S
C1167 H1298 1.076 .      S
C1168 H1299 1.080 .      S
C1169 H1300 1.054 .      S
C1171 N391  1.450 .      S
C1171 H1301 1.099 .      S
C1171 H1302 1.102 .      S
C1171 H1303 1.102 .      S
N391  C1172 1.444 .      S
N391  H1304 1.025 .      S
C1172 C1173 1.478 .      S
C1172 H1305 1.080 .      S
C1172 H1306 1.091 .      S
C1175 H1307 1.072 .      S
C1176 H1308 1.081 .      S
C1177 H1309 1.081 .      S
C1178 H1310 1.081 .      S
C1180 N394  1.438 .      S
C1180 H1311 1.101 .      S
C1180 H1312 1.096 .      S
C1180 H1313 1.094 .      S
N394  C1181 1.445 .      S
N394  H1314 1.041 .      S
C1181 C1182 1.453 .      S
C1181 H1315 1.093 .      S
C1181 H1316 1.095 .      S
C1184 H1317 1.039 .      S
C1185 H1318 1.068 .      S
C1186 H1319 1.069 .      S
C1187 H1320 1.055 .      S
C3    N2    1.386 .      A
C3    N3    1.380 .      A
N2    C4    1.346 .      A
C4    C5    1.373 .      A
C4    C9    1.368 .      A
C5    C6    1.383 .      A
C6    C7    1.389 .      A
C7    C8    1.384 .      A
C8    C9    1.370 .      A
C9    N3    1.349 .      A
C12   N5    1.372 .      A
C12   N6    1.384 .      A
N5    C13   1.356 .      A
C13   C14   1.371 .      A
C13   C18   1.360 .      A
C14   C15   1.383 .      A
C15   C16   1.385 .      A
C16   C17   1.380 .      A
C17   C18   1.375 .      A
C18   N6    1.341 .      A
C21   N8    1.382 .      A
C21   N9    1.392 1_565  A
N8    C22   1.349 .      A
C22   C23   1.370 .      A
C22   C27   1.358 1_565  A
C23   C24   1.384 .      A
C24   C25   1.386 1_565  A
C25   C24   1.386 1_545  A
C25   C26   1.381 .      A
C26   C27   1.367 .      A
C27   C22   1.358 1_545  A
C27   N9    1.338 .      A
N9    C21   1.392 1_545  A
C30   N11   1.384 .      A
C30   N12   1.388 .      A
N11   C31   1.349 .      A
C31   C32   1.373 .      A
C31   C36   1.364 .      A
C32   C33   1.383 .      A
C33   C34   1.388 .      A
C34   C35   1.384 .      A
C35   C36   1.373 .      A
C36   N12   1.347 .      A
C39   N14   1.383 .      A
C39   N15   1.383 .      A
N14   C40   1.321 .      A
C40   C41   1.354 .      A
C40   C45   1.349 .      A
C41   C42   1.367 .      A
C42   C43   1.385 .      A
C43   C44   1.370 .      A
C44   C45   1.347 .      A
C45   N15   1.334 .      A
C48   N17   1.369 .      A
C48   N18   1.372 .      A
N17   C49   1.339 .      A
C49   C50   1.372 .      A
C49   C54   1.350 .      A
C50   C51   1.380 .      A
C51   C52   1.385 .      A
C52   C53   1.383 .      A
C53   C54   1.370 .      A
C54   N18   1.352 .      A
C57   N20   1.383 .      A
C57   N21   1.389 .      A
N20   C58   1.340 .      A
C58   C59   1.362 .      A
C58   C63   1.353 .      A
C59   C60   1.376 .      A
C60   C61   1.380 .      A
C61   C62   1.384 .      A
C62   C63   1.365 .      A
C63   N21   1.350 .      A
C66   N23   1.374 .      A
C66   N24   1.372 .      A
N23   C67   1.348 .      A
C67   C68   1.371 .      A
C67   C72   1.367 .      A
C68   C69   1.385 .      A
C69   C70   1.390 .      A
C70   C71   1.384 .      A
C71   C72   1.373 .      A
C72   N24   1.347 .      A
C75   N26   1.381 .      A
C75   N27   1.378 .      A
N26   C76   1.347 .      A
C76   C77   1.368 .      A
C76   C81   1.355 .      A
C77   C78   1.378 .      A
C78   C79   1.379 .      A
C79   C80   1.376 .      A
C80   C81   1.368 .      A
C81   N27   1.347 .      A
C84   N29   1.374 .      A
C84   N30   1.405 .      A
N29   C85   1.346 .      A
C85   C86   1.356 .      A
C85   C90   1.352 .      A
C86   C87   1.384 .      A
C87   C88   1.376 .      A
C88   C89   1.357 .      A
C89   C90   1.348 .      A
C90   N30   1.325 .      A
C93   N32   1.375 .      A
C93   N33   1.391 .      A
N32   C94   1.348 .      A
C94   C95   1.386 .      A
C94   C99   1.354 .      A
C95   C96   1.374 .      A
C96   C97   1.371 .      A
C97   C98   1.375 .      A
C98   C99   1.367 .      A
C99   N33   1.360 .      A
C102  N35   1.395 .      A
C102  N36   1.389 .      A
N35   C103  1.332 .      A
C103  C104  1.359 .      A
C103  C108  1.353 .      A
C104  C105  1.372 .      A
C105  C106  1.379 .      A
C106  C107  1.381 .      A
C107  C108  1.359 .      A
C108  N36   1.342 .      A
C111  N38   1.383 .      A
C111  N39   1.379 1_565  A
N38   C112  1.355 .      A
C112  C113  1.374 .      A
C112  C117  1.374 1_565  A
C113  C114  1.382 .      A
C114  C115  1.385 1_565  A
C115  C114  1.385 1_545  A
C115  C116  1.381 .      A
C116  C117  1.369 .      A
C117  C112  1.374 1_545  A
C117  N39   1.348 .      A
N39   C111  1.379 1_545  A
C120  N41   1.392 .      A
C120  N42   1.393 .      A
N41   C121  1.345 .      A
C121  C122  1.372 .      A
C121  C126  1.361 .      A
C122  C123  1.381 1_545  A
C123  C122  1.381 1_565  A
C123  C124  1.378 1_565  A
C124  C123  1.378 1_545  A
C124  C125  1.378 .      A
C125  C126  1.371 .      A
C126  N42   1.355 .      A
C129  N44   1.382 .      A
C129  N45   1.383 .      A
N44   C130  1.340 .      A
C130  C131  1.373 .      A
C130  C135  1.359 .      A
C131  C132  1.378 .      A
C132  C133  1.382 .      A
C133  C134  1.383 .      A
C134  C135  1.372 .      A
C135  N45   1.355 .      A
C138  N47   1.383 .      A
C138  N48   1.384 .      A
N47   C139  1.335 .      A
C139  C140  1.335 .      A
C139  C144  1.349 .      A
C140  C141  1.378 .      A
C141  C142  1.387 .      A
C142  C143  1.377 .      A
C143  C144  1.363 .      A
C144  N48   1.329 .      A
C147  N50   1.394 .      A
C147  N51   1.373 .      A
N50   C148  1.348 .      A
C148  C149  1.371 .      A
C148  C153  1.364 .      A
C149  C150  1.380 .      A
C150  C151  1.380 .      A
C151  C152  1.379 .      A
C152  C153  1.377 .      A
C153  N51   1.349 .      A
C156  N53   1.382 .      A
C156  N54   1.397 .      A
N53   C157  1.325 .      A
C157  C158  1.366 .      A
C157  C162  1.361 .      A
C158  C159  1.364 .      A
C159  C160  1.367 .      A
C160  C161  1.385 .      A
C161  C162  1.365 .      A
C162  N54   1.359 .      A
C165  N56   1.389 .      A
C165  N57   1.400 .      A
N56   C166  1.335 .      A
C166  C167  1.364 1_565  A
C166  C171  1.355 .      A
C167  C166  1.364 1_545  A
C167  C168  1.370 .      A
C168  C169  1.386 .      A
C169  C170  1.384 1_545  A
C170  C169  1.384 1_565  A
C170  C171  1.361 .      A
C171  N57   1.345 .      A
C174  N59   1.383 .      A
C174  N60   1.386 .      A
N59   C175  1.328 .      A
C175  C176  1.345 .      A
C175  C180  1.344 .      A
C176  C177  1.361 .      A
C177  C178  1.364 .      A
C178  C179  1.382 .      A
C179  C180  1.352 .      A
C180  N60   1.344 .      A
C183  N62   1.382 .      A
C183  N63   1.372 .      A
N62   C184  1.360 .      A
C184  C185  1.376 .      A
C184  C189  1.364 .      A
C185  C186  1.381 .      A
C186  C187  1.383 .      A
C187  C188  1.380 .      A
C188  C189  1.375 .      A
C189  N63   1.344 .      A
C192  N65   1.389 .      A
C192  N66   1.386 .      A
N65   C193  1.344 .      A
C193  C194  1.372 .      A
C193  C198  1.370 .      A
C194  C195  1.384 .      A
C195  C196  1.391 .      A
C196  C197  1.386 .      A
C197  C198  1.371 .      A
C198  N66   1.352 .      A
C201  N68   1.369 .      A
C201  N69   1.368 1_655  A
N68   C202  1.356 1_655  A
C202  N68   1.356 1_455  A
C202  C203  1.376 .      A
C202  C207  1.371 .      A
C203  C204  1.383 .      A
C204  C205  1.386 .      A
C205  C206  1.381 .      A
C206  C207  1.378 .      A
C207  N69   1.351 .      A
N69   C201  1.368 1_455  A
C210  N71   1.391 .      A
C210  N72   1.377 .      A
N71   C211  1.352 .      A
C211  C212  1.374 .      A
C211  C216  1.362 .      A
C212  C213  1.389 .      A
C213  C214  1.388 .      A
C214  C215  1.380 .      A
C215  C216  1.372 .      A
C216  N72   1.340 .      A
C219  N74   1.370 .      A
C219  N75   1.391 .      A
N74   C220  1.347 .      A
C220  C221  1.375 .      A
C220  C225  1.364 .      A
C221  C222  1.383 .      A
C222  C223  1.386 .      A
C223  C224  1.381 .      A
C224  C225  1.373 .      A
C225  N75   1.348 .      A
C228  N77   1.390 .      A
C228  N78   1.392 .      A
N77   C229  1.324 .      A
C229  C230  1.351 .      A
C229  C234  1.349 .      A
C230  C231  1.368 .      A
C231  C232  1.374 .      A
C232  C233  1.381 .      A
C233  C234  1.354 .      A
C234  N78   1.347 .      A
C237  N80   1.381 .      A
C237  N81   1.393 .      A
N80   C238  1.345 .      A
C238  C239  1.375 .      A
C238  C243  1.360 .      A
C239  C240  1.377 .      A
C240  C241  1.378 .      A
C241  C242  1.377 .      A
C242  C243  1.376 .      A
C243  N81   1.351 .      A
C246  N83   1.399 .      A
C246  N84   1.380 .      A
N83   C247  1.358 .      A
C247  C248  1.363 .      A
C247  C252  1.355 .      A
C248  C249  1.378 .      A
C249  C250  1.379 .      A
C250  C251  1.369 .      A
C251  C252  1.359 .      A
C252  N84   1.323 .      A
C255  N86   1.377 .      A
C255  N87   1.381 .      A
N86   C256  1.336 .      A
C256  C257  1.352 .      A
C256  C261  1.361 .      A
C257  C258  1.356 .      A
C258  C259  1.376 .      A
C259  C260  1.371 .      A
C260  C261  1.368 .      A
C261  N87   1.349 .      A
C264  N89   1.375 .      A
C264  N90   1.381 .      A
N89   C265  1.349 .      A
C265  C266  1.365 .      A
C265  C270  1.356 .      A
C266  C267  1.386 .      A
C267  C268  1.383 .      A
C268  C269  1.379 .      A
C269  C270  1.368 .      A
C270  N90   1.335 .      A
C273  N92   1.376 .      A
C273  N93   1.377 1_554  A
N92   C274  1.346 1_554  A
C274  N92   1.346 1_556  A
C274  C275  1.374 .      A
C274  C279  1.363 .      A
C275  C276  1.384 .      A
C276  C277  1.390 .      A
C277  C278  1.384 .      A
C278  C279  1.377 .      A
C279  N93   1.354 .      A
N93   C273  1.377 1_556  A
C282  N95   1.379 .      A
C282  N96   1.389 1_554  A
N95   C283  1.349 1_554  A
C283  N95   1.349 1_556  A
C283  C284  1.380 .      A
C283  C288  1.355 .      A
C284  C285  1.379 .      A
C285  C286  1.383 .      A
C286  C287  1.379 .      A
C287  C288  1.369 .      A
C288  N96   1.349 .      A
N96   C282  1.389 1_556  A
C291  N98   1.407 .      A
C291  N99   1.370 .      A
N98   C292  1.350 .      A
C292  C293  1.373 .      A
C292  C297  1.364 .      A
C293  C294  1.380 .      A
C294  C295  1.384 .      A
C295  C296  1.382 .      A
C296  C297  1.376 .      A
C297  N99   1.351 .      A
C300  N101  1.363 1_554  A
C300  N102  1.389 .      A
N101  C300  1.363 1_556  A
N101  C301  1.341 .      A
C301  C302  1.372 .      A
C301  C306  1.367 .      A
C302  C303  1.379 .      A
C303  C304  1.386 .      A
C304  C305  1.384 .      A
C305  C306  1.377 .      A
C306  N102  1.361 1_556  A
N102  C306  1.361 1_554  A
C309  N104  1.381 .      A
C309  N105  1.385 .      A
N104  C310  1.357 .      A
C310  C311  1.371 .      A
C310  C315  1.371 .      A
C311  C312  1.383 .      A
C312  C313  1.386 .      A
C313  C314  1.380 .      A
C314  C315  1.372 .      A
C315  N105  1.345 .      A
C318  N107  1.392 .      A
C318  N108  1.376 1_554  A
N107  C319  1.353 1_554  A
C319  N107  1.353 1_556  A
C319  C320  1.376 .      A
C319  C324  1.362 .      A
C320  C321  1.381 .      A
C321  C322  1.382 .      A
C322  C323  1.379 .      A
C323  C324  1.378 .      A
C324  N108  1.346 .      A
N108  C318  1.376 1_556  A
C327  N110  1.372 .      A
C327  N111  1.386 .      A
N110  C328  1.343 .      A
C328  C329  1.339 .      A
C328  C333  1.348 .      A
C329  C330  1.381 .      A
C330  C331  1.385 .      A
C331  C332  1.372 .      A
C332  C333  1.357 .      A
C333  N111  1.324 .      A
C336  N113  1.381 .      A
C336  N114  1.381 .      A
N113  C337  1.351 .      A
C337  C338  1.359 .      A
C337  C342  1.353 .      A
C338  C339  1.385 .      A
C339  C340  1.388 .      A
C340  C341  1.382 .      A
C341  C342  1.375 .      A
C342  N114  1.338 .      A
C345  N116  1.395 .      A
C345  N117  1.416 .      A
N116  C346  1.332 .      A
C346  C347  1.347 .      A
C346  C351  1.354 .      A
C347  C348  1.359 .      A
C348  C349  1.385 .      A
C349  C350  1.365 1_655  A
C350  C349  1.365 1_455  A
C350  C351  1.362 1_455  A
C351  C350  1.362 1_655  A
C351  N117  1.339 .      A
C354  N119  1.380 .      A
C354  N120  1.392 .      A
N119  C355  1.345 .      A
C355  C356  1.368 .      A
C355  C360  1.364 .      A
C356  C357  1.383 .      A
C357  C358  1.387 .      A
C358  C359  1.383 .      A
C359  C360  1.376 .      A
C360  N120  1.351 .      A
C363  N122  1.391 .      A
C363  N123  1.398 .      A
N122  C364  1.337 1_455  A
C364  N122  1.337 1_655  A
C364  C365  1.361 .      A
C364  C369  1.362 .      A
C365  C366  1.368 .      A
C366  C367  1.364 .      A
C367  C368  1.379 .      A
C368  C369  1.357 .      A
C369  N123  1.355 1_655  A
N123  C369  1.355 1_455  A
C372  N125  1.360 .      A
C372  N126  1.381 .      A
N125  C373  1.349 .      A
C373  C374  1.379 1_554  A
C373  C378  1.362 .      A
C374  C373  1.379 1_556  A
C374  C375  1.378 .      A
C375  C376  1.380 .      A
C376  C377  1.380 .      A
C377  C378  1.383 1_556  A
C378  C377  1.383 1_554  A
C378  N126  1.361 .      A
C381  N128  1.389 .      A
C381  N129  1.389 .      A
N128  C382  1.333 .      A
C382  C383  1.357 .      A
C382  C387  1.346 .      A
C383  C384  1.381 .      A
C384  C385  1.381 .      A
C385  C386  1.380 .      A
C386  C387  1.357 .      A
C387  N129  1.343 .      A
C390  N131  1.389 .      A
C390  N132  1.391 .      A
N131  C391  1.357 .      A
C391  C392  1.373 .      A
C391  C396  1.354 .      A
C392  C393  1.383 .      A
C393  C394  1.381 .      A
C394  C395  1.372 .      A
C395  C396  1.358 .      A
C396  N132  1.329 .      A
C399  N134  1.364 .      A
C399  N135  1.385 .      A
N134  C400  1.342 .      A
C400  C401  1.373 .      A
C400  C405  1.360 .      A
C401  C402  1.381 .      A
C402  C403  1.386 .      A
C403  C404  1.383 .      A
C404  C405  1.371 .      A
C405  N135  1.353 .      A
C408  N137  1.394 .      A
C408  N138  1.389 .      A
N137  C409  1.329 .      A
C409  C410  1.363 .      A
C409  C414  1.364 .      A
C410  C411  1.364 .      A
C411  C412  1.375 .      A
C412  C413  1.388 .      A
C413  C414  1.359 .      A
C414  N138  1.351 .      A
C417  N140  1.394 .      A
C417  N141  1.397 .      A
N140  C418  1.347 .      A
C418  C419  1.356 .      A
C418  C423  1.355 .      A
C419  C420  1.382 .      A
C420  C421  1.384 .      A
C421  C422  1.381 .      A
C422  C423  1.372 .      A
C423  N141  1.342 .      A
C426  N143  1.391 .      A
C426  N144  1.397 1_565  A
N143  C427  1.349 .      A
C427  C428  1.368 .      A
C427  C432  1.372 1_565  A
C428  C429  1.385 .      A
C429  C430  1.389 1_565  A
C430  C429  1.389 1_545  A
C430  C431  1.383 .      A
C431  C432  1.373 .      A
C432  C427  1.372 1_545  A
C432  N144  1.347 .      A
N144  C426  1.397 1_545  A
C435  N146  1.393 .      A
C435  N147  1.400 .      A
N146  C436  1.343 .      A
C436  C437  1.369 .      A
C436  C441  1.367 .      A
C437  C438  1.377 .      A
C438  C439  1.381 .      A
C439  C440  1.382 .      A
C440  C441  1.377 .      A
C441  N147  1.362 .      A
C444  N149  1.386 .      A
C444  N150  1.380 .      A
N149  C445  1.353 .      A
C445  C446  1.375 .      A
C445  C450  1.360 .      A
C446  C447  1.382 .      A
C447  C448  1.382 .      A
C448  C449  1.379 .      A
C449  C450  1.361 .      A
C450  N150  1.338 .      A
C453  N152  1.389 .      A
C453  N153  1.381 .      A
N152  C454  1.366 .      A
C454  C455  1.387 .      A
C454  C459  1.357 .      A
C455  C456  1.374 .      A
C456  C457  1.362 .      A
C457  C458  1.362 .      A
C458  C459  1.371 .      A
C459  N153  1.346 .      A
C462  N155  1.383 .      A
C462  N156  1.370 .      A
N155  C463  1.363 .      A
C463  C464  1.378 .      A
C463  C468  1.359 .      A
C464  C465  1.382 .      A
C465  C466  1.381 .      A
C466  C467  1.377 .      A
C467  C468  1.377 .      A
C468  N156  1.343 .      A
C471  N158  1.407 .      A
C471  N159  1.388 .      A
N158  C472  1.354 .      A
C472  C473  1.363 .      A
C472  C477  1.368 .      A
C473  C474  1.381 .      A
C474  C475  1.379 .      A
C475  C476  1.372 .      A
C476  C477  1.365 .      A
C477  N159  1.337 .      A
C480  N161  1.402 .      A
C480  N162  1.400 .      A
N161  C481  1.334 .      A
C481  C482  1.358 .      A
C481  C486  1.347 .      A
C482  C483  1.372 .      A
C483  C484  1.376 .      A
C484  C485  1.372 .      A
C485  C486  1.351 .      A
C486  N162  1.332 .      A
C489  N164  1.397 .      A
C489  N165  1.387 .      A
N164  C490  1.326 .      A
C490  C491  1.360 .      A
C490  C495  1.354 .      A
C491  C492  1.363 .      A
C492  C493  1.380 .      A
C493  C494  1.383 .      A
C494  C495  1.364 .      A
C495  N165  1.351 .      A
C498  N167  1.384 .      A
C498  N168  1.406 .      A
N167  C499  1.350 .      A
C499  C500  1.373 .      A
C499  C504  1.379 .      A
C500  C501  1.385 1_554  A
C501  C500  1.385 1_556  A
C501  C502  1.390 .      A
C502  C503  1.385 .      A
C503  C504  1.371 1_556  A
C504  C503  1.371 1_554  A
C504  N168  1.350 .      A
C507  N170  1.395 .      A
C507  N171  1.422 .      A
N170  C508  1.324 .      A
C508  C509  1.349 .      A
C508  C513  1.357 .      A
C509  C510  1.353 .      A
C510  C511  1.372 .      A
C511  C512  1.387 .      A
C512  C513  1.357 .      A
C513  N171  1.346 .      A
C516  N173  1.405 .      A
C516  N174  1.383 .      A
N173  C517  1.362 .      A
C517  C518  1.375 .      A
C517  C522  1.364 .      A
C518  C519  1.379 .      A
C519  C520  1.383 .      A
C520  C521  1.375 .      A
C521  C522  1.362 .      A
C522  N174  1.329 .      A
C525  N176  1.399 .      A
C525  N177  1.383 .      A
N176  C526  1.360 .      A
C526  C527  1.361 .      A
C526  C531  1.358 .      A
C527  C528  1.377 .      A
C528  C529  1.380 .      A
C529  C530  1.371 .      A
C530  C531  1.364 .      A
C531  N177  1.328 .      A
C534  N179  1.378 1_554  A
C534  N180  1.402 .      A
N179  C534  1.378 1_556  A
N179  C535  1.337 .      A
C535  C536  1.341 .      A
C535  C540  1.359 1_556  A
C536  C537  1.361 .      A
C537  C538  1.377 .      A
C538  C539  1.357 1_556  A
C539  C538  1.357 1_554  A
C539  C540  1.351 .      A
C540  C535  1.359 1_554  A
C540  N180  1.320 .      A
C543  N182  1.357 .      A
C543  N183  1.359 .      A
N182  C544  1.330 .      A
C544  C545  1.352 .      A
C544  C549  1.349 .      A
C545  C546  1.377 .      A
C546  C547  1.372 .      A
C547  C548  1.371 .      A
C548  C549  1.351 .      A
C549  N183  1.329 .      A
C552  N185  1.382 .      A
C552  N186  1.414 .      A
N185  C553  1.336 .      A
C553  C554  1.369 .      A
C553  C558  1.366 .      A
C554  C555  1.379 .      A
C555  C556  1.382 .      A
C556  C557  1.381 .      A
C557  C558  1.361 .      A
C558  N186  1.349 .      A
C561  N188  1.385 .      A
C561  N189  1.383 .      A
N188  C562  1.333 .      A
C562  C563  1.362 .      A
C562  C567  1.358 .      A
C563  C564  1.368 .      A
C564  C565  1.374 .      A
C565  C566  1.377 .      A
C566  C567  1.375 .      A
C567  N189  1.356 .      A
C570  N191  1.398 .      A
C570  N192  1.379 .      A
N191  C571  1.354 .      A
C571  C572  1.375 .      A
C571  C576  1.369 .      A
C572  C573  1.385 .      A
C573  C574  1.389 .      A
C574  C575  1.382 .      A
C575  C576  1.367 .      A
C576  N192  1.341 .      A
C579  N194  1.393 .      A
C579  N195  1.383 .      A
N194  C580  1.340 .      A
C580  C581  1.371 .      A
C580  C585  1.374 .      A
C581  C582  1.381 .      A
C582  C583  1.388 .      A
C583  C584  1.384 .      A
C584  C585  1.366 .      A
C585  N195  1.359 .      A
C588  N197  1.390 .      A
C588  N198  1.359 .      A
N197  C589  1.343 .      A
C589  C590  1.361 .      A
C589  C594  1.344 .      A
C590  C591  1.376 .      A
C591  C592  1.385 .      A
C592  C593  1.371 .      A
C593  C594  1.368 .      A
C594  N198  1.333 .      A
C597  N200  1.391 .      A
C597  N201  1.388 .      A
N200  C598  1.338 .      A
C598  C599  1.354 .      A
C598  C603  1.345 .      A
C599  C600  1.380 .      A
C600  C601  1.380 .      A
C601  C602  1.376 .      A
C602  C603  1.359 .      A
C603  N201  1.336 .      A
C606  N203  1.377 .      A
C606  N204  1.395 .      A
N203  C607  1.330 .      A
C607  C608  1.355 .      A
C607  C612  1.352 .      A
C608  C609  1.359 .      A
C609  C610  1.365 .      A
C610  C611  1.385 .      A
C611  C612  1.356 .      A
C612  N204  1.345 .      A
C615  N206  1.386 1_554  A
C615  N207  1.393 .      A
N206  C615  1.386 1_556  A
N206  C616  1.323 .      A
C616  C617  1.350 1_565  A
C616  C621  1.344 .      A
C617  C616  1.350 1_545  A
C617  C618  1.355 .      A
C618  C619  1.354 .      A
C619  C620  1.384 .      A
C620  C621  1.351 1_545  A
C621  C620  1.351 1_565  A
C621  N207  1.343 1_556  A
N207  C621  1.343 1_554  A
C624  N209  1.381 1_556  A
C624  N210  1.393 .      A
N209  C624  1.381 1_554  A
N209  C625  1.338 .      A
C625  C626  1.356 1_565  A
C625  C630  1.352 .      A
C626  C625  1.356 1_545  A
C626  C627  1.368 .      A
C627  C628  1.384 .      A
C628  C629  1.373 .      A
C629  C630  1.364 1_545  A
C630  C629  1.364 1_565  A
C630  N210  1.340 1_554  A
N210  C630  1.340 1_556  A
C633  N212  1.379 .      A
C633  N213  1.381 .      A
N212  C634  1.320 .      A
C634  C635  1.351 .      A
C634  C639  1.363 .      A
C635  C636  1.355 .      A
C636  C637  1.387 .      A
C637  C638  1.384 .      A
C638  C639  1.369 .      A
C639  N213  1.357 .      A
C642  N215  1.392 .      A
C642  N216  1.385 .      A
N215  C643  1.341 .      A
C643  C644  1.371 .      A
C643  C648  1.362 .      A
C644  C645  1.382 .      A
C645  C646  1.388 .      A
C646  C647  1.385 .      A
C647  C648  1.369 .      A
C648  N216  1.353 .      A
C651  N218  1.387 1_455  A
C651  N219  1.397 .      A
N218  C651  1.387 1_655  A
N218  C652  1.335 .      A
C652  C653  1.358 .      A
C652  C657  1.357 .      A
C653  C654  1.378 .      A
C654  C655  1.376 1_556  A
C655  C654  1.376 1_554  A
C655  C656  1.354 .      A
C656  C657  1.354 1_554  A
C657  C656  1.354 1_556  A
C657  N219  1.329 1_655  A
N219  C657  1.329 1_455  A
C660  N221  1.389 .      A
C660  N222  1.389 .      A
N221  C661  1.341 .      A
C661  C662  1.368 .      A
C661  C666  1.353 .      A
C662  C663  1.378 1_554  A
C663  C662  1.378 1_556  A
C663  C664  1.382 .      A
C664  C665  1.382 1_556  A
C665  C664  1.382 1_554  A
C665  C666  1.379 .      A
C666  N222  1.354 .      A
C669  N224  1.400 .      A
C669  N225  1.403 .      A
N224  C670  1.329 .      A
C670  C671  1.366 .      A
C670  C675  1.363 .      A
C671  C672  1.369 .      A
C672  C673  1.379 .      A
C673  C674  1.379 .      A
C674  C675  1.353 .      A
C675  N225  1.346 .      A
C678  N227  1.385 .      A
C678  N228  1.390 .      A
N227  C679  1.353 .      A
C679  C680  1.348 .      A
C679  C684  1.351 .      A
C680  C681  1.389 .      A
C681  C682  1.377 1_556  A
C682  C681  1.377 1_554  A
C682  C683  1.365 .      A
C683  C684  1.362 1_554  A
C684  C683  1.362 1_556  A
C684  N228  1.323 .      A
C687  N230  1.394 .      A
C687  N231  1.392 .      A
N230  C688  1.334 .      A
C688  C689  1.362 .      A
C688  C693  1.359 .      A
C689  C690  1.368 .      A
C690  C691  1.378 .      A
C691  C692  1.386 .      A
C692  C693  1.362 .      A
C693  N231  1.346 .      A
C696  N233  1.378 .      A
C696  N234  1.389 .      A
N233  C697  1.334 .      A
C697  C698  1.368 .      A
C697  C702  1.364 .      A
C698  C699  1.375 .      A
C699  C700  1.384 .      A
C700  C701  1.388 .      A
C701  C702  1.367 .      A
C702  N234  1.353 .      A
C705  N236  1.386 .      A
C705  N237  1.381 .      A
N236  C706  1.351 .      A
C706  C707  1.372 .      A
C706  C711  1.351 .      A
C707  C708  1.379 1_554  A
C708  C707  1.379 1_556  A
C708  C709  1.382 .      A
C709  C710  1.381 1_556  A
C710  C709  1.381 1_554  A
C710  C711  1.367 .      A
C711  N237  1.339 .      A
C714  N239  1.383 .      A
C714  N240  1.388 .      A
N239  C715  1.345 .      A
C715  C716  1.374 .      A
C715  C720  1.365 .      A
C716  C717  1.383 .      A
C717  C718  1.389 .      A
C718  C719  1.384 .      A
C719  C720  1.375 .      A
C720  N240  1.353 .      A
C723  N242  1.385 .      A
C723  N243  1.392 .      A
N242  C724  1.340 .      A
C724  C725  1.372 .      A
C724  C729  1.351 .      A
C725  C726  1.377 .      A
C726  C727  1.375 .      A
C727  C728  1.368 .      A
C728  C729  1.332 .      A
C729  N243  1.342 .      A
C732  N245  1.390 .      A
C732  N246  1.397 .      A
N245  C733  1.354 .      A
C733  C734  1.388 .      A
C733  C738  1.344 .      A
C734  C735  1.376 .      A
C735  C736  1.369 .      A
C736  C737  1.372 .      A
C737  C738  1.349 .      A
C738  N246  1.345 .      A
C741  N248  1.407 .      A
C741  N249  1.390 .      A
N248  C742  1.353 .      A
C742  C743  1.373 .      A
C742  C747  1.377 .      A
C743  C744  1.383 .      A
C744  C745  1.388 .      A
C745  C746  1.383 .      A
C746  C747  1.372 .      A
C747  N249  1.346 .      A
C750  N251  1.395 .      A
C750  N252  1.388 .      A
N251  C751  1.348 .      A
C751  C752  1.371 .      A
C751  C756  1.367 .      A
C752  C753  1.383 .      A
C753  C754  1.388 .      A
C754  C755  1.383 .      A
C755  C756  1.373 .      A
C756  N252  1.348 .      A
C759  N254  1.381 .      A
C759  N255  1.374 .      A
N254  C760  1.339 .      A
C760  C761  1.364 .      A
C760  C765  1.353 .      A
C761  C762  1.379 .      A
C762  C763  1.386 .      A
C763  C764  1.382 .      A
C764  C765  1.367 .      A
C765  N255  1.347 .      A
C768  N257  1.393 .      A
C768  N258  1.377 .      A
N257  C769  1.339 .      A
C769  C770  1.372 .      A
C769  C774  1.363 .      A
C770  C771  1.379 .      A
C771  C772  1.388 .      A
C772  C773  1.383 .      A
C773  C774  1.370 .      A
C774  N258  1.353 .      A
C777  N260  1.372 .      A
C777  N261  1.368 .      A
N260  C778  1.338 .      A
C778  C779  1.372 .      A
C778  C783  1.360 .      A
C779  C780  1.380 .      A
C780  C781  1.385 .      A
C781  C782  1.384 .      A
C782  C783  1.358 .      A
C783  N261  1.355 .      A
C786  N263  1.368 .      A
C786  N264  1.370 .      A
N263  C787  1.342 .      A
C787  C788  1.366 .      A
C787  C792  1.356 .      A
C788  C789  1.384 .      A
C789  C790  1.388 .      A
C790  C791  1.384 .      A
C791  C792  1.375 .      A
C792  N264  1.348 .      A
C795  N266  1.374 .      A
C795  N267  1.383 .      A
N266  C796  1.342 .      A
C796  C797  1.359 .      A
C796  C801  1.354 .      A
C797  C798  1.384 .      A
C798  C799  1.385 .      A
C799  C800  1.380 .      A
C800  C801  1.363 .      A
C801  N267  1.344 .      A
C804  N269  1.388 .      A
C804  N270  1.390 .      A
N269  C805  1.342 .      A
C805  C806  1.376 .      A
C805  C810  1.361 .      A
C806  C807  1.374 .      A
C807  C808  1.374 .      A
C808  C809  1.377 .      A
C809  C810  1.369 .      A
C810  N270  1.360 .      A
C813  N272  1.402 .      A
C813  N273  1.379 .      A
N272  C814  1.357 .      A
C814  C815  1.373 .      A
C814  C819  1.373 .      A
C815  C816  1.387 .      A
C816  C817  1.386 .      A
C817  C818  1.379 .      A
C818  C819  1.375 .      A
C819  N273  1.346 .      A
C822  N275  1.383 .      A
C822  N276  1.390 .      A
N275  C823  1.345 .      A
C823  C824  1.372 .      A
C823  C828  1.370 .      A
C824  C825  1.384 .      A
C825  C826  1.390 .      A
C826  C827  1.384 .      A
C827  C828  1.369 .      A
C828  N276  1.352 .      A
C831  N278  1.393 .      A
C831  N279  1.382 .      A
N278  C832  1.346 .      A
C832  C833  1.375 .      A
C832  C837  1.358 .      A
C833  C834  1.385 .      A
C834  C835  1.387 .      A
C835  C836  1.381 .      A
C836  C837  1.360 .      A
C837  N279  1.342 .      A
C840  N281  1.383 .      A
C840  N282  1.373 .      A
N281  C841  1.339 .      A
C841  C842  1.325 .      A
C841  C846  1.351 .      A
C842  C843  1.361 .      A
C843  C844  1.363 .      A
C844  C845  1.346 .      A
C845  C846  1.359 .      A
C846  N282  1.314 .      A
C849  N284  1.385 .      A
C849  N285  1.376 .      A
N284  C850  1.344 .      A
C850  C851  1.372 .      A
C850  C855  1.372 .      A
C851  C852  1.383 .      A
C852  C853  1.389 .      A
C853  C854  1.384 .      A
C854  C855  1.375 .      A
C855  N285  1.354 .      A
C858  N287  1.381 .      A
C858  N288  1.383 .      A
N287  C859  1.336 .      A
C859  C860  1.373 .      A
C859  C864  1.366 .      A
C860  C861  1.380 .      A
C861  C862  1.388 .      A
C862  C863  1.386 .      A
C863  C864  1.385 .      A
C864  N288  1.369 .      A
C867  N290  1.363 .      A
C867  N291  1.374 .      A
N290  C868  1.337 .      A
C868  C869  1.371 .      A
C868  C873  1.364 .      A
C869  C870  1.381 .      A
C870  C871  1.389 .      A
C871  C872  1.385 .      A
C872  C873  1.367 .      A
C873  N291  1.357 .      A
C876  N293  1.387 .      A
C876  N294  1.389 .      A
N293  C877  1.342 .      A
C877  C878  1.369 .      A
C877  C882  1.361 .      A
C878  C879  1.371 .      A
C879  C880  1.381 .      A
C880  C881  1.382 .      A
C881  C882  1.380 .      A
C882  N294  1.359 .      A
C885  N296  1.389 .      A
C885  N297  1.390 .      A
N296  C886  1.358 .      A
C886  C887  1.375 .      A
C886  C891  1.359 .      A
C887  C888  1.380 .      A
C888  C889  1.380 .      A
C889  C890  1.378 .      A
C890  C891  1.367 .      A
C891  N297  1.341 .      A
C894  N299  1.375 .      A
C894  N300  1.399 .      A
N299  C895  1.342 .      A
C895  C896  1.349 .      A
C895  C900  1.354 .      A
C896  C897  1.373 .      A
C897  C898  1.366 .      A
C898  C899  1.358 .      A
C899  C900  1.358 .      A
C900  N300  1.330 .      A
C903  N302  1.392 1_565  A
C903  N303  1.407 .      A
N302  C903  1.392 1_545  A
N302  C904  1.342 .      A
C904  C905  1.377 .      A
C904  C909  1.364 1_545  A
C905  C906  1.382 .      A
C906  C907  1.385 .      A
C907  C908  1.382 1_545  A
C908  C907  1.382 1_565  A
C908  C909  1.364 .      A
C909  C904  1.364 1_565  A
C909  N303  1.353 .      A
C912  N305  1.381 .      A
C912  N306  1.373 .      A
N305  C913  1.345 .      A
C913  C914  1.375 .      A
C913  C918  1.358 .      A
C914  C915  1.386 .      A
C915  C916  1.390 .      A
C916  C917  1.384 .      A
C917  C918  1.375 .      A
C918  N306  1.348 .      A
C921  N308  1.363 .      A
C921  N309  1.377 .      A
N308  C922  1.355 .      A
C922  C923  1.371 .      A
C922  C927  1.368 .      A
C923  C924  1.385 .      A
C924  C925  1.389 .      A
C925  C926  1.381 .      A
C926  C927  1.374 .      A
C927  N309  1.346 .      A
C930  N311  1.370 .      A
C930  N312  1.392 1_565  A
N311  C931  1.343 .      A
C931  C932  1.371 .      A
C931  C936  1.365 1_565  A
C932  C933  1.381 .      A
C933  C934  1.387 1_565  A
C934  C933  1.387 1_545  A
C934  C935  1.384 .      A
C935  C936  1.370 .      A
C936  C931  1.365 1_545  A
C936  N312  1.352 .      A
N312  C930  1.392 1_545  A
C939  N314  1.360 .      A
C939  N315  1.377 .      A
N314  C940  1.346 1_655  A
C940  N314  1.346 1_455  A
C940  C941  1.371 .      A
C940  C945  1.368 .      A
C941  C942  1.386 .      A
C942  C943  1.391 .      A
C943  C944  1.383 .      A
C944  C945  1.371 .      A
C945  N315  1.346 1_455  A
N315  C945  1.346 1_655  A
C948  N317  1.378 .      A
C948  N318  1.370 .      A
N317  C949  1.351 1_655  A
C949  N317  1.351 1_455  A
C949  C950  1.373 .      A
C949  C954  1.370 .      A
C950  C951  1.383 .      A
C951  C952  1.388 .      A
C952  C953  1.383 .      A
C953  C954  1.372 .      A
C954  N318  1.348 1_455  A
N318  C954  1.348 1_655  A
C957  N320  1.380 .      A
C957  N321  1.388 .      A
N320  C958  1.315 .      A
C958  C959  1.334 .      A
C958  C963  1.339 .      A
C959  C960  1.360 .      A
C960  C961  1.372 .      A
C961  C962  1.361 .      A
C962  C963  1.347 .      A
C963  N321  1.340 .      A
C966  N323  1.375 .      A
C966  N324  1.397 .      A
N323  C967  1.347 1_655  A
C967  N323  1.347 1_455  A
C967  C968  1.373 .      A
C967  C972  1.369 .      A
C968  C969  1.384 .      A
C969  C970  1.389 .      A
C970  C971  1.384 .      A
C971  C972  1.373 .      A
C972  N324  1.349 1_455  A
N324  C972  1.349 1_655  A
C975  N326  1.386 .      A
C975  N327  1.375 .      A
N326  C976  1.349 1_655  A
C976  N326  1.349 1_455  A
C976  C977  1.368 .      A
C976  C981  1.373 .      A
C977  C978  1.385 .      A
C978  C979  1.393 .      A
C979  C980  1.386 .      A
C980  C981  1.370 .      A
C981  N327  1.347 1_455  A
N327  C981  1.347 1_655  A
C984  N329  1.382 .      A
C984  N330  1.400 .      A
N329  C985  1.344 .      A
C985  C986  1.369 .      A
C985  C990  1.373 .      A
C986  C987  1.385 .      A
C987  C988  1.391 1_455  A
C988  C987  1.391 1_655  A
C988  C989  1.385 .      A
C989  C990  1.369 1_655  A
C990  C989  1.369 1_455  A
C990  N330  1.350 .      A
C993  N332  1.377 .      A
C993  N333  1.372 .      A
N332  C994  1.363 .      A
C994  C995  1.380 .      A
C994  C999  1.359 .      A
C995  C996  1.381 .      A
C996  C997  1.378 .      A
C997  C998  1.374 .      A
C998  C999  1.354 .      A
C999  N333  1.339 .      A
C1002 N335  1.377 .      A
C1002 N336  1.356 .      A
N335  C1003 1.346 .      A
C1003 C1004 1.380 .      A
C1003 C1008 1.354 .      A
C1004 C1005 1.381 .      A
C1005 C1006 1.383 .      A
C1006 C1007 1.380 .      A
C1007 C1008 1.379 .      A
C1008 N336  1.353 .      A
C1011 N338  1.384 .      A
C1011 N339  1.380 .      A
N338  C1012 1.330 .      A
C1012 C1013 1.339 .      A
C1012 C1017 1.340 .      A
C1013 C1014 1.365 .      A
C1014 C1015 1.385 .      A
C1015 C1016 1.346 .      A
C1016 C1017 1.351 .      A
C1017 N339  1.319 .      A
C1020 N341  1.381 .      A
C1020 N342  1.357 .      A
N341  C1021 1.345 .      A
C1021 C1022 1.372 .      A
C1021 C1026 1.374 .      A
C1022 C1023 1.382 .      A
C1023 C1024 1.390 .      A
C1024 C1025 1.387 .      A
C1025 C1026 1.374 .      A
C1026 N342  1.354 .      A
C1029 N344  1.402 .      A
C1029 N345  1.390 .      A
N344  C1030 1.346 .      A
C1030 C1031 1.362 .      A
C1030 C1035 1.360 .      A
C1031 C1032 1.391 .      A
C1032 C1033 1.381 .      A
C1033 C1034 1.374 .      A
C1034 C1035 1.360 .      A
C1035 N345  1.339 .      A
C1038 N347  1.381 .      A
C1038 N348  1.394 .      A
N347  C1039 1.344 .      A
C1039 C1040 1.370 .      A
C1039 C1044 1.365 .      A
C1040 C1041 1.383 .      A
C1041 C1042 1.389 .      A
C1042 C1043 1.384 .      A
C1043 C1044 1.373 .      A
C1044 N348  1.352 .      A
C1047 N350  1.392 .      A
C1047 N351  1.366 .      A
N350  C1048 1.350 .      A
C1048 C1049 1.370 .      A
C1048 C1053 1.364 .      A
C1049 C1050 1.385 .      A
C1050 C1051 1.392 .      A
C1051 C1052 1.385 .      A
C1052 C1053 1.370 .      A
C1053 N351  1.340 .      A
C1056 N353  1.372 .      A
C1056 N354  1.378 .      A
N353  C1057 1.324 .      A
C1057 C1058 1.326 .      A
C1057 C1062 1.341 .      A
C1058 C1059 1.352 .      A
C1059 C1060 1.363 .      A
C1060 C1061 1.368 .      A
C1061 C1062 1.363 .      A
C1062 N354  1.340 .      A
C1065 N356  1.380 .      A
C1065 N357  1.375 .      A
N356  C1066 1.356 .      A
C1066 C1067 1.374 .      A
C1066 C1071 1.364 .      A
C1067 C1068 1.383 .      A
C1068 C1069 1.386 .      A
C1069 C1070 1.380 .      A
C1070 C1071 1.373 .      A
C1071 N357  1.342 .      A
C1074 N359  1.393 .      A
C1074 N360  1.391 .      A
N359  C1075 1.344 .      A
C1075 C1076 1.369 .      A
C1075 C1080 1.370 .      A
C1076 C1077 1.386 .      A
C1077 C1078 1.391 .      A
C1078 C1079 1.385 .      A
C1079 C1080 1.371 .      A
C1080 N360  1.348 .      A
C1083 N362  1.397 .      A
C1083 N363  1.382 .      A
N362  C1084 1.338 .      A
C1084 C1085 1.373 1_554  A
C1084 C1089 1.357 1_554  A
C1085 C1084 1.373 1_556  A
C1085 C1086 1.378 .      A
C1086 C1087 1.387 .      A
C1087 C1088 1.384 .      A
C1088 C1089 1.361 .      A
C1089 C1084 1.357 1_556  A
C1089 N363  1.351 1_556  A
N363  C1089 1.351 1_554  A
C1092 N365  1.387 .      A
C1092 N366  1.394 .      A
N365  C1093 1.345 1_554  A
C1093 N365  1.345 1_556  A
C1093 C1094 1.372 .      A
C1093 C1098 1.356 1_556  A
C1094 C1095 1.386 .      A
C1095 C1096 1.389 .      A
C1096 C1097 1.382 1_556  A
C1097 C1096 1.382 1_554  A
C1097 C1098 1.357 .      A
C1098 C1093 1.356 1_554  A
C1098 N366  1.339 .      A
C1101 N368  1.375 .      A
C1101 N369  1.384 .      A
N368  C1102 1.307 .      A
C1102 C1103 1.326 .      A
C1102 C1107 1.353 .      A
C1103 C1104 1.344 .      A
C1104 C1105 1.385 .      A
C1105 C1106 1.354 .      A
C1106 C1107 1.347 .      A
C1107 N369  1.327 .      A
C1110 N371  1.374 .      A
C1110 N372  1.380 .      A
N371  C1111 1.352 1_554  A
C1111 N371  1.352 1_556  A
C1111 C1112 1.364 .      A
C1111 C1116 1.356 1_556  A
C1112 C1113 1.388 .      A
C1113 C1114 1.384 .      A
C1114 C1115 1.376 1_556  A
C1115 C1114 1.376 1_554  A
C1115 C1116 1.370 .      A
C1116 C1111 1.356 1_554  A
C1116 N372  1.333 .      A
C1119 N374  1.380 .      A
C1119 N375  1.378 .      A
N374  C1120 1.304 .      A
C1120 C1121 1.335 .      A
C1120 C1125 1.347 .      A
C1121 C1122 1.343 .      A
C1122 C1123 1.388 .      A
C1123 C1124 1.351 .      A
C1124 C1125 1.315 .      A
C1125 N375  1.316 .      A
C1128 N377  1.396 .      A
C1128 N378  1.383 .      A
N377  C1129 1.342 .      A
C1129 C1130 1.372 1_554  A
C1129 C1134 1.363 1_554  A
C1130 C1129 1.372 1_556  A
C1130 C1131 1.383 .      A
C1131 C1132 1.390 .      A
C1132 C1133 1.384 .      A
C1133 C1134 1.365 .      A
C1134 C1129 1.363 1_556  A
C1134 N378  1.345 1_556  A
N378  C1134 1.345 1_554  A
C1137 N380  1.378 .      A
C1137 N381  1.388 .      A
N380  C1138 1.351 .      A
C1138 C1139 1.378 .      A
C1138 C1143 1.366 .      A
C1139 C1140 1.381 .      A
C1140 C1141 1.384 .      A
C1141 C1142 1.381 .      A
C1142 C1143 1.375 .      A
C1143 N381  1.352 .      A
C1146 N383  1.384 .      A
C1146 N384  1.381 .      A
N383  C1147 1.324 .      A
C1147 C1148 1.347 .      A
C1147 C1152 1.350 .      A
C1148 C1149 1.359 .      A
C1149 C1150 1.376 .      A
C1150 C1151 1.373 .      A
C1151 C1152 1.357 .      A
C1152 N384  1.340 .      A
C1155 N386  1.382 .      A
C1155 N387  1.383 .      A
N386  C1156 1.346 .      A
C1156 C1157 1.374 .      A
C1156 C1161 1.367 .      A
C1157 C1158 1.384 .      A
C1158 C1159 1.389 .      A
C1159 C1160 1.384 .      A
C1160 C1161 1.376 .      A
C1161 N387  1.350 .      A
C1164 N389  1.379 .      A
C1164 N390  1.380 .      A
N389  C1165 1.337 .      A
C1165 C1166 1.358 .      A
C1165 C1170 1.351 .      A
C1166 C1167 1.382 .      A
C1167 C1168 1.375 .      A
C1168 C1169 1.377 .      A
C1169 C1170 1.352 .      A
C1170 N390  1.348 .      A
C1173 N392  1.372 .      A
C1173 N393  1.375 .      A
N392  C1174 1.349 .      A
C1174 C1175 1.371 .      A
C1174 C1179 1.359 .      A
C1175 C1176 1.385 .      A
C1176 C1177 1.390 .      A
C1177 C1178 1.383 .      A
C1178 C1179 1.374 .      A
C1179 N393  1.343 .      A
C1182 N395  1.382 .      A
C1182 N396  1.391 .      A
N395  C1183 1.330 .      A
C1183 C1184 1.342 .      A
C1183 C1188 1.332 .      A
C1184 C1185 1.354 .      A
C1185 C1186 1.382 .      A
C1186 C1187 1.356 .      A
C1187 C1188 1.327 .      A
C1188 N396  1.315 .      A
