data_str_m1_o12014_SOF
_audit_creation_date              2015-10-01T06:38:26-0700
_symmetry_space_group_name_H-M    P1
_symmetry_Int_Tables_number       1
_space_group_crystal_system       triclinic
loop_
_symmetry_equiv_pos_as_xyz
  x,y,z
_cell_length_a                    25.4080615
_cell_length_b                    25.0285297
_cell_length_c                    22.2356065
_cell_angle_alpha                 89.5308614
_cell_angle_beta                  108.502200
_cell_angle_gamma                 62.1386625
_cell_volume                      11646.5769957

loop_
_atom_site_label
_atom_site_type_symbol
_atom_site_description
_atom_site_fract_x
_atom_site_fract_y
_atom_site_fract_z
_atom_type_partial_charge
Zn1   Zn    Zn3+2 0.940952 0.792287 0.577979 0.000000
Zn2   Zn    Zn3+2 0.745479 0.404506 0.290668 0.000000
Zn3   Zn    Zn3+2 0.648665 0.016313 0.484089 0.000000
Zn4   Zn    Zn3+2 0.643306 0.711230 0.981811 0.000000
Zn5   Zn    Zn3+2 0.253558 0.076190 0.030398 0.000000
Zn6   Zn    Zn3+2 0.049172 0.325211 0.361898 0.000000
Zn7   Zn    Zn3+2 0.040717 0.342847 0.074784 0.000000
Zn8   Zn    Zn3+2 0.649539 0.039911 0.770684 0.000000
Zn9   Zn    Zn3+2 0.435096 0.998515 0.837496 0.000000
Zn10  Zn    Zn3+2 0.436093 0.945227 0.342633 0.000000
Zn11  Zn    Zn3+2 0.651295 0.695841 0.272972 0.000000
Zn12  Zn    Zn3+2 0.252015 0.046177 0.530309 0.000000
Zn13  Zn    Zn3+2 0.053046 0.996766 0.868600 0.000000
Zn14  Zn    Zn3+2 0.036514 0.988014 0.578074 0.000000
Zn15  Zn    Zn3+2 0.948545 0.815450 0.875952 0.000000
Zn16  Zn    Zn3+2 0.938236 0.631696 0.062939 0.000000
Zn17  Zn    Zn3+2 0.743939 0.214019 0.488452 0.000000
Zn18  Zn    Zn3+2 0.735057 0.420846 0.988906 0.000000
Zn19  Zn    Zn3+2 0.758929 0.228770 0.782396 0.000000
Zn20  Zn    Zn3+2 0.961966 0.607260 0.373896 0.000000
C1    C     C_3   0.771252 0.913003 0.393795 0.000000
C2    C     C_3   0.814798 0.916742 0.456168 0.000000
C3    C     C_3   0.818745 0.974142 0.453692 0.000000
C4    C     C_R   0.798864 0.904857 0.510541 0.000000
N1    N     N_R   0.734791 0.925464 0.500328 0.000000
C5    C     C_R   0.737370 0.871073 0.511973 0.000000
C6    C     C_R   0.688747 0.858439 0.492090 0.000000
C7    C     C_R   0.700968 0.799467 0.510169 0.000000
C8    C     C_R   0.762072 0.753732 0.546876 0.000000
C9    C     C_R   0.812000 0.765814 0.558562 0.000000
C10   C     C_R   0.798441 0.824456 0.539228 0.000000
N2    N     N_R   0.839674 0.844687 0.542632 0.000000
C11   C     C_2   0.773589 0.691911 0.566621 0.000000
O1    O     O_2   0.728972 0.682022 0.553875 0.000000
O2    O     O_2   0.833081 0.645989 0.599626 0.000000
H1    H     H_    0.720619 0.942372 0.386577 0.000000
H2    H     H_    0.782613 0.923921 0.352737 0.000000
H3    H     H_    0.778874 0.865866 0.396741 0.000000
H4    H     H_    0.861242 0.876883 0.465772 0.000000
H5    H     H_    0.865329 0.966933 0.485754 0.000000
H6    H     H_    0.811970 0.991451 0.404481 0.000000
H7    H     H_    0.782464 0.004875 0.471813 0.000000
H8    H     H_    0.642746 0.893428 0.461709 0.000000
H9    H     H_    0.662993 0.788620 0.493884 0.000000
H10   H     H_    0.860147 0.730135 0.577754 0.000000
H11   H     H_    0.840058 0.605484 0.612187 0.000000
C12   C     C_3   0.728041 0.605619 0.410381 0.000000
C13   C     C_3   0.734124 0.546142 0.388143 0.000000
C14   C     C_3   0.707595 0.522643 0.427540 0.000000
C15   C     C_R   0.698448 0.551087 0.317725 0.000000
N3    N     N_R   0.691262 0.501598 0.295950 0.000000
C16   C     C_R   0.629638 0.530689 0.258141 0.000000
C17   C     C_R   0.593723 0.502990 0.239017 0.000000
C18   C     C_R   0.529112 0.538855 0.207276 0.000000
C19   C     C_R   0.501172 0.602277 0.197093 0.000000
C20   C     C_R   0.538249 0.630148 0.220420 0.000000
C21   C     C_R   0.603898 0.593118 0.249664 0.000000
N4    N     N_R   0.649318 0.608226 0.281315 0.000000
C22   C     C_2   0.432143 0.638429 0.161462 0.000000
O3    O     O_2   0.398568 0.615390 0.158180 0.000000
O4    O     O_2   0.406507 0.694310 0.126370 0.000000
H12   H     H_    0.720266 0.607479 0.456790 0.000000
H13   H     H_    0.773742 0.605333 0.420927 0.000000
H14   H     H_    0.688021 0.647582 0.376487 0.000000
H15   H     H_    0.785182 0.515155 0.398853 0.000000
H16   H     H_    0.702920 0.483778 0.409544 0.000000
H17   H     H_    0.738733 0.508411 0.478995 0.000000
H18   H     H_    0.659736 0.559363 0.423667 0.000000
H19   H     H_    0.615537 0.454315 0.250840 0.000000
H20   H     H_    0.500771 0.516728 0.190852 0.000000
H21   H     H_    0.515335 0.678751 0.220017 0.000000
H22   H     H_    0.362519 0.714322 0.097271 0.000000
C23   C     C_3   0.865884 0.384821 0.196977 0.000000
C24   C     C_3   0.876150 0.338053 0.249251 0.000000
C25   C     C_3   0.906389 0.271732 0.242440 0.000000
C26   C     C_R   0.895730 0.349416 0.314534 0.000000
N5    N     N_R   0.955944 0.340232 0.352594 0.000000
C27   C     C_R   0.946919 0.353051 0.407645 0.000000
C28   C     C_R   0.994622 0.339039 0.464819 0.000000
C29   C     C_R   0.979346 0.360280 0.516909 0.000000
C30   C     C_R   0.916141 0.393367 0.510829 0.000000
C31   C     C_R   0.868351 0.401470 0.453125 0.000000
C32   C     C_R   0.884661 0.377117 0.401646 0.000000
N6    N     N_R   0.849049 0.374384 0.341873 0.000000
C33   C     C_2   0.901085 0.416501 0.567244 0.000000
O5    O     O_2   0.943464 0.411904 0.615909 0.000000
O6    O     O_2   0.841141 0.441563 0.566476 0.000000
H23   H     H_    0.861881 0.425668 0.215815 0.000000
H24   H     H_    0.903868 0.371779 0.179558 0.000000
H25   H     H_    0.822262 0.397564 0.155163 0.000000
H26   H     H_    0.829914 0.348245 0.246715 0.000000
H27   H     H_    0.895229 0.246432 0.271707 0.000000
H28   H     H_    0.887017 0.265629 0.192963 0.000000
H29   H     H_    0.957489 0.251466 0.260039 0.000000
H30   H     H_    0.042895 0.310003 0.468120 0.000000
H31   H     H_    0.017042 0.351816 0.561769 0.000000
H32   H     H_    0.820632 0.426222 0.450884 0.000000
H33   H     H_    0.831929 0.456177 0.603980 0.000000
C34   C     C_3   0.563914 0.891276 0.515794 0.000000
C35   C     C_3   0.523493 0.959015 0.489778 0.000000
C36   C     C_3   0.515828 0.993746 0.543753 0.000000
C37   C     C_R   0.531248 0.983402 0.432067 0.000000
N7    N     N_R   0.568515 0.009874 0.428423 0.000000
C38   C     C_R   0.548321 0.027962 0.364240 0.000000
C39   C     C_R   0.556975 0.067541 0.331595 0.000000
C40   C     C_R   0.541360 0.071860 0.265766 0.000000
C41   C     C_R   0.514936 0.038008 0.234120 0.000000
C42   C     C_R   0.494351 0.009071 0.266620 0.000000
C43   C     C_R   0.509492 0.007193 0.331706 0.000000
N8    N     N_R   0.495397 0.980828 0.372303 0.000000
C44   C     C_2   0.510197 0.031744 0.167667 0.000000
O7    O     O_2   0.540134 0.045864 0.144024 0.000000
O8    O     O_2   0.477191 0.005670 0.134204 0.000000
H34   H     H_    0.610817 0.880612 0.550140 0.000000
H35   H     H_    0.541678 0.877370 0.543570 0.000000
H36   H     H_    0.566273 0.866793 0.474775 0.000000
H37   H     H_    0.476579 0.964009 0.468039 0.000000
H38   H     H_    0.482760 0.042547 0.524519 0.000000
H39   H     H_    0.494566 0.977386 0.570531 0.000000
H40   H     H_    0.561856 0.984660 0.577774 0.000000
H41   H     H_    0.574760 0.095136 0.355853 0.000000
H42   H     H_    0.551677 0.100303 0.239995 0.000000
H43   H     H_    0.468704 0.987421 0.242415 0.000000
H44   H     H_    0.480380 0.995051 0.093392 0.000000
C45   C     C_3   0.689838 0.920522 0.620930 0.000000
C46   C     C_3   0.714979 0.961722 0.650618 0.000000
C47   C     C_3   0.762358 0.965540 0.625871 0.000000
C48   C     C_R   0.656612 0.020181 0.629979 0.000000
N9    N     N_R   0.624704 0.043004 0.565050 0.000000
C49   C     C_R   0.566073 0.084860 0.562320 0.000000
C50   C     C_R   0.513596 0.121313 0.507988 0.000000
C51   C     C_R   0.458537 0.164429 0.515860 0.000000
C52   C     C_R   0.454950 0.165630 0.576817 0.000000
C53   C     C_R   0.506202 0.123051 0.629629 0.000000
C54   C     C_R   0.563177 0.086069 0.622502 0.000000
N10   N     N_R   0.621077 0.046830 0.668261 0.000000
C55   C     C_2   0.397855 0.213418 0.585756 0.000000
O9    O     O_2   0.359443 0.258644 0.543479 0.000000
O10   O     O_2   0.389627 0.209590 0.642138 0.000000
H45   H     H_    0.661449 0.938315 0.569347 0.000000
H46   H     H_    0.723998 0.873234 0.624685 0.000000
H47   H     H_    0.657370 0.921863 0.644203 0.000000
H48   H     H_    0.736247 0.949293 0.702858 0.000000
H49   H     H_    0.738749 0.994201 0.577393 0.000000
H50   H     H_    0.785717 0.987572 0.657125 0.000000
H51   H     H_    0.800774 0.919895 0.627684 0.000000
H52   H     H_    0.515370 0.117050 0.460595 0.000000
H53   H     H_    0.417923 0.195618 0.473920 0.000000
H54   H     H_    0.501680 0.119313 0.674772 0.000000
H55   H     H_    0.353958 0.242840 0.649513 0.000000
C56   C     C_3   0.485853 0.901349 0.006052 0.000000
C57   C     C_3   0.490357 0.853014 0.964178 0.000000
C58   C     C_3   0.426233 0.861337 0.922298 0.000000
C59   C     C_R   0.524099 0.850773 0.920325 0.000000
N11   N     N_R   0.500732 0.899122 0.869788 0.000000
C60   C     C_R   0.533694 0.868888 0.832861 0.000000
C61   C     C_R   0.532795 0.893541 0.777977 0.000000
C62   C     C_R   0.557473 0.853821 0.739383 0.000000
C63   C     C_R   0.574949 0.792362 0.753071 0.000000
C64   C     C_R   0.583694 0.767758 0.813657 0.000000
C65   C     C_R   0.569030 0.807145 0.855662 0.000000
N12   N     N_R   0.569019 0.793832 0.914186 0.000000
C66   C     C_2   0.576117 0.756495 0.701112 0.000000
O11   O     O_2   0.567016 0.779027 0.647520 0.000000
O12   O     O_2   0.581706 0.700728 0.710607 0.000000
H56   H     H_    0.488721 0.938161 0.982583 0.000000
H57   H     H_    0.441360 0.920571 0.016582 0.000000
H58   H     H_    0.526459 0.879965 0.052738 0.000000
H59   H     H_    0.517005 0.808008 0.996434 0.000000
H60   H     H_    0.421618 0.822300 0.938255 0.000000
H61   H     H_    0.387344 0.905675 0.923982 0.000000
H62   H     H_    0.423441 0.859905 0.871658 0.000000
H63   H     H_    0.510543 0.942535 0.764297 0.000000
H64   H     H_    0.553671 0.873201 0.694056 0.000000
H65   H     H_    0.590939 0.722350 0.823566 0.000000
H66   H     H_    0.580832 0.678040 0.675714 0.000000
C67   C     C_3   0.523194 0.730783 0.121721 0.000000
C68   C     C_3   0.580695 0.681150 0.112531 0.000000
C69   C     C_3   0.560566 0.668843 0.046225 0.000000
C70   C     C_R   0.624268 0.705455 0.121948 0.000000
N13   N     N_R   0.636370 0.725592 0.072292 0.000000
C71   C     C_R   0.650423 0.767933 0.096168 0.000000
C72   C     C_R   0.653975 0.810553 0.062300 0.000000
C73   C     C_R   0.667157 0.852471 0.093989 0.000000
C74   C     C_R   0.679304 0.848498 0.159235 0.000000
C75   C     C_R   0.673838 0.805378 0.192065 0.000000
C76   C     C_R   0.654262 0.768316 0.158315 0.000000
N14   N     N_R   0.637573 0.728791 0.177202 0.000000
C77   C     C_2   0.696012 0.891453 0.192609 0.000000
O13   O     O_2   0.715227 0.919127 0.168393 0.000000
O14   O     O_2   0.688777 0.901675 0.249327 0.000000
H67   H     H_    0.506100 0.772449 0.087221 0.000000
H68   H     H_    0.487368 0.716022 0.112214 0.000000
H69   H     H_    0.534380 0.740881 0.171119 0.000000
H70   H     H_    0.603338 0.638914 0.147628 0.000000
H71   H     H_    0.603475 0.629267 0.044478 0.000000
H72   H     H_    0.522306 0.656970 0.038471 0.000000
H73   H     H_    0.542869 0.709213 0.009654 0.000000
H74   H     H_    0.645680 0.811378 0.011893 0.000000
H75   H     H_    0.670272 0.886961 0.068256 0.000000
H76   H     H_    0.684668 0.801788 0.242106 0.000000
H77   H     H_    0.695038 0.933519 0.268622 0.000000
C78   C     C_3   0.144832 0.205027 0.217080 0.000000
C79   C     C_3   0.148559 0.250805 0.257934 0.000000
C80   C     C_3   0.199288 0.265439 0.254563 0.000000
C81   C     C_R   0.084530 0.305861 0.233010 0.000000
N15   N     N_R   0.052708 0.335658 0.169184 0.000000
C82   C     C_R   0.001196 0.384449 0.172374 0.000000
C83   C     C_R   0.955207 0.433110 0.124195 0.000000
C84   C     C_R   0.919053 0.485507 0.141296 0.000000
C85   C     C_R   0.923235 0.484653 0.203344 0.000000
C86   C     C_R   0.962477 0.432942 0.249871 0.000000
C87   C     C_R   0.001775 0.383449 0.232687 0.000000
N16   N     N_R   0.050832 0.332856 0.272227 0.000000
C88   C     C_2   0.905134 0.539968 0.224688 0.000000
O15   O     O_2   0.851240 0.582526 0.202924 0.000000
O16   O     O_2   0.947271 0.540618 0.276411 0.000000
H78   H     H_    0.148179 0.217452 0.171411 0.000000
H79   H     H_    0.181069 0.157557 0.239450 0.000000
H80   H     H_    0.098987 0.207354 0.208907 0.000000
H81   H     H_    0.159889 0.233118 0.308471 0.000000
H82   H     H_    0.194316 0.306307 0.275789 0.000000
H83   H     H_    0.246963 0.226916 0.283594 0.000000
H84   H     H_    0.195784 0.273934 0.204118 0.000000
H85   H     H_    0.951456 0.435805 0.075518 0.000000
H86   H     H_    0.895015 0.528688 0.108943 0.000000
H87   H     H_    0.965978 0.432765 0.299042 0.000000
H88   H     H_    0.930459 0.573174 0.297531 0.000000
C89   C     C_3   0.090783 0.162763 0.089832 0.000000
C90   C     C_3   0.091838 0.181646 0.026466 0.000000
C91   C     C_3   0.027812 0.230663 0.982513 0.000000
C92   C     C_R   0.135128 0.206028 0.039082 0.000000
N17   N     N_R   0.119053 0.265211 0.052490 0.000000
C93   C     C_R   0.166383 0.270935 0.042731 0.000000
C94   C     C_R   0.177925 0.319313 0.050062 0.000000
C95   C     C_R   0.219286 0.322241 0.023804 0.000000
C96   C     C_R   0.246891 0.277896 0.989414 0.000000
C97   C     C_R   0.239305 0.226449 0.988194 0.000000
C98   C     C_R   0.203725 0.221240 0.020724 0.000000
N18   N     N_R   0.189845 0.175707 0.024142 0.000000
C99   C     C_2   0.283405 0.285828 0.953942 0.000000
O17   O     O_2   0.292033 0.329885 0.956724 0.000000
O18   O     O_2   0.307027 0.244825 0.917606 0.000000
H89   H     H_    0.072939 0.203900 0.108248 0.000000
H90   H     H_    0.058441 0.144126 0.085331 0.000000
H91   H     H_    0.139938 0.130058 0.123442 0.000000
H92   H     H_    0.109253 0.144340 0.000392 0.000000
H93   H     H_    0.034435 0.251236 0.943695 0.000000
H94   H     H_    0.993804 0.214019 0.962585 0.000000
H95   H     H_    0.009782 0.264587 0.010875 0.000000
H96   H     H_    0.153357 0.355636 0.072703 0.000000
H97   H     H_    0.226271 0.361682 0.026737 0.000000
H98   H     H_    0.256903 0.193287 0.958914 0.000000
H99   H     H_    0.331006 0.250197 0.894342 0.000000
C100  C     C_3   0.660502 0.963351 0.917519 0.000000
C101  C     C_3   0.603320 0.957267 0.883931 0.000000
C102  C     C_3   0.579285 0.955135 0.937732 0.000000
C103  C     C_R   0.555098 0.010799 0.830489 0.000000
N19   N     N_R   0.492633 0.039884 0.828703 0.000000
C104  C     C_R   0.474045 0.099510 0.809898 0.000000
C105  C     C_R   0.424051 0.151300 0.816600 0.000000
C106  C     C_R   0.416368 0.208407 0.799770 0.000000
C107  C     C_R   0.459279 0.213743 0.777864 0.000000
C108  C     C_R   0.511425 0.161211 0.775120 0.000000
C109  C     C_R   0.519393 0.104380 0.793326 0.000000
N20   N     N_R   0.571484 0.048516 0.802341 0.000000
C110  C     C_2   0.450658 0.274666 0.759681 0.000000
O19   O     O_2   0.405150 0.320936 0.762939 0.000000
O20   O     O_2   0.492811 0.279820 0.739100 0.000000
H100  H     H_    0.645543 0.010688 0.926820 0.000000
H101  H     H_    0.689506 0.930831 0.964399 0.000000
H102  H     H_    0.689051 0.950692 0.887392 0.000000
H103  H     H_    0.617253 0.914718 0.864243 0.000000
H104  H     H_    0.528656 0.969560 0.922203 0.000000
H105  H     H_    0.605954 0.907382 0.963336 0.000000
H106  H     H_    0.588084 0.984694 0.971863 0.000000
H107  H     H_    0.395240 0.148849 0.841241 0.000000
H108  H     H_    0.377315 0.248677 0.805652 0.000000
H109  H     H_    0.545596 0.164581 0.759580 0.000000
H110  H     H_    0.487041 0.319943 0.727241 0.000000
C111  C     C_3   0.224091 0.095390 0.834668 0.000000
C112  C     C_3   0.279226 0.030946 0.863036 0.000000
C113  C     C_3   0.301783 0.994017 0.813814 0.000000
C114  C     C_R   0.330194 0.034666 0.917267 0.000000
N21   N     N_R   0.383485 0.031974 0.907429 0.000000
C115  C     C_R   0.401154 0.060411 0.954721 0.000000
C116  C     C_R   0.445449 0.079130 0.963200 0.000000
C117  C     C_R   0.449102 0.117227 0.006968 0.000000
C118  C     C_R   0.410188 0.134568 0.043342 0.000000
C119  C     C_R   0.369133 0.111263 0.037726 0.000000
C120  C     C_R   0.363933 0.075778 0.992098 0.000000
N22   N     N_R   0.318650 0.059006 0.972301 0.000000
C121  C     C_2   0.412517 0.177824 0.087111 0.000000
O21   O     O_2   0.449777 0.196892 0.092918 0.000000
O22   O     O_2   0.373094 0.197311 0.120416 0.000000
H111  H     H_    0.240439 0.128945 0.848719 0.000000
H112  H     H_    0.201187 0.103202 0.781746 0.000000
H113  H     H_    0.188903 0.101822 0.856882 0.000000
H114  H     H_    0.259207 0.006772 0.878937 0.000000
H115  H     H_    0.353457 0.974572 0.825729 0.000000
H116  H     H_    0.293036 0.954647 0.815140 0.000000
H117  H     H_    0.274086 0.020748 0.764330 0.000000
H118  H     H_    0.474089 0.068234 0.933954 0.000000
H119  H     H_    0.481903 0.134281 0.011395 0.000000
H120  H     H_    0.337652 0.124317 0.064114 0.000000
H121  H     H_    0.374681 0.225897 0.148903 0.000000
C122  C     C_3   0.275544 0.150997 0.169881 0.000000
C123  C     C_3   0.343216 0.100462 0.195601 0.000000
C124  C     C_3   0.371094 0.112150 0.262342 0.000000
C125  C     C_R   0.343013 0.040124 0.191944 0.000000
N23   N     N_R   0.369590 0.994462 0.246445 0.000000
C126  C     C_R   0.342480 0.961345 0.224189 0.000000
C127  C     C_R   0.338079 0.922786 0.262653 0.000000
C128  C     C_R   0.318677 0.883600 0.235347 0.000000
C129  C     C_R   0.302977 0.886424 0.169956 0.000000
C130  C     C_R   0.289985 0.938581 0.131297 0.000000
C131  C     C_R   0.310668 0.977250 0.159638 0.000000
N24   N     N_R   0.308421 0.028804 0.134674 0.000000
C132  C     C_2   0.306772 0.830872 0.146018 0.000000
O23   O     O_2   0.333898 0.783095 0.184847 0.000000
O24   O     O_2   0.282599 0.830430 0.082965 0.000000
H122  H     H_    0.256671 0.156278 0.208442 0.000000
H123  H     H_    0.272565 0.194323 0.152748 0.000000
H124  H     H_    0.247093 0.136758 0.133616 0.000000
H125  H     H_    0.369613 0.104194 0.166656 0.000000
H126  H     H_    0.410924 0.119882 0.264384 0.000000
H127  H     H_    0.337610 0.155866 0.271944 0.000000
H128  H     H_    0.385036 0.075132 0.300679 0.000000
H129  H     H_    0.349837 0.923822 0.312983 0.000000
H130  H     H_    0.319903 0.848741 0.265620 0.000000
H131  H     H_    0.267776 0.945818 0.081559 0.000000
H132  H     H_    0.256731 0.867659 0.051407 0.000000
C133  C     C_3   0.538639 0.879116 0.213057 0.000000
C134  C     C_3   0.580125 0.846887 0.281985 0.000000
C135  C     C_3   0.610408 0.876846 0.327693 0.000000
C136  C     C_R   0.551987 0.819942 0.309712 0.000000
N25   N     N_R   0.499449 0.848296 0.330464 0.000000
C137  C     C_R   0.493749 0.798062 0.342921 0.000000
C138  C     C_R   0.446815 0.794853 0.358558 0.000000
C139  C     C_R   0.450282 0.738866 0.369788 0.000000
C140  C     C_R   0.500774 0.685468 0.366068 0.000000
C141  C     C_R   0.547207 0.688758 0.349108 0.000000
C142  C     C_R   0.541260 0.745293 0.334329 0.000000
N26   N     N_R   0.578276 0.757662 0.311155 0.000000
C143  C     C_2   0.503709 0.626185 0.378519 0.000000
O25   O     O_2   0.465505 0.623262 0.398555 0.000000
O26   O     O_2   0.547317 0.575073 0.366303 0.000000
H133  H     H_    0.541604 0.843771 0.182685 0.000000
H134  H     H_    0.487775 0.905831 0.207107 0.000000
H135  H     H_    0.557550 0.905791 0.196775 0.000000
H136  H     H_    0.620338 0.804844 0.279267 0.000000
H137  H     H_    0.660567 0.842182 0.354778 0.000000
H138  H     H_    0.609848 0.915264 0.302400 0.000000
H139  H     H_    0.587318 0.889310 0.363307 0.000000
H140  H     H_    0.407538 0.833968 0.363611 0.000000
H141  H     H_    0.413036 0.737579 0.382231 0.000000
H142  H     H_    0.587684 0.647689 0.349047 0.000000
H143  H     H_    0.548548 0.536379 0.373899 0.000000
C144  C     C_3   0.428072 0.947216 0.633071 0.000000
C145  C     C_3   0.380540 0.948696 0.660997 0.000000
C146  C     C_3   0.401326 0.895255 0.712058 0.000000
C147  C     C_R   0.349905 0.008475 0.677707 0.000000
N27   N     N_R   0.366943 0.025608 0.737696 0.000000
C148  C     C_R   0.319051 0.084111 0.724033 0.000000
C149  C     C_R   0.308543 0.122541 0.766908 0.000000
C150  C     C_R   0.253615 0.178448 0.748343 0.000000
C151  C     C_R   0.206090 0.192163 0.689218 0.000000
C152  C     C_R   0.217345 0.152676 0.645079 0.000000
C153  C     C_R   0.276162 0.099973 0.662286 0.000000
N28   N     N_R   0.295804 0.053398 0.629549 0.000000
C154  C     C_2   0.143158 0.245655 0.677901 0.000000
O27   O     O_2   0.138695 0.286982 0.708182 0.000000
O28   O     O_2   0.089938 0.245069 0.642119 0.000000
H144  H     H_    0.457721 0.964821 0.663175 0.000000
H145  H     H_    0.455976 0.901177 0.622969 0.000000
H146  H     H_    0.401498 0.981291 0.587793 0.000000
H147  H     H_    0.340804 0.950658 0.621250 0.000000
H148  H     H_    0.359982 0.888174 0.705026 0.000000
H149  H     H_    0.440280 0.852522 0.706793 0.000000
H150  H     H_    0.414631 0.905869 0.760644 0.000000
H151  H     H_    0.340063 0.107677 0.815599 0.000000
H152  H     H_    0.245252 0.207788 0.783588 0.000000
H153  H     H_    0.181783 0.163771 0.598051 0.000000
H154  H     H_    0.049073 0.275428 0.643005 0.000000
C155  C     C_3   0.364255 0.089344 0.422359 0.000000
C156  C     C_3   0.313204 0.071364 0.405830 0.000000
C157  C     C_3   0.282000 0.081327 0.334628 0.000000
C158  C     C_R   0.339832 0.006412 0.433253 0.000000
N29   N     N_R   0.385871 0.957591 0.415238 0.000000
C159  C     C_R   0.400080 0.910062 0.458487 0.000000
C160  C     C_R   0.451628 0.851965 0.474327 0.000000
C161  C     C_R   0.456294 0.807765 0.516403 0.000000
C162  C     C_R   0.410729 0.822881 0.544360 0.000000
C163  C     C_R   0.363568 0.883617 0.534370 0.000000
C164  C     C_R   0.360838 0.927807 0.493805 0.000000
N30   N     N_R   0.322457 0.990057 0.481597 0.000000
C165  C     C_2   0.413638 0.774966 0.586043 0.000000
O29   O     O_2   0.453731 0.721241 0.593035 0.000000
O30   O     O_2   0.371706 0.789903 0.616258 0.000000
H155  H     H_    0.403195 0.058400 0.406956 0.000000
H156  H     H_    0.344855 0.136975 0.398064 0.000000
H157  H     H_    0.381587 0.086685 0.475057 0.000000
H158  H     H_    0.277861 0.100291 0.426219 0.000000
H159  H     H_    0.238106 0.078217 0.322839 0.000000
H160  H     H_    0.272081 0.126666 0.314362 0.000000
H161  H     H_    0.314272 0.045549 0.315743 0.000000
H162  H     H_    0.487769 0.840606 0.453930 0.000000
H163  H     H_    0.495455 0.761236 0.526397 0.000000
H164  H     H_    0.328789 0.894962 0.556533 0.000000
H165  H     H_    0.373848 0.758185 0.643578 0.000000
C166  C     C_3   0.159823 0.063563 0.652989 0.000000
C167  C     C_3   0.111352 0.077196 0.586653 0.000000
C168  C     C_3   0.088405 0.137846 0.546774 0.000000
C169  C     C_R   0.137274 0.024810 0.555311 0.000000
N31   N     N_R   0.186455 0.009021 0.530940 0.000000
C170  C     C_R   0.187505 0.958738 0.506300 0.000000
C171  C     C_R   0.219198 0.926028 0.467380 0.000000
C172  C     C_R   0.213626 0.875840 0.448589 0.000000
C173  C     C_R   0.176548 0.858094 0.468107 0.000000
C174  C     C_R   0.142590 0.892520 0.504695 0.000000
C175  C     C_R   0.146212 0.943992 0.520184 0.000000
N32   N     N_R   0.112205 0.985593 0.549976 0.000000
C176  C     C_2   0.171386 0.804549 0.447835 0.000000
O31   O     O_2   0.202847 0.773086 0.417268 0.000000
O32   O     O_2   0.130788 0.790684 0.461545 0.000000
H166  H     H_    0.144854 0.104128 0.676550 0.000000
H167  H     H_    0.165144 0.023833 0.681694 0.000000
H168  H     H_    0.206379 0.048314 0.649071 0.000000
H169  H     H_    0.068073 0.079573 0.589785 0.000000
H170  H     H_    0.039906 0.153797 0.511880 0.000000
H171  H     H_    0.083823 0.172564 0.577445 0.000000
H172  H     H_    0.120596 0.133189 0.521632 0.000000
H173  H     H_    0.247110 0.938308 0.449467 0.000000
H174  H     H_    0.238885 0.850586 0.418285 0.000000
H175  H     H_    0.114792 0.878878 0.521637 0.000000
H176  H     H_    0.126412 0.756378 0.446524 0.000000
C177  C     C_3   0.242874 0.222968 0.556589 0.000000
C178  C     C_3   0.209319 0.232413 0.485160 0.000000
C179  C     C_3   0.257688 0.216613 0.453434 0.000000
C180  C     C_R   0.170516 0.200903 0.462253 0.000000
N33   N     N_R   0.194101 0.136974 0.474079 0.000000
C181  C     C_R   0.160149 0.129867 0.418311 0.000000
C182  C     C_R   0.172371 0.074916 0.399672 0.000000
C183  C     C_R   0.138234 0.073760 0.338796 0.000000
C184  C     C_R   0.091207 0.128151 0.297452 0.000000
C185  C     C_R   0.081154 0.184381 0.316441 0.000000
C186  C     C_R   0.116340 0.184017 0.378074 0.000000
N34   N     N_R   0.117532 0.231581 0.406003 0.000000
C187  C     C_2   0.052275 0.122819 0.235952 0.000000
O33   O     O_2   0.078309 0.088161 0.203542 0.000000
O34   O     O_2   0.989003 0.146968 0.220836 0.000000
H177  H     H_    0.279108 0.173996 0.576319 0.000000
H178  H     H_    0.266769 0.250843 0.564629 0.000000
H179  H     H_    0.207739 0.241469 0.580217 0.000000
H180  H     H_    0.175810 0.281960 0.467330 0.000000
H181  H     H_    0.239898 0.207268 0.404898 0.000000
H182  H     H_    0.265991 0.255842 0.448618 0.000000
H183  H     H_    0.303069 0.176444 0.484399 0.000000
H184  H     H_    0.208914 0.033510 0.431126 0.000000
H185  H     H_    0.146925 0.030147 0.324376 0.000000
H186  H     H_    0.050785 0.227018 0.283363 0.000000
H187  H     H_    0.963908 0.139846 0.182348 0.000000
C188  C     C_3   0.864839 0.081206 0.909304 0.000000
C189  C     C_3   0.886318 0.066450 0.853031 0.000000
C190  C     C_3   0.836151 0.075385 0.790398 0.000000
C191  C     C_R   0.907003 0.107701 0.838823 0.000000
N35   N     N_R   0.864511 0.170144 0.818364 0.000000
C192  C     C_R   0.905329 0.191546 0.824746 0.000000
C193  C     C_R   0.889764 0.251817 0.814472 0.000000
C194  C     C_R   0.935856 0.264840 0.811683 0.000000
C195  C     C_R   0.998781 0.218602 0.830124 0.000000
C196  C     C_R   0.015601 0.158363 0.851261 0.000000
C197  C     C_R   0.967279 0.144546 0.842683 0.000000
N36   N     N_R   0.970432 0.088803 0.849757 0.000000
C198  C     C_2   0.047157 0.235305 0.830821 0.000000
O35   O     O_2   0.031269 0.283971 0.799228 0.000000
O36   O     O_2   0.108345 0.199472 0.869848 0.000000
H188  H     H_    0.812492 0.109203 0.892199 0.000000
H189  H     H_    0.881714 0.038308 0.941102 0.000000
H190  H     H_    0.889910 0.102878 0.939459 0.000000
H191  H     H_    0.926911 0.020713 0.868439 0.000000
H192  H     H_    0.861626 0.058666 0.758036 0.000000
H193  H     H_    0.810306 0.050939 0.790773 0.000000
H194  H     H_    0.803313 0.124080 0.769241 0.000000
H195  H     H_    0.842295 0.288136 0.807203 0.000000
H196  H     H_    0.922612 0.311737 0.796908 0.000000
H197  H     H_    0.064936 0.124295 0.873020 0.000000
H198  H     H_    0.139227 0.212318 0.872090 0.000000
C199  C     C_3   0.037765 0.074702 0.000179 0.000000
C200  C     C_3   0.110027 0.042862 0.027984 0.000000
C201  C     C_3   0.131400 0.985063 0.071863 0.000000
C202  C     C_R   0.139182 0.035153 0.977144 0.000000
N37   N     N_R   0.130586 0.998967 0.933465 0.000000
C203  C     C_R   0.188646 0.967194 0.930359 0.000000
C204  C     C_R   0.213357 0.908924 0.919657 0.000000
C205  C     C_R   0.278235 0.871245 0.941492 0.000000
C206  C     C_R   0.316725 0.891409 0.981107 0.000000
C207  C     C_R   0.292293 0.952129 0.987083 0.000000
C208  C     C_R   0.227201 0.988700 0.963484 0.000000
N38   N     N_R   0.196110 0.036303 0.989097 0.000000
C209  C     C_2   0.374561 0.846611 0.032456 0.000000
O37   O     O_2   0.391636 0.792305 0.033622 0.000000
O38   O     O_2   0.400644 0.865631 0.084382 0.000000
H199  H     H_    0.022281 0.045812 0.970393 0.000000
H200  H     H_    0.018866 0.081287 0.039778 0.000000
H201  H     H_    0.018204 0.119416 0.970626 0.000000
H202  H     H_    0.131095 0.063847 0.062172 0.000000
H203  H     H_    0.177843 0.949309 0.073088 0.000000
H204  H     H_    0.136394 0.994862 0.121308 0.000000
H205  H     H_    0.095062 0.970336 0.056903 0.000000
H206  H     H_    0.184449 0.888629 0.914521 0.000000
H207  H     H_    0.296137 0.822874 0.940215 0.000000
H208  H     H_    0.321070 0.966699 0.021831 0.000000
H209  H     H_    0.429531 0.837891 0.124977 0.000000
C210  C     C_3   0.005514 0.884172 0.779843 0.000000
C211  C     C_3   0.962639 0.932135 0.805121 0.000000
C212  C     C_3   0.899283 0.935039 0.784784 0.000000
C213  C     C_R   0.995109 0.911795 0.873647 0.000000
N39   N     N_R   0.001366 0.859290 0.901872 0.000000
C214  C     C_R   0.058020 0.836186 0.950127 0.000000
C215  C     C_R   0.091929 0.779423 0.989043 0.000000
C216  C     C_R   0.141784 0.768732 0.043861 0.000000
C217  C     C_R   0.157861 0.814093 0.056412 0.000000
C218  C     C_R   0.133149 0.864413 0.007698 0.000000
C219  C     C_R   0.080452 0.876368 0.955181 0.000000
N40   N     N_R   0.042236 0.925292 0.905350 0.000000
C220  C     C_2   0.192260 0.811712 0.123953 0.000000
O39   O     O_2   0.226178 0.762479 0.161293 0.000000
O40   O     O_2   0.179214 0.864065 0.147140 0.000000
H210  H     H_    0.048523 0.848381 0.818434 0.000000
H211  H     H_    0.981442 0.862177 0.750862 0.000000
H212  H     H_    0.017876 0.908421 0.751543 0.000000
H213  H     H_    0.959105 0.976031 0.789460 0.000000
H214  H     H_    0.880551 0.953439 0.822081 0.000000
H215  H     H_    0.867973 0.966448 0.738467 0.000000
H216  H     H_    0.901782 0.890217 0.781238 0.000000
H217  H     H_    0.076625 0.746161 0.981153 0.000000
H218  H     H_    0.162773 0.727898 0.079562 0.000000
H219  H     H_    0.151517 0.895020 0.011621 0.000000
H220  H     H_    0.198285 0.862469 0.192717 0.000000
C221  C     C_3   0.929455 0.904146 0.633968 0.000000
C222  C     C_3   0.996644 0.887255 0.638211 0.000000
C223  C     C_3   0.051206 0.823117 0.668716 0.000000
C224  C     C_R   0.994202 0.886377 0.575045 0.000000
N41   N     N_R   0.972332 0.851464 0.539501 0.000000
C225  C     C_R   0.971006 0.870067 0.480585 0.000000
C226  C     C_R   0.943912 0.859813 0.420567 0.000000
C227  C     C_R   0.940243 0.890657 0.366070 0.000000
C228  C     C_R   0.962181 0.932559 0.370866 0.000000
C229  C     C_R   0.988706 0.943257 0.430915 0.000000
C230  C     C_R   0.992509 0.911853 0.484412 0.000000
N42   N     N_R   0.009637 0.921972 0.544949 0.000000
C231  C     C_2   0.955062 0.967247 0.312499 0.000000
O41   O     O_2   0.925994 0.962699 0.259261 0.000000
O42   O     O_2   0.979588 0.005178 0.317459 0.000000
H221  H     H_    0.923856 0.865473 0.645121 0.000000
H222  H     H_    0.913838 0.937853 0.664546 0.000000
H223  H     H_    0.894982 0.927369 0.585106 0.000000
H224  H     H_    0.006908 0.923646 0.653650 0.000000
H225  H     H_    0.090283 0.815974 0.652420 0.000000
H226  H     H_    0.070553 0.812160 0.721653 0.000000
H227  H     H_    0.037253 0.791014 0.645984 0.000000
H228  H     H_    0.924368 0.829355 0.414827 0.000000
H229  H     H_    0.918722 0.882410 0.319380 0.000000
H230  H     H_    0.004747 0.976434 0.436032 0.000000
H231  H     H_    0.974421 0.028300 0.278997 0.000000
C232  C     C_3   0.983873 0.119242 0.707630 0.000000
C233  C     C_3   0.049158 0.068095 0.719761 0.000000
C234  C     C_3   0.100139 0.068432 0.776770 0.000000
C235  C     C_R   0.053180 0.007559 0.723795 0.000000
N43   N     N_R   0.075186 0.971636 0.783437 0.000000
C236  C     C_R   0.115894 0.915265 0.774259 0.000000
C237  C     C_R   0.147929 0.857760 0.812484 0.000000
C238  C     C_R   0.189444 0.807953 0.793152 0.000000
C239  C     C_R   0.196047 0.814494 0.734210 0.000000
C240  C     C_R   0.155765 0.870535 0.691991 0.000000
C241  C     C_R   0.115359 0.918665 0.712964 0.000000
N44   N     N_R   0.070698 0.974329 0.677847 0.000000
C242  C     C_2   0.239979 0.760252 0.714844 0.000000
O43   O     O_2   0.259752 0.708967 0.743460 0.000000
O44   O     O_2   0.259748 0.765911 0.666738 0.000000
H232  H     H_    0.961080 0.106045 0.734618 0.000000
H233  H     H_    0.984730 0.161929 0.718501 0.000000
H234  H     H_    0.958681 0.125220 0.655752 0.000000
H235  H     H_    0.059226 0.075489 0.677767 0.000000
H236  H     H_    0.147771 0.034349 0.776970 0.000000
H237  H     H_    0.095153 0.114837 0.773925 0.000000
H238  H     H_    0.096536 0.054252 0.821116 0.000000
H239  H     H_    0.139484 0.849593 0.855140 0.000000
H240  H     H_    0.216013 0.763462 0.824504 0.000000
H241  H     H_    0.153878 0.876566 0.643179 0.000000
H242  H     H_    0.249567 0.805174 0.645630 0.000000
C243  C     C_3   0.889048 0.061115 0.655299 0.000000
C244  C     C_3   0.877800 0.056268 0.586486 0.000000
C245  C     C_3   0.810116 0.072670 0.556125 0.000000
C246  C     C_R   0.891105 0.094865 0.550326 0.000000
N45   N     N_R   0.841969 0.147138 0.504757 0.000000
C247  C     C_R   0.870653 0.148386 0.463498 0.000000
C248  C     C_R   0.845443 0.187062 0.406198 0.000000
C249  C     C_R   0.885689 0.188055 0.379206 0.000000
C250  C     C_R   0.948284 0.142814 0.401462 0.000000
C251  C     C_R   0.970768 0.096164 0.451122 0.000000
C252  C     C_R   0.932634 0.103218 0.484894 0.000000
N46   N     N_R   0.948492 0.068560 0.540303 0.000000
C253  C     C_2   0.993351 0.155016 0.388229 0.000000
O45   O     O_2   0.047322 0.113020 0.400579 0.000000
O46   O     O_2   0.981348 0.213318 0.385028 0.000000
H243  H     H_    0.939708 0.032453 0.684639 0.000000
H244  H     H_    0.868811 0.109501 0.661636 0.000000
H245  H     H_    0.863501 0.040793 0.668895 0.000000
H246  H     H_    0.908182 0.009124 0.582378 0.000000
H247  H     H_    0.801349 0.075655 0.504633 0.000000
H248  H     H_    0.802556 0.036159 0.572985 0.000000
H249  H     H_    0.779614 0.116888 0.567962 0.000000
H250  H     H_    0.797562 0.220516 0.383845 0.000000
H251  H     H_    0.867278 0.226763 0.342738 0.000000
H252  H     H_    0.019257 0.060909 0.468209 0.000000
H253  H     H_    0.015422 0.222474 0.400385 0.000000
C254  C     C_3   0.830838 0.807236 0.694667 0.000000
C255  C     C_3   0.895245 0.762848 0.735143 0.000000
C256  C     C_3   0.912532 0.698597 0.726033 0.000000
C257  C     C_R   0.939823 0.782124 0.732222 0.000000
N47   N     N_R   0.971531 0.762549 0.688179 0.000000
C258  C     C_R   0.032578 0.729589 0.730611 0.000000
C259  C     C_R   0.085827 0.689212 0.718066 0.000000
C260  C     C_R   0.144407 0.661725 0.768387 0.000000
C261  C     C_R   0.149186 0.674538 0.830143 0.000000
C262  C     C_R   0.094704 0.714134 0.842183 0.000000
C263  C     C_R   0.036718 0.740126 0.792193 0.000000
N48   N     N_R   0.978004 0.776026 0.794755 0.000000
C264  C     C_2   0.211795 0.645209 0.882973 0.000000
O47   O     O_2   0.259823 0.610186 0.872837 0.000000
O48   O     O_2   0.216551 0.656798 0.942925 0.000000
H254  H     H_    0.801538 0.784399 0.681999 0.000000
H255  H     H_    0.812302 0.845362 0.719795 0.000000
H256  H     H_    0.836096 0.824869 0.653813 0.000000
H257  H     H_    0.900153 0.762151 0.785349 0.000000
H258  H     H_    0.963989 0.667213 0.752656 0.000000
H259  H     H_    0.883569 0.687448 0.745856 0.000000
H260  H     H_    0.899980 0.694655 0.675579 0.000000
H261  H     H_    0.082248 0.679435 0.670204 0.000000
H262  H     H_    0.186462 0.630335 0.758770 0.000000
H263  H     H_    0.097229 0.723359 0.889561 0.000000
H264  H     H_    0.257791 0.637358 0.977569 0.000000
C265  C     C_3   0.759753 0.006044 0.926284 0.000000
C266  C     C_3   0.809596 0.978435 0.896350 0.000000
C267  C     C_3   0.870285 0.940233 0.951499 0.000000
C268  C     C_R   0.798321 0.939493 0.848393 0.000000
N49   N     N_R   0.844809 0.878356 0.853289 0.000000
C269  C     C_R   0.807039 0.853433 0.833074 0.000000
C270  C     C_R   0.825770 0.792571 0.841088 0.000000
C271  C     C_R   0.784206 0.775218 0.804033 0.000000
C272  C     C_R   0.723140 0.818995 0.764632 0.000000
C273  C     C_R   0.699914 0.880888 0.770149 0.000000
C274  C     C_R   0.744097 0.897083 0.805139 0.000000
N50   N     N_R   0.736266 0.953700 0.812185 0.000000
C275  C     C_2   0.689061 0.798672 0.712343 0.000000
O49   O     O_2   0.644526 0.835852 0.665877 0.000000
O50   O     O_2   0.712476 0.738295 0.710986 0.000000
H265  H     H_    0.766941 0.970386 0.962641 0.000000
H266  H     H_    0.764478 0.042754 0.951007 0.000000
H267  H     H_    0.712443 0.026594 0.888292 0.000000
H268  H     H_    0.809586 0.016472 0.873419 0.000000
H269  H     H_    0.909745 0.930295 0.934994 0.000000
H270  H     H_    0.873651 0.965122 0.992315 0.000000
H271  H     H_    0.869513 0.898827 0.967618 0.000000
H272  H     H_    0.873890 0.758688 0.869051 0.000000
H273  H     H_    0.802629 0.727528 0.800714 0.000000
H274  H     H_    0.650987 0.915705 0.743504 0.000000
H275  H     H_    0.693501 0.725027 0.673647 0.000000
C276  C     C_3   0.863852 0.761150 0.201843 0.000000
C277  C     C_3   0.866821 0.699304 0.208615 0.000000
C278  C     C_3   0.815422 0.699428 0.153720 0.000000
C279  C     C_R   0.932221 0.648305 0.218527 0.000000
N51   N     N_R   0.958839 0.632432 0.169792 0.000000
C280  C     C_R   0.020694 0.612959 0.205838 0.000000
C281  C     C_R   0.067133 0.606184 0.182515 0.000000
C282  C     C_R   0.127016 0.590669 0.225556 0.000000
C283  C     C_R   0.139915 0.582114 0.291341 0.000000
C284  C     C_R   0.091812 0.591396 0.313835 0.000000
C285  C     C_R   0.031494 0.609228 0.270663 0.000000
N52   N     N_R   0.976421 0.628820 0.282001 0.000000
C286  C     C_2   0.203882 0.565471 0.337037 0.000000
O51   O     O_2   0.246418 0.556446 0.317298 0.000000
O52   O     O_2   0.215885 0.560503 0.400913 0.000000
H276  H     H_    0.872111 0.770382 0.158367 0.000000
H277  H     H_    0.816023 0.798560 0.197012 0.000000
H278  H     H_    0.899931 0.762057 0.245026 0.000000
H279  H     H_    0.856589 0.692761 0.251445 0.000000
H280  H     H_    0.837846 0.662321 0.128777 0.000000
H281  H     H_    0.783105 0.692223 0.172044 0.000000
H282  H     H_    0.787616 0.745268 0.123580 0.000000
H283  H     H_    0.056930 0.613517 0.131447 0.000000
H284  H     H_    0.163415 0.585305 0.207086 0.000000
H285  H     H_    0.101834 0.585848 0.364001 0.000000
H286  H     H_    0.257971 0.549728 0.430702 0.000000
C287  C     C_3   0.823022 0.781798 0.011657 0.000000
C288  C     C_3   0.763600 0.777765 0.999323 0.000000
C289  C     C_3   0.722603 0.804326 0.928926 0.000000
C290  C     C_R   0.779375 0.712101 0.013522 0.000000
N53   N     N_R   0.837464 0.670527 0.009915 0.000000
C291  C     C_R   0.817553 0.649596 0.957321 0.000000
C292  C     C_R   0.840303 0.642037 0.909301 0.000000
C293  C     C_R   0.810632 0.627186 0.853762 0.000000
C294  C     C_R   0.754860 0.625968 0.845584 0.000000
C295  C     C_R   0.725673 0.647413 0.889756 0.000000
C296  C     C_R   0.756355 0.663006 0.942961 0.000000
N54   N     N_R   0.731045 0.699120 0.981760 0.000000
C297  C     C_2   0.723271 0.606628 0.789765 0.000000
O53   O     O_2   0.682808 0.594544 0.792605 0.000000
O54   O     O_2   0.737528 0.601471 0.735768 0.000000
H287  H     H_    0.811976 0.830055 0.013485 0.000000
H288  H     H_    0.858127 0.752733 0.058759 0.000000
H289  H     H_    0.841357 0.766918 0.972301 0.000000
H290  H     H_    0.740259 0.806925 0.029093 0.000000
H291  H     H_    0.672710 0.817932 0.921457 0.000000
H292  H     H_    0.726592 0.843977 0.914330 0.000000
H293  H     H_    0.739291 0.770921 0.898049 0.000000
H294  H     H_    0.874150 0.657107 0.912529 0.000000
H295  H     H_    0.829970 0.619338 0.816390 0.000000
H296  H     H_    0.680229 0.652131 0.882207 0.000000
H297  H     H_    0.767920 0.611386 0.729266 0.000000
C298  C     C_3   0.002709 0.647557 0.884070 0.000000
C299  C     C_3   0.018048 0.642295 0.955450 0.000000
C300  C     C_3   0.087316 0.625394 0.989635 0.000000
C301  C     C_R   0.974013 0.699005 0.972624 0.000000
N55   N     N_R   0.972646 0.754145 0.959844 0.000000
C302  C     C_R   0.973593 0.774331 0.016512 0.000000
C303  C     C_R   0.982696 0.822078 0.037486 0.000000
C304  C     C_R   0.988596 0.831562 0.099495 0.000000
C305  C     C_R   0.984463 0.793778 0.140807 0.000000
C306  C     C_R   0.971960 0.748096 0.118384 0.000000
C307  C     C_R   0.969012 0.737386 0.056992 0.000000
N56   N     N_R   0.964486 0.691123 0.029058 0.000000
C308  C     C_2   0.996312 0.800457 0.208626 0.000000
O55   O     O_2   0.002075 0.843968 0.226517 0.000000
O56   O     O_2   0.004803 0.756788 0.252206 0.000000
H298  H     H_    0.014549 0.680508 0.868308 0.000000
H299  H     H_    0.031384 0.602199 0.872811 0.000000
H300  H     H_    0.951222 0.664286 0.859311 0.000000
H301  H     H_    0.013760 0.604874 0.974725 0.000000
H302  H     H_    0.118287 0.575656 0.991921 0.000000
H303  H     H_    0.100945 0.651126 0.963034 0.000000
H304  H     H_    0.095129 0.634796 0.039429 0.000000
H305  H     H_    0.986458 0.852341 0.008075 0.000000
H306  H     H_    0.997721 0.868147 0.115302 0.000000
H307  H     H_    0.965923 0.721495 0.149545 0.000000
H308  H     H_    0.014012 0.760781 0.297020 0.000000
C309  C     C_3   0.114459 0.419552 0.187269 0.000000
C310  C     C_3   0.076377 0.479015 0.139740 0.000000
C311  C     C_3   0.122524 0.488385 0.116886 0.000000
C312  C     C_R   0.024503 0.481622 0.082587 0.000000
N57   N     N_R   0.037726 0.428800 0.055788 0.000000
C313  C     C_R   0.020564 0.449985 0.994372 0.000000
C314  C     C_R   0.038844 0.413265 0.951816 0.000000
C315  C     C_R   0.017081 0.438336 0.889010 0.000000
C316  C     C_R   0.978255 0.500514 0.870234 0.000000
C317  C     C_R   0.968560 0.538373 0.916226 0.000000
C318  C     C_R   0.989110 0.512670 0.981032 0.000000
N58   N     N_R   0.987031 0.536437 0.037358 0.000000
C319  C     C_2   0.945638 0.523435 0.800703 0.000000
O57   O     O_2   0.942033 0.487899 0.764594 0.000000
O58   O     O_2   0.916034 0.583183 0.776030 0.000000
H309  H     H_    0.128462 0.379629 0.163050 0.000000
H310  H     H_    0.158350 0.417223 0.221557 0.000000
H311  H     H_    0.085389 0.419982 0.214818 0.000000
H312  H     H_    0.053802 0.514260 0.165393 0.000000
H313  H     H_    0.096989 0.531665 0.081426 0.000000
H314  H     H_    0.159871 0.489805 0.158292 0.000000
H315  H     H_    0.146113 0.449915 0.093467 0.000000
H316  H     H_    0.065998 0.364518 0.965595 0.000000
H317  H     H_    0.028164 0.408320 0.854851 0.000000
H318  H     H_    0.947279 0.585506 0.899207 0.000000
H319  H     H_    0.891634 0.596347 0.730277 0.000000
C320  C     C_3   0.853105 0.233999 0.612932 0.000000
C321  C     C_3   0.824277 0.242842 0.662366 0.000000
C322  C     C_3   0.803041 0.309430 0.670118 0.000000
C323  C     C_R   0.767627 0.234076 0.640728 0.000000
N59   N     N_R   0.731166 0.252652 0.679414 0.000000
C324  C     C_R   0.671940 0.289831 0.635156 0.000000
C325  C     C_R   0.615174 0.321684 0.644985 0.000000
C326  C     C_R   0.562221 0.364854 0.593945 0.000000
C327  C     C_R   0.566628 0.375045 0.534410 0.000000
C328  C     C_R   0.623205 0.338545 0.524396 0.000000
C329  C     C_R   0.673892 0.293301 0.574827 0.000000
N60   N     N_R   0.731412 0.250325 0.574856 0.000000
C330  C     C_2   0.510820 0.422764 0.481504 0.000000
O59   O     O_2   0.460643 0.454137 0.489587 0.000000
O60   O     O_2   0.514803 0.432349 0.423827 0.000000
H320  H     H_    0.818200 0.271376 0.573203 0.000000
H321  H     H_    0.897548 0.236770 0.630482 0.000000
H322  H     H_    0.861017 0.190518 0.598859 0.000000
H323  H     H_    0.860329 0.209410 0.705827 0.000000
H324  H     H_    0.843580 0.318294 0.680157 0.000000
H325  H     H_    0.763842 0.341421 0.625858 0.000000
H326  H     H_    0.784348 0.320369 0.709019 0.000000
H327  H     H_    0.612603 0.315683 0.691981 0.000000
H328  H     H_    0.517912 0.391796 0.601711 0.000000
H329  H     H_    0.626906 0.343445 0.477845 0.000000
H330  H     H_    0.478055 0.463902 0.389189 0.000000
C331  C     C_3   0.739114 0.376095 0.492323 0.000000
C332  C     C_3   0.773961 0.346792 0.447149 0.000000
C333  C     C_3   0.843329 0.297663 0.479480 0.000000
C334  C     C_R   0.738147 0.325420 0.399533 0.000000
N61   N     N_R   0.713443 0.289351 0.413027 0.000000
C335  C     C_R   0.668817 0.300029 0.354714 0.000000
C336  C     C_R   0.622636 0.283595 0.340744 0.000000
C337  C     C_R   0.581940 0.296955 0.277662 0.000000
C338  C     C_R   0.587880 0.326690 0.229309 0.000000
C339  C     C_R   0.633843 0.344942 0.244626 0.000000
C340  C     C_R   0.672347 0.333460 0.308488 0.000000
N62   N     N_R   0.716531 0.350901 0.335353 0.000000
C341  C     C_2   0.543612 0.340532 0.162572 0.000000
O61   O     O_2   0.506569 0.320610 0.148940 0.000000
O62   O     O_2   0.542525 0.376308 0.116305 0.000000
H331  H     H_    0.727658 0.344696 0.512889 0.000000
H332  H     H_    0.767932 0.389673 0.530883 0.000000
H333  H     H_    0.692536 0.417079 0.464705 0.000000
H334  H     H_    0.770590 0.383054 0.416233 0.000000
H335  H     H_    0.867987 0.289508 0.444791 0.000000
H336  H     H_    0.867541 0.311049 0.522405 0.000000
H337  H     H_    0.846506 0.254206 0.493705 0.000000
H338  H     H_    0.616646 0.262913 0.378363 0.000000
H339  H     H_    0.545208 0.284206 0.266780 0.000000
H340  H     H_    0.638860 0.367793 0.207572 0.000000
H341  H     H_    0.512743 0.385683 0.072676 0.000000
C342  C     C_3   0.606306 0.228453 0.514377 0.000000
C343  C     C_3   0.601817 0.178073 0.485050 0.000000
C344  C     C_3   0.543868 0.206592 0.422283 0.000000
C345  C     C_R   0.661530 0.137185 0.474318 0.000000
N63   N     N_R   0.692835 0.163134 0.454467 0.000000
C346  C     C_R   0.702144 0.135345 0.404440 0.000000
C347  C     C_R   0.729910 0.144965 0.365785 0.000000
C348  C     C_R   0.734949 0.114222 0.315598 0.000000
C349  C     C_R   0.709844 0.075523 0.303199 0.000000
C350  C     C_R   0.684956 0.063112 0.345225 0.000000
C351  C     C_R   0.682889 0.092618 0.397633 0.000000
N64   N     N_R   0.662642 0.087590 0.446231 0.000000
C352  C     C_2   0.708185 0.049883 0.244262 0.000000
O63   O     O_2   0.748327 0.041258 0.220989 0.000000
O64   O     O_2   0.658485 0.042322 0.211737 0.000000
H342  H     H_    0.607270 0.256751 0.477186 0.000000
H343  H     H_    0.563916 0.256289 0.527372 0.000000
H344  H     H_    0.650351 0.206657 0.557698 0.000000
H345  H     H_    0.596313 0.152035 0.518748 0.000000
H346  H     H_    0.532892 0.171874 0.401269 0.000000
H347  H     H_    0.501504 0.241230 0.431764 0.000000
H348  H     H_    0.552010 0.229177 0.386093 0.000000
H349  H     H_    0.743726 0.178622 0.372264 0.000000
H350  H     H_    0.755301 0.123468 0.284194 0.000000
H351  H     H_    0.667537 0.031677 0.335324 0.000000
H352  H     H_    0.653899 0.032267 0.169260 0.000000
C353  C     C_3   0.766456 0.218514 0.967458 0.000000
C354  C     C_3   0.788611 0.261778 0.952000 0.000000
C355  C     C_3   0.844568 0.223696 0.934170 0.000000
C356  C     C_R   0.742329 0.313920 0.897635 0.000000
N65   N     N_R   0.731023 0.306500 0.833252 0.000000
C357  C     C_R   0.690828 0.365318 0.802405 0.000000
C358  C     C_R   0.668871 0.387233 0.738016 0.000000
C359  C     C_R   0.624346 0.448117 0.713136 0.000000
C360  C     C_R   0.610645 0.488839 0.754645 0.000000
C361  C     C_R   0.643120 0.467333 0.820489 0.000000
C362  C     C_R   0.679568 0.405059 0.844480 0.000000
N66   N     N_R   0.714143 0.375076 0.906834 0.000000
C363  C     C_2   0.568286 0.554964 0.728495 0.000000
O65   O     O_2   0.542195 0.573352 0.670302 0.000000
O66   O     O_2   0.557412 0.595636 0.768402 0.000000
H353  H     H_    0.765718 0.188506 0.932368 0.000000
H354  H     H_    0.801364 0.187721 0.014282 0.000000
H355  H     H_    0.718294 0.243545 0.969034 0.000000
H356  H     H_    0.799805 0.282199 0.994038 0.000000
H357  H     H_    0.858542 0.253331 0.914400 0.000000
H358  H     H_    0.884620 0.187471 0.975119 0.000000
H359  H     H_    0.826598 0.202596 0.897084 0.000000
H360  H     H_    0.688409 0.358709 0.707591 0.000000
H361  H     H_    0.605344 0.464099 0.661585 0.000000
H362  H     H_    0.644523 0.498870 0.850963 0.000000
H363  H     H_    0.528747 0.638958 0.750892 0.000000
C364  C     C_3   0.591420 0.529407 0.081741 0.000000
C365  C     C_3   0.624628 0.460966 0.100371 0.000000
C366  C     C_3   0.597430 0.435438 0.044359 0.000000
C367  C     C_R   0.696858 0.429162 0.124492 0.000000
N67   N     N_R   0.722728 0.398276 0.079735 0.000000
C368  C     C_R   0.745478 0.340157 0.106802 0.000000
C369  C     C_R   0.737621 0.298922 0.072048 0.000000
C370  C     C_R   0.748077 0.245372 0.103707 0.000000
C371  C     C_R   0.768550 0.233330 0.170033 0.000000
C372  C     C_R   0.765401 0.280356 0.204032 0.000000
C373  C     C_R   0.747807 0.335626 0.169094 0.000000
N68   N     N_R   0.724433 0.391826 0.185681 0.000000
C374  C     C_2   0.786210 0.172744 0.200984 0.000000
O67   O     O_2   0.755928 0.147792 0.175189 0.000000
O68   O     O_2   0.841263 0.140517 0.251607 0.000000
H364  H     H_    0.605587 0.540346 0.043740 0.000000
H365  H     H_    0.538913 0.548639 0.063242 0.000000
H366  H     H_    0.604414 0.548886 0.124552 0.000000
H367  H     H_    0.611232 0.450774 0.139554 0.000000
H368  H     H_    0.613518 0.386573 0.060481 0.000000
H369  H     H_    0.544509 0.461075 0.026983 0.000000
H370  H     H_    0.612241 0.439283 0.003820 0.000000
H371  H     H_    0.713389 0.314474 0.020951 0.000000
H372  H     H_    0.739981 0.212532 0.076911 0.000000
H373  H     H_    0.771192 0.275321 0.254249 0.000000
H374  H     H_    0.871077 0.155593 0.264254 0.000000
C375  C     C_3   0.808589 0.526470 0.998028 0.000000
C376  C     C_3   0.761593 0.541439 0.031047 0.000000
C377  C     C_3   0.763977 0.584667 0.076522 0.000000
C378  C     C_R   0.696773 0.563262 0.983798 0.000000
N69   N     N_R   0.648465 0.624831 0.962946 0.000000
C379  C     C_R   0.597822 0.619085 0.928309 0.000000
C380  C     C_R   0.536089 0.665656 0.897342 0.000000
C381  C     C_R   0.489118 0.649948 0.871907 0.000000
C382  C     C_R   0.504365 0.588482 0.877494 0.000000
C383  C     C_R   0.567337 0.542088 0.907829 0.000000
C384  C     C_R   0.613921 0.558297 0.932016 0.000000
N70   N     N_R   0.677692 0.520711 0.964518 0.000000
C385  C     C_2   0.453871 0.572607 0.850423 0.000000
O69   O     O_2   0.398548 0.613060 0.823462 0.000000
O70   O     O_2   0.468301 0.513318 0.855270 0.000000
H375  H     H_    0.832577 0.553472 0.006837 0.000000
H376  H     H_    0.847695 0.480738 0.021157 0.000000
H377  H     H_    0.785735 0.529216 0.945967 0.000000
H378  H     H_    0.775555 0.497780 0.060561 0.000000
H379  H     H_    0.791109 0.554781 0.123877 0.000000
H380  H     H_    0.789407 0.608116 0.069753 0.000000
H381  H     H_    0.716093 0.618054 0.074949 0.000000
H382  H     H_    0.523945 0.713318 0.894536 0.000000
H383  H     H_    0.440278 0.686310 0.848144 0.000000
H384  H     H_    0.579975 0.494441 0.910224 0.000000
H385  H     H_    0.434937 0.503073 0.837446 0.000000
C386  C     C_3   0.913814 0.256303 0.051980 0.000000
C387  C     C_3   0.909687 0.304816 0.090453 0.000000
C388  C     C_3   0.974401 0.274401 0.142381 0.000000
C389  C     C_R   0.894795 0.359371 0.046346 0.000000
N71   N     N_R   0.942282 0.358114 0.026363 0.000000
C390  C     C_R   0.909332 0.383068 0.963519 0.000000
C391  C     C_R   0.934522 0.380316 0.917419 0.000000
C392  C     C_R   0.894482 0.407840 0.854978 0.000000
C393  C     C_R   0.829204 0.434407 0.838191 0.000000
C394  C     C_R   0.804021 0.433039 0.885249 0.000000
C395  C     C_R   0.845607 0.404598 0.947812 0.000000
N72   N     N_R   0.832865 0.393354 0.000090 0.000000
C396  C     C_2   0.789073 0.460221 0.769807 0.000000
O71   O     O_2   0.813358 0.460180 0.730500 0.000000
O72   O     O_2   0.725666 0.483994 0.749608 0.000000
H386  H     H_    0.962523 0.223802 0.055931 0.000000
H387  H     H_    0.894269 0.230120 0.068552 0.000000
H388  H     H_    0.889846 0.280712 0.002168 0.000000
H389  H     H_    0.869646 0.316726 0.106478 0.000000
H390  H     H_    0.979277 0.290864 0.187598 0.000000
H391  H     H_    0.990842 0.225454 0.155448 0.000000
H392  H     H_    0.005098 0.279754 0.121842 0.000000
H393  H     H_    0.984383 0.352175 0.928245 0.000000
H394  H     H_    0.915357 0.405791 0.819074 0.000000
H395  H     H_    0.753786 0.455415 0.874139 0.000000
H396  H     H_    0.700143 0.501790 0.704541 0.000000
C397  C     C_3   0.713051 0.101241 0.666830 0.000000
C398  C     C_3   0.675262 0.155044 0.692328 0.000000
C399  C     C_3   0.603283 0.185352 0.661444 0.000000
C400  C     C_R   0.694726 0.141865 0.762799 0.000000
N73   N     N_R   0.671666 0.112818 0.792439 0.000000
C401  C     C_R   0.659747 0.147009 0.838405 0.000000
C402  C     C_R   0.628960 0.145322 0.878744 0.000000
C403  C     C_R   0.604774 0.195346 0.907769 0.000000
C404  C     C_R   0.609080 0.247013 0.893768 0.000000
C405  C     C_R   0.644430 0.245585 0.856743 0.000000
C406  C     C_R   0.675190 0.192207 0.835441 0.000000
N74   N     N_R   0.706612 0.184302 0.794603 0.000000
C407  C     C_2   0.576495 0.302968 0.918199 0.000000
O73   O     O_2   0.545809 0.304264 0.951178 0.000000
O74   O     O_2   0.580092 0.353276 0.904085 0.000000
H397  H     H_    0.727850 0.059806 0.700255 0.000000
H398  H     H_    0.685858 0.103846 0.616235 0.000000
H399  H     H_    0.755851 0.102594 0.666811 0.000000
H400  H     H_    0.687092 0.189124 0.681650 0.000000
H401  H     H_    0.587460 0.182417 0.610319 0.000000
H402  H     H_    0.585161 0.164364 0.686713 0.000000
H403  H     H_    0.581786 0.234359 0.665928 0.000000
H404  H     H_    0.619646 0.108349 0.884783 0.000000
H405  H     H_    0.578346 0.195342 0.937450 0.000000
H406  H     H_    0.646256 0.285818 0.843449 0.000000
H407  H     H_    0.558296 0.390085 0.919931 0.000000
C408  C     C_3   0.086674 0.692980 0.537964 0.000000
C409  C     C_3   0.036702 0.706113 0.471692 0.000000
C410  C     C_3   0.067227 0.660967 0.433539 0.000000
C411  C     C_R   0.982703 0.700128 0.478066 0.000000
N75   N     N_R   0.970302 0.654500 0.452772 0.000000
C412  C     C_R   0.955461 0.636019 0.499168 0.000000
C413  C     C_R   0.941926 0.589286 0.502332 0.000000
C414  C     C_R   0.950870 0.563459 0.562229 0.000000
C415  C     C_R   0.973796 0.584459 0.616633 0.000000
C416  C     C_R   0.974866 0.639052 0.609720 0.000000
C417  C     C_R   0.960308 0.666730 0.548735 0.000000
N76   N     N_R   0.968596 0.713509 0.533441 0.000000
C418  C     C_2   0.002299 0.545680 0.680448 0.000000
O75   O     O_2   0.004269 0.496202 0.685339 0.000000
O76   O     O_2   0.032236 0.561276 0.732821 0.000000
H408  H     H_    0.099999 0.648695 0.565763 0.000000
H409  H     H_    0.130013 0.689811 0.532956 0.000000
H410  H     H_    0.067996 0.730648 0.564286 0.000000
H411  H     H_    0.021936 0.750815 0.446123 0.000000
H412  H     H_    0.030156 0.671464 0.385427 0.000000
H413  H     H_    0.106106 0.666557 0.427355 0.000000
H414  H     H_    0.087329 0.613494 0.458917 0.000000
H415  H     H_    0.933140 0.567377 0.462040 0.000000
H416  H     H_    0.947356 0.522317 0.566588 0.000000
H417  H     H_    0.992738 0.656094 0.650950 0.000000
H418  H     H_    0.053327 0.534241 0.774302 0.000000
C419  C     C_3   0.806883 0.740425 0.427419 0.000000
C420  C     C_3   0.797478 0.745027 0.358126 0.000000
C421  C     C_3   0.842808 0.761812 0.343323 0.000000
C422  C     C_R   0.802764 0.686351 0.340094 0.000000
N77   N     N_R   0.861856 0.633471 0.352036 0.000000
C423  C     C_R   0.842364 0.592715 0.336136 0.000000
C424  C     C_R   0.876112 0.530376 0.345993 0.000000
C425  C     C_R   0.846079 0.503344 0.306714 0.000000
C426  C     C_R   0.788167 0.539126 0.257265 0.000000
C427  C     C_R   0.754372 0.599084 0.256816 0.000000
C428  C     C_R   0.779114 0.621180 0.305282 0.000000
N78   N     N_R   0.749339 0.678357 0.313478 0.000000
C429  C     C_2   0.755920 0.515203 0.210622 0.000000
O77   O     O_2   0.763632 0.465334 0.225898 0.000000
O78   O     O_2   0.711394 0.550722 0.154203 0.000000
H419  H     H_    0.846210 0.748298 0.454849 0.000000
H420  H     H_    0.761688 0.777120 0.428811 0.000000
H421  H     H_    0.814979 0.695221 0.446892 0.000000
H422  H     H_    0.749018 0.783120 0.333888 0.000000
H423  H     H_    0.816456 0.792579 0.295938 0.000000
H424  H     H_    0.857429 0.788122 0.377717 0.000000
H425  H     H_    0.886640 0.721026 0.343744 0.000000
H426  H     H_    0.924268 0.503432 0.379173 0.000000
H427  H     H_    0.872243 0.455976 0.308901 0.000000
H428  H     H_    0.707894 0.625016 0.222338 0.000000
H429  H     H_    0.698226 0.532346 0.119033 0.000000
C430  C     C_3   0.146948 0.465706 0.410861 0.000000
C431  C     C_3   0.102216 0.451805 0.357457 0.000000
C432  C     C_3   0.145821 0.387324 0.351851 0.000000
C433  C     C_R   0.047819 0.456680 0.375759 0.000000
N79   N     N_R   0.059156 0.401470 0.406477 0.000000
C434  C     C_R   0.066003 0.413411 0.467291 0.000000
C435  C     C_R   0.101592 0.371513 0.524432 0.000000
C436  C     C_R   0.120778 0.390959 0.581149 0.000000
C437  C     C_R   0.108476 0.451060 0.580261 0.000000
C438  C     C_R   0.072612 0.492873 0.522666 0.000000
C439  C     C_R   0.047411 0.474606 0.467690 0.000000
N80   N     N_R   0.024477 0.505769 0.407210 0.000000
C440  C     C_2   0.136645 0.469238 0.639258 0.000000
O79   O     O_2   0.167966 0.432452 0.690105 0.000000
O80   O     O_2   0.128269 0.526548 0.637537 0.000000
H430  H     H_    0.173000 0.428667 0.454069 0.000000
H431  H     H_    0.182788 0.467310 0.393814 0.000000
H432  H     H_    0.122168 0.509202 0.426688 0.000000
H433  H     H_    0.082995 0.483245 0.311249 0.000000
H434  H     H_    0.118885 0.372252 0.315346 0.000000
H435  H     H_    0.183793 0.387108 0.337339 0.000000
H436  H     H_    0.169138 0.355017 0.398194 0.000000
H437  H     H_    0.117473 0.323715 0.526125 0.000000
H438  H     H_    0.150040 0.357326 0.625344 0.000000
H439  H     H_    0.068854 0.537557 0.519576 0.000000
H440  H     H_    0.146704 0.538400 0.676458 0.000000

loop_
_geom_bond_atom_site_label_1
_geom_bond_atom_site_label_2
_geom_bond_distance
_geom_bond_site_symmetry_2
_ccdc_geom_bond_type
Zn1   N2    2.122 .      S
Zn1   N41   2.253 .      S
Zn1   N47   2.320 .      S
Zn1   N76   2.131 .      S
Zn2   N3    2.190 .      S
Zn2   N6    2.240 .      S
Zn2   N62   2.166 .      S
Zn2   N68   2.284 .      S
Zn3   N1    2.219 1_545  S
Zn3   N7    2.101 .      S
Zn3   N9    2.096 .      S
Zn3   N64   2.185 .      S
Zn4   N12   2.144 .      S
Zn4   N13   2.094 1_556  S
Zn4   N54   2.105 .      S
Zn4   N69   2.157 .      S
Zn5   N18   2.220 .      S
Zn5   N22   2.300 1_554  S
Zn5   N24   2.255 .      S
Zn5   N38   2.121 1_554  S
Zn6   N5    2.156 1_455  S
Zn6   N16   2.017 .      S
Zn6   N34   2.132 .      S
Zn6   N79   2.239 .      S
Zn7   N15   2.017 .      S
Zn7   N17   2.238 .      S
Zn7   N57   2.150 .      S
Zn7   N71   2.225 1_455  S
Zn8   N10   2.138 .      S
Zn8   N20   2.228 .      S
Zn8   N50   2.144 1_545  S
Zn8   N73   2.163 .      S
Zn9   N11   2.195 .      S
Zn9   N19   2.200 1_565  S
Zn9   N21   2.265 1_565  S
Zn9   N27   2.196 1_565  S
Zn10  N8    2.033 .      S
Zn10  N23   2.160 .      S
Zn10  N25   2.278 .      S
Zn10  N29   2.297 .      S
Zn11  N4    2.224 .      S
Zn11  N14   2.137 .      S
Zn11  N26   2.212 .      S
Zn11  N78   2.182 .      S
Zn12  N28   2.185 .      S
Zn12  N30   2.292 1_545  S
Zn12  N31   2.259 .      S
Zn12  N33   2.134 .      S
Zn13  N36   2.190 1_465  S
Zn13  N37   2.065 .      S
Zn13  N40   2.126 .      S
Zn13  N43   2.159 .      S
Zn14  N32   2.179 .      S
Zn14  N42   2.121 .      S
Zn14  N44   2.069 .      S
Zn14  N46   2.083 1_465  S
Zn15  N39   2.057 1_655  S
Zn15  N48   2.234 .      S
Zn15  N49   2.224 .      S
Zn15  N55   2.135 .      S
Zn16  N51   2.267 .      S
Zn16  N53   2.152 .      S
Zn16  N56   2.110 .      S
Zn16  N58   2.292 .      S
Zn17  N45   2.158 .      S
Zn17  N60   2.183 .      S
Zn17  N61   2.174 .      S
Zn17  N63   2.195 .      S
Zn18  N66   2.216 .      S
Zn18  N67   2.246 1_556  S
Zn18  N70   2.176 .      S
Zn18  N72   2.172 1_556  S
Zn19  N35   2.220 .      S
Zn19  N59   2.158 .      S
Zn19  N65   2.196 .      S
Zn19  N74   2.165 .      S
Zn20  N52   2.290 .      S
Zn20  N75   2.133 .      S
Zn20  N77   2.188 .      S
Zn20  N80   2.231 1_655  S
C1    C2    1.510 .      S
C1    H1    1.097 .      S
C1    H2    1.108 .      S
C1    H3    1.100 .      S
C2    C3    1.488 .      S
C2    C4    1.460 .      S
C2    H4    1.081 .      S
C3    H5    1.097 .      S
C3    H6    1.103 .      S
C3    H7    1.087 1_565  S
N1    Zn3   2.219 1_565  S
C6    H8    1.059 .      S
C7    H9    1.077 .      S
C8    C11   1.469 .      S
C9    H10   1.057 .      S
C11   O2    1.343 .      S
O2    H11   0.966 .      S
H7    C3    1.087 1_545  S
C12   C13   1.526 .      S
C12   H12   1.108 .      S
C12   H13   1.106 .      S
C12   H14   1.099 .      S
C13   C14   1.518 .      S
C13   C15   1.510 .      S
C13   H15   1.096 .      S
C14   H16   1.098 .      S
C14   H17   1.103 .      S
C14   H18   1.104 .      S
C17   H19   1.064 .      S
C18   H20   1.081 .      S
C19   C22   1.465 .      S
C20   H21   1.074 .      S
C22   O4    1.341 .      S
O4    H22   0.965 .      S
C23   C24   1.513 .      S
C23   H23   1.081 .      S
C23   H24   1.064 .      S
C23   H25   1.098 .      S
C24   C25   1.502 .      S
C24   C26   1.455 .      S
C24   H26   1.061 .      S
C25   H27   1.088 .      S
C25   H28   1.098 .      S
C25   H29   1.075 .      S
N5    Zn6   2.156 1_655  S
C28   H30   1.071 1_655  S
C29   H31   1.076 1_655  S
C30   C33   1.471 .      S
C31   H32   1.056 .      S
C33   O6    1.343 .      S
O6    H33   0.966 .      S
H30   C28   1.071 1_455  S
H31   C29   1.076 1_455  S
C34   C35   1.498 .      S
C34   H34   1.094 .      S
C34   H35   1.106 .      S
C34   H36   1.105 .      S
C35   C36   1.497 .      S
C35   C37   1.523 .      S
C35   H37   1.079 .      S
C36   H38   1.089 1_565  S
C36   H39   1.105 .      S
C36   H40   1.086 .      S
C39   H41   1.056 .      S
C40   H42   1.080 .      S
C41   C44   1.460 .      S
C42   H43   1.058 1_545  S
C44   O8    1.344 .      S
O8    H44   0.965 1_545  S
H38   C36   1.089 1_545  S
H43   C42   1.058 1_565  S
H44   O8    0.965 1_565  S
C45   C46   1.505 .      S
C45   H45   1.096 .      S
C45   H46   1.074 .      S
C45   H47   1.093 .      S
C46   C47   1.513 .      S
C46   C48   1.442 1_565  S
C46   H48   1.085 .      S
C47   H49   1.101 .      S
C47   H50   1.091 .      S
C47   H51   1.092 .      S
C48   C46   1.442 1_545  S
C50   H52   1.073 .      S
C51   H53   1.081 .      S
C52   C55   1.463 .      S
C53   H54   1.054 .      S
C55   O10   1.345 .      S
O10   H55   0.966 .      S
C56   C57   1.517 1_554  S
C56   H56   1.098 1_554  S
C56   H57   1.107 .      S
C56   H58   1.106 .      S
C57   C56   1.517 1_556  S
C57   C58   1.511 .      S
C57   C59   1.475 .      S
C57   H59   1.099 .      S
C58   H60   1.105 .      S
C58   H61   1.099 .      S
C58   H62   1.107 .      S
C61   H63   1.074 .      S
C62   H64   1.071 .      S
C63   C66   1.468 .      S
C64   H65   1.072 .      S
C66   O12   1.343 .      S
O12   H66   0.966 .      S
H56   C56   1.098 1_556  S
C67   C68   1.489 .      S
C67   H67   1.103 .      S
C67   H68   1.097 .      S
C67   H69   1.107 .      S
C68   C69   1.485 .      S
C68   C70   1.457 .      S
C68   H70   1.091 .      S
C69   H71   1.091 .      S
C69   H72   1.108 .      S
C69   H73   1.102 .      S
N13   Zn4   2.094 1_554  S
C72   H74   1.071 .      S
C73   H75   1.079 .      S
C74   C77   1.458 .      S
C75   H76   1.050 .      S
C77   O14   1.341 .      S
O14   H77   0.962 .      S
C78   C79   1.487 .      S
C78   H78   1.100 .      S
C78   H79   1.088 .      S
C78   H80   1.093 .      S
C79   C80   1.518 .      S
C79   C81   1.474 .      S
C79   H81   1.100 .      S
C80   H82   1.100 .      S
C80   H83   1.103 .      S
C80   H84   1.107 .      S
C83   H85   1.055 .      S
C84   H86   1.072 .      S
C85   C88   1.381 .      S
C86   H87   1.068 .      S
C88   O16   1.305 .      S
O16   H88   0.936 .      S
C89   C90   1.495 .      S
C89   H89   1.059 .      S
C89   H90   1.100 .      S
C89   H91   1.109 .      S
C90   C91   1.487 1_554  S
C90   C92   1.447 .      S
C90   H92   1.091 .      S
C91   C90   1.487 1_556  S
C91   H93   1.097 .      S
C91   H94   1.101 1_455  S
C91   H95   1.076 1_556  S
C94   H96   1.071 .      S
C95   H97   1.081 .      S
C96   C99   1.468 .      S
C97   H98   1.077 .      S
C99   O18   1.346 .      S
O18   H99   0.966 .      S
H94   C91   1.101 1_655  S
H95   C91   1.076 1_554  S
C100  C101  1.487 .      S
C100  H100  1.106 1_565  S
C100  H101  1.109 .      S
C100  H102  1.083 .      S
C101  C102  1.517 .      S
C101  C103  1.491 1_565  S
C101  H103  1.098 .      S
C102  H104  1.089 .      S
C102  H105  1.095 .      S
C102  H106  1.109 .      S
C103  C101  1.491 1_545  S
N19   Zn9   2.200 1_545  S
C105  H107  1.066 .      S
C106  H108  1.080 .      S
C107  C110  1.469 .      S
C108  H109  1.067 .      S
C110  O20   1.346 .      S
O20   H110  0.966 .      S
H100  C100  1.106 1_545  S
C111  C112  1.507 .      S
C111  H111  1.106 .      S
C111  H112  1.103 .      S
C111  H113  1.103 .      S
C112  C113  1.517 1_545  S
C112  C114  1.504 .      S
C112  H114  1.071 .      S
C113  C112  1.517 1_565  S
C113  H115  1.100 .      S
C113  H116  1.109 .      S
C113  H117  1.100 1_565  S
N21   Zn9   2.265 1_545  S
C116  H118  1.070 .      S
C117  H119  1.081 .      S
C118  C121  1.471 .      S
C119  H120  1.071 .      S
N22   Zn5   2.300 1_556  S
C121  O22   1.345 .      S
O22   H121  0.966 .      S
H117  C113  1.100 1_545  S
C122  C123  1.488 .      S
C122  H122  1.089 .      S
C122  H123  1.107 .      S
C122  H124  1.084 .      S
C123  C124  1.524 .      S
C123  C125  1.515 .      S
C123  H125  1.097 .      S
C124  H126  1.103 .      S
C124  H127  1.103 .      S
C124  H128  1.095 .      S
C127  H129  1.067 .      S
C128  H130  1.080 .      S
C129  C132  1.465 .      S
C130  H131  1.039 .      S
C132  O24   1.343 .      S
O24   H132  0.957 .      S
C133  C134  1.507 .      S
C133  H133  1.106 .      S
C133  H134  1.103 .      S
C133  H135  1.102 .      S
C134  C135  1.498 .      S
C134  C136  1.439 .      S
C134  H136  1.091 .      S
C135  H137  1.100 .      S
C135  H138  1.102 .      S
C135  H139  1.094 .      S
C138  H140  1.061 .      S
C139  H141  1.081 .      S
C140  C143  1.470 .      S
C141  H142  1.062 .      S
C143  O26   1.345 .      S
O26   H143  0.966 .      S
C144  C145  1.510 .      S
C144  H144  1.098 .      S
C144  H145  1.106 .      S
C144  H146  1.101 .      S
C145  C146  1.514 .      S
C145  C147  1.445 1_565  S
C145  H147  1.091 .      S
C146  H148  1.109 .      S
C146  H149  1.106 .      S
C146  H150  1.099 .      S
C147  C145  1.445 1_545  S
N27   Zn9   2.196 1_545  S
C149  H151  1.057 .      S
C150  H152  1.081 .      S
C151  C154  1.467 .      S
C152  H153  1.071 .      S
C154  O28   1.341 .      S
O28   H154  0.965 .      S
C155  C156  1.505 .      S
C155  H155  1.095 .      S
C155  H156  1.108 .      S
C155  H157  1.102 .      S
C156  C157  1.486 .      S
C156  C158  1.472 .      S
C156  H158  1.092 .      S
C157  H159  1.102 .      S
C157  H160  1.098 .      S
C157  H161  1.090 .      S
C160  H162  1.073 .      S
C161  H163  1.081 .      S
C162  C165  1.469 .      S
C163  H164  1.072 .      S
N30   Zn12  2.292 1_565  S
C165  O30   1.346 .      S
O30   H165  0.966 .      S
C166  C167  1.502 .      S
C166  H166  1.106 .      S
C166  H167  1.106 .      S
C166  H168  1.094 .      S
C167  C168  1.501 .      S
C167  C169  1.462 .      S
C167  H169  1.098 .      S
C168  H170  1.099 .      S
C168  H171  1.095 .      S
C168  H172  1.094 .      S
C171  H173  1.066 .      S
C172  H174  1.081 .      S
C173  C176  1.467 .      S
C174  H175  1.072 .      S
C176  O32   1.345 .      S
O32   H176  0.965 .      S
C177  C178  1.500 .      S
C177  H177  1.106 .      S
C177  H178  1.103 .      S
C177  H179  1.097 .      S
C178  C179  1.505 .      S
C178  C180  1.506 .      S
C178  H180  1.100 .      S
C179  H181  1.103 .      S
C179  H182  1.107 .      S
C179  H183  1.103 .      S
C182  H184  1.050 .      S
C183  H185  1.081 .      S
C184  C187  1.461 .      S
C185  H186  1.064 .      S
C187  O34   1.345 1_455  S
O34   C187  1.345 1_655  S
O34   H187  0.966 .      S
C188  C189  1.501 .      S
C188  H188  1.099 .      S
C188  H189  1.096 .      S
C188  H190  1.099 .      S
C189  C190  1.489 .      S
C189  C191  1.432 .      S
C189  H191  1.076 .      S
C190  H192  1.077 .      S
C190  H193  1.088 .      S
C190  H194  1.093 .      S
C193  H195  1.075 .      S
C194  H196  1.074 .      S
C195  C198  1.468 1_655  S
C196  H197  1.069 .      S
N36   Zn13  2.190 1_645  S
C198  C195  1.468 1_455  S
C198  O36   1.342 .      S
O36   H198  0.966 .      S
C199  C200  1.514 .      S
C199  H199  1.107 1_554  S
C199  H200  1.109 .      S
C199  H201  1.092 1_554  S
C200  C201  1.499 1_545  S
C200  C202  1.505 1_554  S
C200  H202  1.073 .      S
C201  C200  1.499 1_565  S
C201  H203  1.089 .      S
C201  H204  1.109 .      S
C201  H205  1.106 .      S
C202  C200  1.505 1_556  S
C204  H206  1.052 .      S
C205  H207  1.081 .      S
C206  C209  1.447 1_556  S
C207  H208  1.077 1_556  S
N38   Zn5   2.121 1_556  S
C209  C206  1.447 1_554  S
C209  O38   1.348 .      S
O38   H209  0.964 .      S
H199  C199  1.107 1_556  S
H201  C199  1.092 1_556  S
H208  C207  1.077 1_554  S
C210  C211  1.456 1_455  S
C210  H210  1.100 .      S
C210  H211  1.078 1_455  S
C210  H212  1.077 .      S
C211  C210  1.456 1_655  S
C211  C212  1.493 .      S
C211  C213  1.435 .      S
C211  H213  1.104 .      S
C212  H214  1.085 .      S
C212  H215  1.093 .      S
C212  H216  1.099 .      S
N39   Zn15  2.057 1_455  S
C215  H217  1.066 .      S
C216  H218  1.081 .      S
C217  C220  1.463 .      S
C218  H219  1.059 .      S
C220  O40   1.344 .      S
O40   H220  0.966 .      S
H211  C210  1.078 1_655  S
C221  C222  1.525 .      S
C221  H221  1.080 .      S
C221  H222  1.095 .      S
C221  H223  1.093 .      S
C222  C223  1.505 1_655  S
C222  C224  1.387 .      S
C222  H224  1.089 1_655  S
C223  C222  1.505 1_455  S
C223  H225  1.101 .      S
C223  H226  1.097 .      S
C223  H227  1.089 .      S
C226  H228  1.077 .      S
C227  H229  1.081 .      S
C228  C231  1.469 .      S
C229  H230  1.076 1_655  S
C231  O42   1.346 1_565  S
O42   C231  1.346 1_545  S
O42   H231  0.966 .      S
H224  C222  1.089 1_455  S
H230  C229  1.076 1_455  S
C232  C233  1.479 1_655  S
C232  H232  1.096 .      S
C232  H233  1.106 .      S
C232  H234  1.096 .      S
C233  C232  1.479 1_455  S
C233  C234  1.501 .      S
C233  C235  1.470 .      S
C233  H235  1.079 .      S
C234  H236  1.106 .      S
C234  H237  1.107 .      S
C234  H238  1.090 .      S
C237  H239  1.074 .      S
C238  H240  1.081 .      S
C239  C242  1.474 .      S
C240  H241  1.077 .      S
C242  O44   1.350 .      S
O44   H242  0.965 .      S
C243  C244  1.482 .      S
C243  H243  1.092 .      S
C243  H244  1.103 .      S
C243  H245  1.096 .      S
C244  C245  1.477 .      S
C244  C246  1.469 .      S
C244  H246  1.092 .      S
C245  H247  1.090 .      S
C245  H248  1.103 .      S
C245  H249  1.108 .      S
C248  H250  1.042 .      S
C249  H251  1.067 .      S
C250  C253  1.425 .      S
C251  H252  1.059 1_655  S
N46   Zn14  2.083 1_645  S
C253  O46   1.340 .      S
O46   H253  0.958 1_655  S
H252  C251  1.059 1_455  S
H253  O46   0.958 1_455  S
C254  C255  1.439 .      S
C254  H254  1.108 .      S
C254  H255  1.096 .      S
C254  H256  1.079 .      S
C255  C256  1.491 .      S
C255  C257  1.441 .      S
C255  H257  1.082 .      S
C256  H258  1.104 .      S
C256  H259  1.100 .      S
C256  H260  1.084 .      S
C259  H261  1.079 .      S
C260  H262  1.081 .      S
C261  C264  1.469 .      S
C262  H263  1.069 .      S
C264  O48   1.346 .      S
O48   H264  0.966 .      S
C265  C266  1.500 1_545  S
C265  H265  1.107 1_545  S
C265  H266  1.109 .      S
C265  H267  1.093 .      S
C266  C265  1.500 1_565  S
C266  C267  1.483 .      S
C266  C268  1.501 .      S
C266  H268  1.076 1_565  S
C267  H269  1.097 .      S
C267  H270  1.109 .      S
C267  H271  1.105 .      S
C270  H272  1.068 .      S
C271  H273  1.073 .      S
C272  C275  1.464 .      S
C273  H274  1.080 .      S
N50   Zn8   2.144 1_565  S
C275  O50   1.345 .      S
O50   H275  0.965 .      S
H265  C265  1.107 1_565  S
H268  C266  1.076 1_545  S
C276  C277  1.518 .      S
C276  H276  1.097 .      S
C276  H277  1.103 .      S
C276  H278  1.106 .      S
C277  C278  1.476 .      S
C277  C279  1.490 .      S
C277  H279  1.093 .      S
C278  H280  1.100 .      S
C278  H281  1.106 .      S
C278  H282  1.093 .      S
C281  H283  1.075 .      S
C282  H284  1.081 .      S
C283  C286  1.470 .      S
C284  H285  1.055 .      S
C286  O52   1.346 .      S
O52   H286  0.966 .      S
C287  C288  1.498 1_554  S
C287  H287  1.109 .      S
C287  H288  1.100 .      S
C287  H289  1.106 1_554  S
C288  C287  1.498 1_556  S
C288  C289  1.509 .      S
C288  C290  1.502 1_556  S
C288  H290  1.084 1_556  S
C289  H291  1.101 .      S
C289  H292  1.100 .      S
C289  H293  1.101 .      S
C290  C288  1.502 1_554  S
C292  H294  1.073 .      S
C293  H295  1.069 .      S
C294  C297  1.470 .      S
C295  H296  1.060 .      S
C297  O54   1.351 .      S
O54   H297  0.963 .      S
H289  C287  1.106 1_556  S
H290  C288  1.084 1_554  S
C298  C299  1.498 .      S
C298  H298  1.090 .      S
C298  H299  1.109 .      S
C298  H300  1.103 1_455  S
C299  C300  1.518 .      S
C299  C301  1.486 1_455  S
C299  H301  1.091 .      S
C300  H302  1.109 .      S
C300  H303  1.103 .      S
C300  H304  1.109 1_556  S
C301  C299  1.486 1_655  S
C303  H305  1.053 .      S
C304  H306  1.081 .      S
C305  C308  1.468 .      S
C306  H307  1.050 .      S
C308  O56   1.345 1_655  S
O56   C308  1.345 1_455  S
O56   H308  0.966 .      S
H300  C298  1.103 1_655  S
H304  C300  1.109 1_554  S
C309  C310  1.499 .      S
C309  H309  1.101 .      S
C309  H310  1.108 .      S
C309  H311  1.096 .      S
C310  C311  1.524 .      S
C310  C312  1.487 .      S
C310  H312  1.084 .      S
C311  H313  1.105 .      S
C311  H314  1.108 .      S
C311  H315  1.107 .      S
C314  H316  1.064 .      S
C315  H317  1.081 .      S
C316  C319  1.461 .      S
C317  H318  1.046 .      S
C319  O58   1.333 .      S
O58   H319  0.965 .      S
C320  C321  1.469 .      S
C320  H320  1.075 .      S
C320  H321  1.107 .      S
C320  H322  1.079 .      S
C321  C322  1.524 .      S
C321  C323  1.486 .      S
C321  H323  1.087 .      S
C322  H324  1.108 .      S
C322  H325  1.105 .      S
C322  H326  1.092 .      S
C325  H327  1.081 .      S
C326  H328  1.081 .      S
C327  C330  1.468 .      S
C328  H329  1.080 .      S
C330  O60   1.346 .      S
O60   H330  0.966 .      S
C331  C332  1.517 .      S
C331  H331  1.097 .      S
C331  H332  1.107 .      S
C331  H333  1.106 .      S
C332  C333  1.514 .      S
C332  C334  1.445 .      S
C332  H334  1.088 .      S
C333  H335  1.104 .      S
C333  H336  1.108 .      S
C333  H337  1.089 .      S
C336  H338  1.067 .      S
C337  H339  1.081 .      S
C338  C341  1.468 .      S
C339  H340  1.072 .      S
C341  O62   1.343 .      S
O62   H341  0.966 .      S
C342  C343  1.459 .      S
C342  H342  1.098 .      S
C342  H343  1.108 .      S
C342  H344  1.102 .      S
C343  C344  1.524 .      S
C343  C345  1.479 .      S
C343  H345  1.072 .      S
C344  H346  1.096 .      S
C344  H347  1.109 .      S
C344  H348  1.103 .      S
C347  H349  1.049 .      S
C348  H350  1.071 .      S
C349  C352  1.461 .      S
C350  H351  1.063 .      S
C352  O64   1.341 .      S
O64   H352  0.965 .      S
C353  C354  1.515 .      S
C353  H353  1.089 .      S
C353  H354  1.107 1_556  S
C353  H355  1.096 .      S
C354  C355  1.478 .      S
C354  C356  1.478 .      S
C354  H356  1.091 .      S
C355  H357  1.100 .      S
C355  H358  1.106 .      S
C355  H359  1.077 .      S
C358  H360  1.050 .      S
C359  H361  1.081 .      S
C360  C363  1.469 .      S
C361  H362  1.050 .      S
C363  O66   1.344 .      S
O66   H363  0.966 .      S
H354  C353  1.107 1_554  S
C364  C365  1.494 .      S
C364  H364  1.095 .      S
C364  H365  1.109 .      S
C364  H366  1.101 .      S
C365  C366  1.522 .      S
C365  C367  1.514 .      S
C365  H367  1.098 .      S
C366  H368  1.106 .      S
C366  H369  1.109 .      S
C366  H370  1.101 .      S
N67   Zn18  2.246 1_554  S
C369  H371  1.071 .      S
C370  H372  1.078 .      S
C371  C374  1.458 .      S
C372  H373  1.077 .      S
C374  O68   1.344 .      S
O68   H374  0.964 .      S
C375  C376  1.499 1_556  S
C375  H375  1.085 1_556  S
C375  H376  1.079 1_556  S
C375  H377  1.103 .      S
C376  C375  1.499 1_554  S
C376  C377  1.496 .      S
C376  C378  1.472 1_554  S
C376  H378  1.108 .      S
C377  H379  1.090 .      S
C377  H380  1.095 .      S
C377  H381  1.096 .      S
C378  C376  1.472 1_556  S
C380  H382  1.079 .      S
C381  H383  1.081 .      S
C382  C385  1.468 .      S
C383  H384  1.076 .      S
C385  O70   1.346 .      S
O70   H385  0.966 .      S
H375  C375  1.085 1_554  S
H376  C375  1.079 1_554  S
C386  C387  1.474 .      S
C386  H386  1.091 .      S
C386  H387  1.108 .      S
C386  H388  1.088 .      S
C387  C388  1.492 .      S
C387  C389  1.493 .      S
C387  H389  1.095 .      S
C388  H390  1.082 .      S
C388  H391  1.095 .      S
C388  H392  1.076 1_655  S
N71   Zn7   2.225 1_655  S
C391  H393  1.062 .      S
C392  H394  1.079 .      S
C393  C396  1.467 .      S
C394  H395  1.065 .      S
N72   Zn18  2.172 1_554  S
C396  O72   1.339 .      S
O72   H396  0.966 .      S
H392  C388  1.076 1_455  S
C397  C398  1.485 .      S
C397  H397  1.102 .      S
C397  H398  1.100 .      S
C397  H399  1.104 .      S
C398  C399  1.513 .      S
C398  C400  1.468 .      S
C398  H400  1.075 .      S
C399  H401  1.095 .      S
C399  H402  1.090 .      S
C399  H403  1.106 .      S
C402  H404  1.074 .      S
C403  H405  1.081 .      S
C404  C407  1.468 .      S
C405  H406  1.073 .      S
C407  O74   1.346 .      S
O74   H407  0.965 .      S
C408  C409  1.519 .      S
C408  H408  1.109 .      S
C408  H409  1.108 .      S
C408  H410  1.106 .      S
C409  C410  1.487 .      S
C409  C411  1.497 1_455  S
C409  H411  1.085 .      S
C410  H412  1.107 .      S
C410  H413  1.109 .      S
C410  H414  1.109 .      S
C411  C409  1.497 1_655  S
C413  H415  1.072 .      S
C414  H416  1.080 .      S
C415  C418  1.466 1_655  S
C416  H417  1.073 .      S
C418  C415  1.466 1_455  S
C418  O76   1.345 .      S
O76   H418  0.966 .      S
C419  C420  1.477 .      S
C419  H419  1.099 .      S
C419  H420  1.096 .      S
C419  H421  1.108 .      S
C420  C421  1.517 .      S
C420  C422  1.482 .      S
C420  H422  1.090 .      S
C421  H423  1.099 .      S
C421  H424  1.101 .      S
C421  H425  1.101 .      S
C424  H426  1.070 .      S
C425  H427  1.045 .      S
C426  C429  1.426 .      S
C427  H428  1.051 .      S
C429  O78   1.336 .      S
O78   H429  0.958 .      S
C430  C431  1.531 .      S
C430  H430  1.109 .      S
C430  H431  1.108 .      S
C430  H432  1.101 .      S
C431  C432  1.506 .      S
C431  C433  1.514 .      S
C431  H433  1.106 .      S
C432  H434  1.079 .      S
C432  H435  1.108 .      S
C432  H436  1.104 .      S
C435  H437  1.065 .      S
C436  H438  1.079 .      S
C437  C440  1.469 .      S
C438  H439  1.077 .      S
N80   Zn20  2.231 1_455  S
C440  O80   1.346 .      S
O80   H440  0.966 .      S
C4    N1    1.395 .      A
C4    N2    1.380 .      A
N1    C5    1.351 .      A
C5    C6    1.357 .      A
C5    C10   1.355 .      A
C6    C7    1.385 .      A
C7    C8    1.381 .      A
C8    C9    1.385 .      A
C9    C10   1.371 .      A
C10   N2    1.344 .      A
C15   N3    1.403 .      A
C15   N4    1.389 .      A
N3    C16   1.333 .      A
C16   C17   1.358 .      A
C16   C21   1.366 .      A
C17   C18   1.370 .      A
C18   C19   1.383 .      A
C19   C20   1.398 .      A
C20   C21   1.386 .      A
C21   N4    1.366 .      A
C26   N5    1.399 .      A
C26   N6    1.392 .      A
N5    C27   1.330 .      A
C27   C28   1.351 .      A
C27   C32   1.363 .      A
C28   C29   1.370 .      A
C29   C30   1.379 .      A
C30   C31   1.392 .      A
C31   C32   1.389 .      A
C32   N6    1.373 .      A
C37   N7    1.406 1_565  A
C37   N8    1.374 .      A
N7    C37   1.406 1_545  A
N7    C38   1.346 .      A
C38   C39   1.360 .      A
C38   C43   1.341 .      A
C39   C40   1.379 .      A
C40   C41   1.380 .      A
C41   C42   1.380 .      A
C42   C43   1.369 .      A
C43   N8    1.340 1_545  A
N8    C43   1.340 1_565  A
C48   N9    1.371 .      A
C48   N10   1.385 .      A
N9    C49   1.343 .      A
C49   C50   1.376 .      A
C49   C54   1.363 .      A
C50   C51   1.378 .      A
C51   C52   1.387 .      A
C52   C53   1.386 .      A
C53   C54   1.369 .      A
C54   N10   1.359 .      A
C59   N11   1.401 .      A
C59   N12   1.391 .      A
N11   C60   1.343 .      A
C60   C61   1.352 .      A
C60   C65   1.361 .      A
C61   C62   1.375 .      A
C62   C63   1.387 .      A
C63   C64   1.383 .      A
C64   C65   1.370 .      A
C65   N12   1.341 .      A
C70   N13   1.385 .      A
C70   N14   1.378 .      A
N13   C71   1.332 .      A
C71   C72   1.354 .      A
C71   C76   1.355 .      A
C72   C73   1.378 .      A
C73   C74   1.376 .      A
C74   C75   1.381 .      A
C75   C76   1.370 .      A
C76   N14   1.354 .      A
C81   N15   1.384 .      A
C81   N16   1.376 .      A
N15   C82   1.333 .      A
C82   C83   1.360 1_455  A
C82   C87   1.336 .      A
C83   C82   1.360 1_655  A
C83   C84   1.346 .      A
C84   C85   1.349 .      A
C85   C86   1.363 .      A
C86   C87   1.331 1_655  A
C87   C86   1.331 1_455  A
C87   N16   1.320 .      A
C92   N17   1.403 .      A
C92   N18   1.389 .      A
N17   C93   1.356 .      A
C93   C94   1.372 .      A
C93   C98   1.374 .      A
C94   C95   1.383 .      A
C95   C96   1.391 1_554  A
C96   C95   1.391 1_556  A
C96   C97   1.388 .      A
C97   C98   1.372 1_556  A
C98   C97   1.372 1_554  A
C98   N18   1.349 .      A
C103  N19   1.389 .      A
C103  N20   1.407 .      A
N19   C104  1.353 .      A
C104  C105  1.379 .      A
C104  C109  1.370 .      A
C105  C106  1.380 .      A
C106  C107  1.384 .      A
C107  C108  1.383 .      A
C108  C109  1.377 .      A
C109  N20   1.358 .      A
C114  N21   1.410 .      A
C114  N22   1.424 .      A
N21   C115  1.351 .      A
C115  C116  1.372 .      A
C115  C120  1.377 .      A
C116  C117  1.380 1_556  A
C117  C116  1.380 1_554  A
C117  C118  1.390 .      A
C118  C119  1.390 .      A
C119  C120  1.369 1_554  A
C120  C119  1.369 1_556  A
C120  N22   1.352 .      A
C125  N23   1.403 1_545  A
C125  N24   1.415 .      A
N23   C125  1.403 1_565  A
N23   C126  1.315 .      A
C126  C127  1.350 .      A
C126  C131  1.351 .      A
C127  C128  1.358 .      A
C128  C129  1.372 .      A
C129  C130  1.397 .      A
C130  C131  1.373 .      A
C131  N24   1.370 1_565  A
N24   C131  1.370 1_545  A
C136  N25   1.418 .      A
C136  N26   1.375 .      A
N25   C137  1.367 .      A
C137  C138  1.379 .      A
C137  C142  1.378 .      A
C138  C139  1.378 .      A
C139  C140  1.380 .      A
C140  C141  1.383 .      A
C141  C142  1.376 .      A
C142  N26   1.350 .      A
C147  N27   1.402 .      A
C147  N28   1.379 .      A
N27   C148  1.345 .      A
C148  C149  1.357 .      A
C148  C153  1.366 .      A
C149  C150  1.370 .      A
C150  C151  1.379 .      A
C151  C152  1.397 .      A
C152  C153  1.381 .      A
C153  N28   1.356 .      A
C158  N29   1.411 1_545  A
C158  N30   1.407 1_545  A
N29   C158  1.411 1_565  A
N29   C159  1.353 .      A
C159  C160  1.368 .      A
C159  C164  1.377 .      A
C160  C161  1.380 .      A
C161  C162  1.386 .      A
C162  C163  1.385 .      A
C163  C164  1.383 .      A
C164  N30   1.363 .      A
N30   C158  1.407 1_565  A
C169  N31   1.408 .      A
C169  N32   1.386 1_545  A
N31   C170  1.369 1_545  A
C170  N31   1.369 1_565  A
C170  C171  1.380 .      A
C170  C175  1.378 .      A
C171  C172  1.382 .      A
C172  C173  1.386 .      A
C173  C174  1.382 .      A
C174  C175  1.373 .      A
C175  N32   1.343 .      A
N32   C169  1.386 1_565  A
C180  N33   1.409 .      A
C180  N34   1.384 .      A
N33   C181  1.335 .      A
C181  C182  1.361 .      A
C181  C186  1.347 .      A
C182  C183  1.365 .      A
C183  C184  1.374 .      A
C184  C185  1.402 .      A
C185  C186  1.376 .      A
C186  N34   1.356 .      A
C191  N35   1.384 .      A
C191  N36   1.385 .      A
N35   C192  1.345 .      A
C192  C193  1.365 .      A
C192  C197  1.372 .      A
C193  C194  1.373 .      A
C194  C195  1.382 .      A
C195  C196  1.391 1_655  A
C196  C195  1.391 1_455  A
C196  C197  1.383 1_455  A
C197  C196  1.383 1_655  A
C197  N36   1.364 .      A
C202  N37   1.370 1_545  A
C202  N38   1.400 .      A
N37   C202  1.370 1_565  A
N37   C203  1.335 .      A
C203  C204  1.350 .      A
C203  C208  1.354 .      A
C204  C205  1.369 .      A
C205  C206  1.382 .      A
C206  C207  1.374 .      A
C207  C208  1.369 .      A
C208  N38   1.336 1_565  A
N38   C208  1.336 1_545  A
C213  N39   1.369 1_655  A
C213  N40   1.375 1_655  A
N39   C213  1.369 1_455  A
N39   C214  1.338 .      A
C214  C215  1.368 .      A
C214  C219  1.359 .      A
C215  C216  1.364 1_556  A
C216  C215  1.364 1_554  A
C216  C217  1.378 .      A
C217  C218  1.400 .      A
C218  C219  1.369 1_554  A
C219  C218  1.369 1_556  A
C219  N40   1.361 .      A
N40   C213  1.375 1_455  A
C224  N41   1.372 .      A
C224  N42   1.371 1_655  A
N41   C225  1.372 .      A
C225  C226  1.381 .      A
C225  C230  1.380 .      A
C226  C227  1.385 .      A
C227  C228  1.390 .      A
C228  C229  1.383 .      A
C229  C230  1.372 .      A
C230  N42   1.342 1_655  A
N42   C224  1.371 1_455  A
N42   C230  1.342 1_455  A
C235  N43   1.386 1_545  A
C235  N44   1.375 1_545  A
N43   C235  1.386 1_565  A
N43   C236  1.370 .      A
C236  C237  1.379 .      A
C236  C241  1.360 .      A
C237  C238  1.385 .      A
C238  C239  1.391 .      A
C239  C240  1.387 .      A
C240  C241  1.371 .      A
C241  N44   1.334 .      A
N44   C235  1.375 1_565  A
C246  N45   1.395 .      A
C246  N46   1.386 .      A
N45   C247  1.349 .      A
C247  C248  1.361 .      A
C247  C252  1.355 .      A
C248  C249  1.349 .      A
C249  C250  1.365 .      A
C250  C251  1.365 .      A
C251  C252  1.356 .      A
C252  N46   1.332 .      A
C257  N47   1.410 .      A
C257  N48   1.378 .      A
N47   C258  1.356 1_655  A
C258  N47   1.356 1_455  A
C258  C259  1.377 .      A
C258  C263  1.377 .      A
C259  C260  1.383 .      A
C260  C261  1.393 .      A
C261  C262  1.388 .      A
C262  C263  1.372 .      A
C263  N48   1.356 1_455  A
N48   C263  1.356 1_655  A
C268  N49   1.405 .      A
C268  N50   1.388 .      A
N49   C269  1.343 .      A
C269  C270  1.358 .      A
C269  C274  1.365 .      A
C270  C271  1.366 .      A
C271  C272  1.381 .      A
C272  C273  1.399 .      A
C273  C274  1.381 .      A
C274  N50   1.354 .      A
C279  N51   1.418 .      A
C279  N52   1.401 .      A
N51   C280  1.352 1_655  A
C280  N51   1.352 1_455  A
C280  C281  1.376 .      A
C280  C285  1.373 .      A
C281  C282  1.378 .      A
C282  C283  1.385 .      A
C283  C284  1.386 .      A
C284  C285  1.375 .      A
C285  N52   1.359 1_455  A
N52   C285  1.359 1_655  A
C290  N53   1.382 .      A
C290  N54   1.392 1_554  A
N53   C291  1.334 1_554  A
C291  N53   1.334 1_556  A
C291  C292  1.343 .      A
C291  C296  1.352 .      A
C292  C293  1.382 .      A
C293  C294  1.385 .      A
C294  C295  1.379 .      A
C295  C296  1.366 .      A
C296  N54   1.340 .      A
N54   C290  1.392 1_556  A
C301  N55   1.389 .      A
C301  N56   1.380 1_556  A
N55   C302  1.359 1_556  A
C302  N55   1.359 1_554  A
C302  C303  1.378 .      A
C302  C307  1.354 .      A
C303  C304  1.374 .      A
C304  C305  1.374 .      A
C305  C306  1.380 .      A
C306  C307  1.379 .      A
C307  N56   1.353 .      A
N56   C301  1.380 1_554  A
C312  N57   1.393 .      A
C312  N58   1.396 1_455  A
N57   C313  1.315 1_554  A
C313  N57   1.315 1_556  A
C313  C314  1.360 .      A
C313  C318  1.363 1_455  A
C314  C315  1.349 .      A
C315  C316  1.365 1_455  A
C316  C315  1.365 1_655  A
C316  C317  1.401 .      A
C317  C318  1.399 .      A
C318  C313  1.363 1_655  A
C318  N58   1.396 1_556  A
N58   C312  1.396 1_655  A
N58   C318  1.396 1_554  A
C323  N59   1.387 .      A
C323  N60   1.394 .      A
N59   C324  1.355 .      A
C324  C325  1.375 .      A
C324  C329  1.362 .      A
C325  C326  1.385 .      A
C326  C327  1.395 .      A
C327  C328  1.389 .      A
C328  C329  1.378 .      A
C329  N60   1.350 .      A
C334  N61   1.394 .      A
C334  N62   1.380 .      A
N61   C335  1.348 .      A
C335  C336  1.365 .      A
C335  C340  1.371 .      A
C336  C337  1.377 .      A
C337  C338  1.388 .      A
C338  C339  1.392 .      A
C339  C340  1.380 .      A
C340  N62   1.358 .      A
C345  N63   1.397 .      A
C345  N64   1.387 .      A
N63   C346  1.343 .      A
C346  C347  1.354 .      A
C346  C351  1.360 .      A
C347  C348  1.366 .      A
C348  C349  1.375 .      A
C349  C350  1.387 .      A
C350  C351  1.387 .      A
C351  N64   1.364 .      A
C356  N65   1.400 .      A
C356  N66   1.404 .      A
N65   C357  1.347 .      A
C357  C358  1.362 .      A
C357  C362  1.366 .      A
C358  C359  1.373 .      A
C359  C360  1.378 .      A
C360  C361  1.385 .      A
C361  C362  1.377 .      A
C362  N66   1.360 .      A
C367  N67   1.405 .      A
C367  N68   1.406 .      A
N67   C368  1.338 .      A
C368  C369  1.345 .      A
C368  C373  1.369 .      A
C369  C370  1.377 .      A
C370  C371  1.377 .      A
C371  C372  1.389 .      A
C372  C373  1.379 .      A
C373  N68   1.354 .      A
C378  N69   1.398 .      A
C378  N70   1.382 .      A
N69   C379  1.347 .      A
C379  C380  1.373 .      A
C379  C384  1.372 .      A
C380  C381  1.383 .      A
C381  C382  1.393 .      A
C382  C383  1.389 .      A
C383  C384  1.380 .      A
C384  N70   1.361 .      A
C389  N71   1.400 .      A
C389  N72   1.402 .      A
N71   C390  1.341 1_554  A
C390  N71   1.341 1_556  A
C390  C391  1.357 .      A
C390  C395  1.363 .      A
C391  C392  1.368 .      A
C392  C393  1.380 .      A
C393  C394  1.397 .      A
C394  C395  1.381 .      A
C395  N72   1.362 1_556  A
N72   C395  1.362 1_554  A
C400  N73   1.393 .      A
C400  N74   1.377 .      A
N73   C401  1.355 .      A
C401  C402  1.376 .      A
C401  C406  1.367 .      A
C402  C403  1.381 .      A
C403  C404  1.389 .      A
C404  C405  1.388 .      A
C405  C406  1.375 .      A
C406  N74   1.348 .      A
C411  N75   1.398 .      A
C411  N76   1.390 .      A
N75   C412  1.350 .      A
C412  C413  1.372 .      A
C412  C417  1.355 .      A
C413  C414  1.378 .      A
C414  C415  1.389 .      A
C415  C416  1.388 .      A
C416  C417  1.372 .      A
C417  N76   1.342 .      A
C422  N77   1.400 .      A
C422  N78   1.407 .      A
N77   C423  1.333 .      A
C423  C424  1.357 .      A
C423  C428  1.335 .      A
C424  C425  1.368 .      A
C425  C426  1.379 .      A
C426  C427  1.334 .      A
C427  C428  1.329 .      A
C428  N78   1.317 .      A
C433  N79   1.395 .      A
C433  N80   1.395 .      A
N79   C434  1.362 .      A
C434  C435  1.376 .      A
C434  C439  1.377 .      A
C435  C436  1.381 .      A
C436  C437  1.385 .      A
C437  C438  1.383 .      A
C438  C439  1.378 .      A
C439  N80   1.348 .      A
C11   O1    1.219 .      D
C22   O3    1.219 .      D
C33   O5    1.219 .      D
C44   O7    1.217 .      D
C55   O9    1.219 .      D
C66   O11   1.218 .      D
C77   O13   1.219 .      D
C88   O15   1.205 .      D
C99   O17   1.219 .      D
C110  O19   1.219 .      D
C121  O21   1.219 .      D
C132  O23   1.219 .      D
C143  O25   1.219 .      D
C154  O27   1.219 .      D
C165  O29   1.219 .      D
C176  O31   1.219 .      D
C187  O33   1.219 .      D
C198  O35   1.219 .      D
C209  O37   1.216 .      D
C220  O39   1.219 .      D
C231  O41   1.219 .      D
C242  O43   1.219 .      D
C253  O45   1.212 1_655  D
O45   C253  1.212 1_455  D
C264  O47   1.219 .      D
C275  O49   1.213 .      D
C286  O51   1.219 .      D
C297  O53   1.218 .      D
C308  O55   1.219 1_655  D
O55   C308  1.219 1_455  D
C319  O57   1.219 .      D
C330  O59   1.219 .      D
C341  O61   1.219 .      D
C352  O63   1.219 .      D
C363  O65   1.219 .      D
C374  O67   1.219 .      D
C385  O69   1.219 .      D
C396  O71   1.219 .      D
C407  O73   1.219 .      D
C418  O75   1.218 .      D
C429  O77   1.197 .      D
C440  O79   1.219 .      D
