data_str_m1_o12004_MTF
_audit_creation_date              2015-10-01T06:31:41-0700
_symmetry_space_group_name_H-M    P1
_symmetry_Int_Tables_number       1
_space_group_crystal_system       triclinic
loop_
_symmetry_equiv_pos_as_xyz
  x,y,z
_cell_length_a                    15.4450676
_cell_length_b                    19.5399351
_cell_length_c                    34.4371338
_cell_angle_alpha                 73.7129977
_cell_angle_beta                  81.5706695
_cell_angle_gamma                 87.1995268
_cell_volume                      9867.801086

loop_
_atom_site_label
_atom_site_type_symbol
_atom_site_description
_atom_site_fract_x
_atom_site_fract_y
_atom_site_fract_z
_atom_type_partial_charge
Zn1   Zn    Zn3+2 0.827617 0.197164 0.707136 0.000000
Zn2   Zn    Zn3+2 0.465065 0.108064 0.652649 0.000000
Zn3   Zn    Zn3+2 0.971182 0.484935 0.578011 0.000000
Zn4   Zn    Zn3+2 0.767413 0.513100 0.119056 0.000000
Zn5   Zn    Zn3+2 0.404990 0.329955 0.172405 0.000000
Zn6   Zn    Zn3+2 0.152366 0.443739 0.029768 0.000000
Zn7   Zn    Zn3+2 0.659595 0.757029 0.957659 0.000000
Zn8   Zn    Zn3+2 0.939820 0.630137 0.253956 0.000000
Zn9   Zn    Zn3+2 0.255106 0.785917 0.952594 0.000000
Zn10  Zn    Zn3+2 0.245119 0.308752 0.870393 0.000000
Zn11  Zn    Zn3+2 0.300208 0.476327 0.320890 0.000000
Zn12  Zn    Zn3+2 0.456660 0.991342 0.180651 0.000000
Zn13  Zn    Zn3+2 0.568108 0.721088 0.325580 0.000000
Zn14  Zn    Zn3+2 0.111096 0.890195 0.111992 0.000000
Zn15  Zn    Zn3+2 0.763589 0.021255 0.021779 0.000000
Zn16  Zn    Zn3+2 0.739053 0.629023 0.798560 0.000000
Zn17  Zn    Zn3+2 0.145403 0.054333 0.801397 0.000000
Zn18  Zn    Zn3+2 0.651983 0.287039 0.869559 0.000000
Zn19  Zn    Zn3+2 0.340678 0.375912 0.510050 0.000000
Zn20  Zn    Zn3+2 0.134244 0.574814 0.720742 0.000000
Zn21  Zn    Zn3+2 0.487987 0.772732 0.658180 0.000000
Zn22  Zn    Zn3+2 0.609089 0.618321 0.513417 0.000000
C1    C     C_3   0.800186 0.965158 0.681702 0.000000
N1    N     N_3   0.772959 0.032817 0.688957 0.000000
C2    C     C_3   0.710441 0.064460 0.661373 0.000000
C3    C     C_R   0.666314 0.126028 0.673804 0.000000
N2    N     N_R   0.581853 0.149715 0.665990 0.000000
C4    C     C_R   0.580999 0.214500 0.672567 0.000000
C5    C     C_R   0.511365 0.259126 0.675570 0.000000
C6    C     C_R   0.525940 0.321945 0.684394 0.000000
C7    C     C_R   0.609358 0.343746 0.684788 0.000000
C8    C     C_R   0.677086 0.295458 0.685505 0.000000
C9    C     C_R   0.659147 0.229147 0.682230 0.000000
N3    N     N_R   0.713098 0.172432 0.687038 0.000000
H1    H     H_    0.861535 0.947173 0.694744 0.000000
H2    H     H_    0.747947 0.925704 0.696696 0.000000
H3    H     H_    0.812632 0.971113 0.648399 0.000000
H4    H     H_    0.827835 0.065301 0.680516 0.000000
H5    H     H_    0.744600 0.083040 0.629766 0.000000
H6    H     H_    0.664333 0.024389 0.660554 0.000000
H7    H     H_    0.446664 0.243315 0.674926 0.000000
H8    H     H_    0.471556 0.351452 0.694906 0.000000
H9    H     H_    0.619031 0.393656 0.691223 0.000000
H10   H     H_    0.738182 0.308336 0.692792 0.000000
C10   C     C_3   0.071792 0.370287 0.648577 0.000000
N4    N     N_3   0.015292 0.360060 0.687254 0.000000
C11   C     C_3   0.925418 0.378073 0.680072 0.000000
C12   C     C_R   0.904447 0.348693 0.648733 0.000000
N5    N     N_R   0.916549 0.387766 0.608744 0.000000
C13   C     C_R   0.893207 0.341841 0.589696 0.000000
C14   C     C_R   0.894721 0.353066 0.548459 0.000000
C15   C     C_R   0.864546 0.299115 0.535225 0.000000
C16   C     C_R   0.836208 0.235337 0.563239 0.000000
C17   C     C_R   0.839547 0.224456 0.604529 0.000000
C18   C     C_R   0.867976 0.278739 0.617257 0.000000
N6    N     N_R   0.874902 0.280310 0.655754 0.000000
H11   H     H_    0.052637 0.415819 0.625396 0.000000
H12   H     H_    0.139211 0.380167 0.651479 0.000000
H13   H     H_    0.069670 0.322933 0.638045 0.000000
H14   H     H_    0.036072 0.395676 0.700989 0.000000
H15   H     H_    0.878173 0.353645 0.706896 0.000000
H16   H     H_    0.916199 0.436603 0.670255 0.000000
H17   H     H_    0.916024 0.403224 0.527110 0.000000
H18   H     H_    0.863211 0.306561 0.503007 0.000000
H19   H     H_    0.814194 0.193000 0.552601 0.000000
H20   H     H_    0.823761 0.174035 0.625701 0.000000
C19   C     C_3   0.687024 0.278451 0.223759 0.000000
N7    N     N_3   0.599085 0.308279 0.226892 0.000000
C20   C     C_3   0.602648 0.385306 0.209683 0.000000
C21   C     C_R   0.597310 0.403706 0.164982 0.000000
N8    N     N_R   0.662289 0.441338 0.135026 0.000000
C22   C     C_R   0.639468 0.430429 0.101406 0.000000
C23   C     C_R   0.679763 0.458231 0.062423 0.000000
C24   C     C_R   0.639959 0.448437 0.031475 0.000000
C25   C     C_R   0.571912 0.400636 0.040076 0.000000
C26   C     C_R   0.536275 0.369054 0.079953 0.000000
C27   C     C_R   0.565700 0.390690 0.109900 0.000000
N9    N     N_R   0.532368 0.376051 0.149699 0.000000
H21   H     H_    0.683323 0.219508 0.234854 0.000000
H22   H     H_    0.718331 0.293414 0.191500 0.000000
H23   H     H_    0.726298 0.297139 0.243223 0.000000
H24   H     H_    0.575551 0.298184 0.257959 0.000000
H25   H     H_    0.546321 0.408111 0.225458 0.000000
H26   H     H_    0.663451 0.406690 0.215063 0.000000
H27   H     H_    0.738937 0.488431 0.055453 0.000000
H28   H     H_    0.667080 0.473322 0.000290 0.000000
H29   H     H_    0.546360 0.388871 0.015249 0.000000
H30   H     H_    0.485298 0.330978 0.086897 0.000000
C28   C     C_3   0.888398 0.243106 0.113762 0.000000
N10   N     N_3   0.865713 0.317984 0.109318 0.000000
C29   C     C_3   0.897933 0.359596 0.067970 0.000000
C30   C     C_R   0.932418 0.429275 0.068896 0.000000
N11   N     N_R   0.881842 0.474510 0.088153 0.000000
C31   C     C_R   0.944057 0.516143 0.090532 0.000000
C32   C     C_R   0.932203 0.564118 0.110525 0.000000
C33   C     C_R   0.000925 0.578727 0.126869 0.000000
C34   C     C_R   0.083697 0.558065 0.114817 0.000000
C35   C     C_R   0.096122 0.520735 0.086636 0.000000
C36   C     C_R   0.023878 0.498851 0.075579 0.000000
N12   N     N_R   0.021089 0.448685 0.057070 0.000000
H31   H     H_    0.861400 0.211107 0.144845 0.000000
H32   H     H_    0.861071 0.223472 0.091055 0.000000
H33   H     H_    0.960140 0.235156 0.109726 0.000000
H34   H     H_    0.899299 0.334563 0.129156 0.000000
H35   H     H_    0.950791 0.329285 0.054765 0.000000
H36   H     H_    0.843930 0.369979 0.049155 0.000000
H37   H     H_    0.871423 0.592502 0.110914 0.000000
H38   H     H_    0.989927 0.617202 0.142321 0.000000
H39   H     H_    0.139234 0.578812 0.122715 0.000000
H40   H     H_    0.160736 0.508484 0.075661 0.000000
C37   C     C_3   0.929250 0.712832 0.954238 0.000000
N13   N     N_3   0.849873 0.715102 0.982135 0.000000
C38   C     C_3   0.836787 0.650365 0.016026 0.000000
C39   C     C_R   0.743690 0.639617 0.033105 0.000000
N14   N     N_R   0.721988 0.602049 0.073735 0.000000
C40   C     C_R   0.642641 0.628218 0.081830 0.000000
C41   C     C_R   0.604819 0.626400 0.119614 0.000000
C42   C     C_R   0.541633 0.676798 0.122996 0.000000
C43   C     C_R   0.509616 0.720421 0.088958 0.000000
C44   C     C_R   0.542210 0.714862 0.050737 0.000000
C45   C     C_R   0.614519 0.673259 0.047851 0.000000
N15   N     N_R   0.675855 0.681140 0.015250 0.000000
H41   H     H_    0.970413 0.757972 0.953381 0.000000
H42   H     H_    0.965393 0.661772 0.962705 0.000000
H43   H     H_    0.912209 0.721081 0.923280 0.000000
H44   H     H_    0.798633 0.725930 0.965174 0.000000
H45   H     H_    0.866581 0.601971 0.009253 0.000000
H46   H     H_    0.865346 0.658301 0.041451 0.000000
H47   H     H_    0.633702 0.593632 0.144965 0.000000
H48   H     H_    0.516121 0.679972 0.152574 0.000000
H49   H     H_    0.461393 0.760786 0.091763 0.000000
H50   H     H_    0.516755 0.747346 0.024348 0.000000
C46   C     C_3   0.824197 0.781303 0.166952 0.000000
N16   N     N_3   0.807285 0.710270 0.193612 0.000000
C47   C     C_3   0.814006 0.665114 0.166422 0.000000
C48   C     C_R   0.827432 0.589727 0.188510 0.000000
N17   N     N_R   0.884113 0.570624 0.217951 0.000000
C49   C     C_R   0.894166 0.499638 0.221538 0.000000
C50   C     C_R   0.955004 0.453084 0.240110 0.000000
C51   C     C_R   0.956785 0.383226 0.238278 0.000000
C52   C     C_R   0.902442 0.361561 0.215489 0.000000
C53   C     C_R   0.848875 0.410613 0.192915 0.000000
C54   C     C_R   0.844748 0.478409 0.197098 0.000000
N18   N     N_R   0.803858 0.533756 0.174185 0.000000
H51   H     H_    0.894177 0.791578 0.160010 0.000000
H52   H     H_    0.807604 0.783680 0.137206 0.000000
H53   H     H_    0.787171 0.821848 0.179733 0.000000
H54   H     H_    0.742677 0.710025 0.207349 0.000000
H55   H     H_    0.755839 0.670705 0.150516 0.000000
H56   H     H_    0.871730 0.681938 0.143786 0.000000
H57   H     H_    0.005975 0.470712 0.252408 0.000000
H58   H     H_    0.003529 0.346019 0.253412 0.000000
H59   H     H_    0.904891 0.307101 0.213878 0.000000
H60   H     H_    0.810865 0.396091 0.172640 0.000000
C55   C     C_3   0.391731 0.565707 0.159030 0.000000
N19   N     N_3   0.396163 0.489974 0.177374 0.000000
C56   C     C_3   0.326774 0.473674 0.211201 0.000000
C57   C     C_R   0.348532 0.409524 0.241673 0.000000
N20   N     N_R   0.363620 0.346742 0.230885 0.000000
C58   C     C_R   0.342122 0.298067 0.267108 0.000000
C59   C     C_R   0.324438 0.227335 0.273331 0.000000
C60   C     C_R   0.293785 0.187125 0.312386 0.000000
C61   C     C_R   0.281050 0.217977 0.344369 0.000000
C62   C     C_R   0.294130 0.290125 0.337350 0.000000
C63   C     C_R   0.322846 0.330306 0.298090 0.000000
N21   N     N_R   0.328236 0.402434 0.283342 0.000000
H61   H     H_    0.437861 0.578341 0.130700 0.000000
H62   H     H_    0.325711 0.580772 0.150973 0.000000
H63   H     H_    0.408031 0.594925 0.180175 0.000000
H64   H     H_    0.454994 0.479725 0.188949 0.000000
H65   H     H_    0.316114 0.517081 0.225739 0.000000
H66   H     H_    0.267215 0.461544 0.200180 0.000000
H67   H     H_    0.328441 0.204541 0.248168 0.000000
H68   H     H_    0.278715 0.131467 0.317972 0.000000
H69   H     H_    0.257202 0.185972 0.374833 0.000000
H70   H     H_    0.279339 0.312548 0.362522 0.000000
C64   C     C_3   0.499407 0.092456 0.301273 0.000000
N22   N     N_3   0.465661 0.087036 0.264969 0.000000
C65   C     C_3   0.495537 0.148504 0.231302 0.000000
C66   C     C_R   0.446420 0.154338 0.196239 0.000000
N23   N     N_R   0.436013 0.097172 0.180536 0.000000
C67   C     C_R   0.395465 0.128354 0.148321 0.000000
C68   C     C_R   0.388578 0.100911 0.116208 0.000000
C69   C     C_R   0.349514 0.142078 0.084203 0.000000
C70   C     C_R   0.318561 0.208036 0.085175 0.000000
C71   C     C_R   0.347593 0.238847 0.111539 0.000000
C72   C     C_R   0.381341 0.198339 0.144816 0.000000
N24   N     N_R   0.413561 0.219029 0.174169 0.000000
H71   H     H_    0.488668 0.041367 0.325530 0.000000
H72   H     H_    0.570362 0.104092 0.294187 0.000000
H73   H     H_    0.465198 0.135745 0.312516 0.000000
H74   H     H_    0.397492 0.088499 0.270534 0.000000
H75   H     H_    0.486318 0.197849 0.241115 0.000000
H76   H     H_    0.566247 0.142834 0.221575 0.000000
H77   H     H_    0.419605 0.051709 0.113817 0.000000
H78   H     H_    0.349698 0.126752 0.056837 0.000000
H79   H     H_    0.285464 0.240439 0.061226 0.000000
H80   H     H_    0.356392 0.293048 0.101066 0.000000
C73   C     C_3   0.466294 0.539746 0.057832 0.000000
N25   N     N_3   0.411465 0.485317 0.086421 0.000000
C74   C     C_3   0.361859 0.453737 0.063749 0.000000
C75   C     C_R   0.295101 0.409338 0.093246 0.000000
N26   N     N_R   0.305170 0.373952 0.133880 0.000000
C76   C     C_R   0.226220 0.343125 0.147432 0.000000
C77   C     C_R   0.196992 0.302587 0.186145 0.000000
C78   C     C_R   0.114458 0.273702 0.193597 0.000000
C79   C     C_R   0.065782 0.281566 0.161880 0.000000
C80   C     C_R   0.096853 0.321819 0.122721 0.000000
C81   C     C_R   0.176344 0.353950 0.116509 0.000000
N27   N     N_R   0.217730 0.395840 0.081289 0.000000
H81   H     H_    0.529470 0.539702 0.068890 0.000000
H82   H     H_    0.475863 0.529567 0.027657 0.000000
H83   H     H_    0.435143 0.591912 0.056175 0.000000
H84   H     H_    0.364662 0.510939 0.102305 0.000000
H85   H     H_    0.329936 0.495026 0.041396 0.000000
H86   H     H_    0.402012 0.421667 0.046387 0.000000
H87   H     H_    0.235851 0.294279 0.210310 0.000000
H88   H     H_    0.089302 0.242078 0.223968 0.000000
H89   H     H_    0.003774 0.254904 0.168089 0.000000
H90   H     H_    0.061830 0.325234 0.097572 0.000000
C82   C     C_3   0.306815 0.706141 0.072493 0.000000
N28   N     N_3   0.297224 0.693855 0.033936 0.000000
C83   C     C_3   0.245129 0.630701 0.042441 0.000000
C84   C     C_R   0.230332 0.617313 0.003578 0.000000
N29   N     N_R   0.240837 0.672041 0.967321 0.000000
C85   C     C_R   0.223209 0.638373 0.940682 0.000000
C86   C     C_R   0.223674 0.666498 0.899798 0.000000
C87   C     C_R   0.168004 0.635247 0.882070 0.000000
C88   C     C_R   0.120851 0.576211 0.905061 0.000000
C89   C     C_R   0.133639 0.543434 0.944145 0.000000
C90   C     C_R   0.191143 0.572231 0.960495 0.000000
N30   N     N_R   0.197715 0.553606 0.000318 0.000000
H91   H     H_    0.331922 0.760636 0.066589 0.000000
H92   H     H_    0.243693 0.699871 0.092799 0.000000
H93   H     H_    0.353445 0.667011 0.087576 0.000000
H94   H     H_    0.359131 0.682988 0.021300 0.000000
H95   H     H_    0.277252 0.585685 0.062019 0.000000
H96   H     H_    0.182046 0.640697 0.058516 0.000000
H97   H     H_    0.256109 0.716163 0.883565 0.000000
H98   H     H_    0.154322 0.660445 0.851502 0.000000
H99   H     H_    0.071818 0.556144 0.893167 0.000000
H100  H     H_    0.087784 0.506250 0.963696 0.000000
C91   C     C_3   0.422414 0.298548 0.000118 0.000000
N31   N     N_3   0.351064 0.293976 0.977807 0.000000
C92   C     C_3   0.319940 0.364845 0.959314 0.000000
C93   C     C_R   0.226419 0.362841 0.956396 0.000000
N32   N     N_R   0.197042 0.341220 0.925217 0.000000
C94   C     C_R   0.111018 0.349713 0.933815 0.000000
C95   C     C_R   0.050978 0.341875 0.910609 0.000000
C96   C     C_R   0.964311 0.343578 0.926164 0.000000
C97   C     C_R   0.940383 0.370590 0.959129 0.000000
C98   C     C_R   0.003748 0.391926 0.977346 0.000000
C99   C     C_R   0.089263 0.374557 0.967107 0.000000
N33   N     N_R   0.161258 0.386522 0.982486 0.000000
H101  H     H_    0.448993 0.244571 0.012963 0.000000
H102  H     H_    0.475421 0.331338 0.979419 0.000000
H103  H     H_    0.399017 0.322438 0.025238 0.000000
H104  H     H_    0.298903 0.266304 0.997505 0.000000
H105  H     H_    0.330228 0.401487 0.977598 0.000000
H106  H     H_    0.352001 0.381394 0.927567 0.000000
H107  H     H_    0.073122 0.330600 0.882075 0.000000
H108  H     H_    0.916257 0.327146 0.911186 0.000000
H109  H     H_    0.872566 0.378506 0.969442 0.000000
H110  H     H_    0.985491 0.423929 0.997332 0.000000
C100  C     C_3   0.496299 0.940362 0.054945 0.000000
N34   N     N_3   0.559606 0.951008 0.018291 0.000000
C101  C     C_3   0.599085 0.882595 0.016886 0.000000
C102  C     C_R   0.686042 0.891433 0.990969 0.000000
N35   N     N_R   0.711256 0.850384 0.963962 0.000000
C103  C     C_R   0.783516 0.883883 0.942060 0.000000
C104  C     C_R   0.834368 0.866838 0.910182 0.000000
C105  C     C_R   0.909117 0.905901 0.893736 0.000000
C106  C     C_R   0.931389 0.959830 0.909142 0.000000
C107  C     C_R   0.876884 0.978561 0.940159 0.000000
C108  C     C_R   0.803137 0.939213 0.956344 0.000000
N36   N     N_R   0.745475 0.944140 0.988973 0.000000
H111  H     H_    0.520541 0.904544 0.081904 0.000000
H112  H     H_    0.479758 0.992709 0.060598 0.000000
H113  H     H_    0.438457 0.914043 0.051193 0.000000
H114  H     H_    0.606517 0.986442 0.019324 0.000000
H115  H     H_    0.603603 0.846654 0.046939 0.000000
H116  H     H_    0.555015 0.855731 0.004265 0.000000
H117  H     H_    0.817312 0.824423 0.898393 0.000000
H118  H     H_    0.950858 0.894327 0.868795 0.000000
H119  H     H_    0.992885 0.986044 0.896954 0.000000
H120  H     H_    0.894182 0.018815 0.953508 0.000000
C109  C     C_3   0.654245 0.892427 0.841542 0.000000
N37   N     N_3   0.679450 0.835144 0.823084 0.000000
C110  C     C_3   0.631223 0.772085 0.847476 0.000000
C111  C     C_R   0.693911 0.720888 0.867221 0.000000
N38   N     N_R   0.743756 0.676871 0.847017 0.000000
C112  C     C_R   0.797371 0.646523 0.874568 0.000000
C113  C     C_R   0.866644 0.601193 0.871141 0.000000
C114  C     C_R   0.896319 0.561568 0.906692 0.000000
C115  C     C_R   0.851856 0.563303 0.943850 0.000000
C116  C     C_R   0.783534 0.610246 0.945369 0.000000
C117  C     C_R   0.770162 0.660990 0.910647 0.000000
N39   N     N_R   0.709830 0.713493 0.906969 0.000000
H121  H     H_    0.683627 0.942371 0.821211 0.000000
H122  H     H_    0.582232 0.900219 0.845128 0.000000
H123  H     H_    0.678416 0.879812 0.871378 0.000000
H124  H     H_    0.745835 0.824622 0.824967 0.000000
H125  H     H_    0.580838 0.784798 0.870689 0.000000
H126  H     H_    0.600169 0.747496 0.827758 0.000000
H127  H     H_    0.894531 0.593844 0.842439 0.000000
H128  H     H_    0.943256 0.519912 0.906605 0.000000
H129  H     H_    0.865321 0.523143 0.971088 0.000000
H130  H     H_    0.737434 0.602759 0.972111 0.000000
C118  C     C_3   0.564646 0.582368 0.949812 0.000000
N40   N     N_3   0.541014 0.655865 0.932040 0.000000
C119  C     C_3   0.465544 0.672690 0.957667 0.000000
C120  C     C_R   0.461273 0.750568 0.950137 0.000000
N41   N     N_R   0.535199 0.788696 0.946943 0.000000
C121  C     C_R   0.504789 0.856606 0.936900 0.000000
C122  C     C_R   0.547102 0.920041 0.929359 0.000000
C123  C     C_R   0.497055 0.979319 0.932408 0.000000
C124  C     C_R   0.407374 0.976025 0.938489 0.000000
C125  C     C_R   0.367727 0.915019 0.938177 0.000000
C126  C     C_R   0.417496 0.857077 0.937905 0.000000
N42   N     N_R   0.386654 0.792004 0.945517 0.000000
H131  H     H_    0.613021 0.564062 0.927865 0.000000
H132  H     H_    0.593803 0.578822 0.977704 0.000000
H133  H     H_    0.505791 0.548532 0.957944 0.000000
H134  H     H_    0.523246 0.662187 0.903324 0.000000
H135  H     H_    0.405919 0.651946 0.950940 0.000000
H136  H     H_    0.476194 0.649313 0.989457 0.000000
H137  H     H_    0.616248 0.924518 0.923006 0.000000
H138  H     H_    0.526794 0.028713 0.930527 0.000000
H139  H     H_    0.368855 0.022142 0.941544 0.000000
H140  H     H_    0.299123 0.908217 0.943357 0.000000
C127  C     C_3   0.288902 0.664889 0.246903 0.000000
N43   N     N_3   0.246793 0.656944 0.287899 0.000000
C128  C     C_3   0.153485 0.652999 0.288773 0.000000
C129  C     C_R   0.124354 0.579781 0.292946 0.000000
N44   N     N_R   0.037168 0.569918 0.289881 0.000000
C130  C     C_R   0.023928 0.503011 0.314229 0.000000
C131  C     C_R   0.945841 0.467490 0.327472 0.000000
C132  C     C_R   0.947509 0.396774 0.349988 0.000000
C133  C     C_R   0.026281 0.363483 0.359243 0.000000
C134  C     C_R   0.103663 0.401270 0.347280 0.000000
C135  C     C_R   0.100839 0.471479 0.325456 0.000000
N45   N     N_R   0.167993 0.517866 0.312679 0.000000
H141  H     H_    0.282905 0.615596 0.238455 0.000000
H142  H     H_    0.260165 0.711327 0.226433 0.000000
H143  H     H_    0.358383 0.675907 0.245312 0.000000
H144  H     H_    0.255767 0.706521 0.291949 0.000000
H145  H     H_    0.121264 0.667798 0.316089 0.000000
H146  H     H_    0.130673 0.691882 0.262196 0.000000
H147  H     H_    0.885169 0.493481 0.320330 0.000000
H148  H     H_    0.887165 0.367230 0.360330 0.000000
H149  H     H_    0.026872 0.308257 0.376971 0.000000
H150  H     H_    0.163652 0.377211 0.356350 0.000000
C136  C     C_3   0.143687 0.568286 0.202104 0.000000
N46   N     N_3   0.147499 0.643333 0.200388 0.000000
C137  C     C_3   0.085590 0.682563 0.174939 0.000000
C138  C     C_R   0.050828 0.745245 0.187179 0.000000
N47   N     N_R   0.986360 0.732886 0.219886 0.000000
C139  C     C_R   0.961127 0.800508 0.220487 0.000000
C140  C     C_R   0.884510 0.824165 0.238517 0.000000
C141  C     C_R   0.869768 0.896477 0.232237 0.000000
C142  C     C_R   0.926638 0.945255 0.204904 0.000000
C143  C     C_R   0.994355 0.921124 0.181393 0.000000
C144  C     C_R   0.008503 0.848974 0.189309 0.000000
N48   N     N_R   0.059799 0.816510 0.164999 0.000000
H151  H     H_    0.078556 0.551571 0.199367 0.000000
H152  H     H_    0.190636 0.558253 0.177348 0.000000
H153  H     H_    0.163352 0.534258 0.230756 0.000000
H154  H     H_    0.207752 0.659763 0.183636 0.000000
H155  H     H_    0.114866 0.693252 0.142911 0.000000
H156  H     H_    0.025314 0.652612 0.184528 0.000000
H157  H     H_    0.829553 0.790349 0.250322 0.000000
H158  H     H_    0.809923 0.914818 0.246422 0.000000
H159  H     H_    0.913133 0.001755 0.199191 0.000000
H160  H     H_    0.033782 0.958092 0.156995 0.000000
C145  C     C_3   0.648512 0.475107 0.310688 0.000000
N49   N     N_3   0.649229 0.548510 0.312434 0.000000
C146  C     C_3   0.723926 0.581572 0.284307 0.000000
C147  C     C_R   0.751569 0.647507 0.292083 0.000000
N50   N     N_R   0.700319 0.694599 0.309700 0.000000
C148  C     C_R   0.762747 0.726344 0.322811 0.000000
C149  C     C_R   0.752848 0.774436 0.345460 0.000000
C150  C     C_R   0.826601 0.799651 0.355367 0.000000
C151  C     C_R   0.909328 0.775835 0.343103 0.000000
C152  C     C_R   0.918376 0.724894 0.321937 0.000000
C153  C     C_R   0.843880 0.700329 0.313229 0.000000
N51   N     N_R   0.839261 0.654465 0.291402 0.000000
H161  H     H_    0.582275 0.453451 0.322275 0.000000
H162  H     H_    0.665756 0.472411 0.278745 0.000000
H163  H     H_    0.696089 0.442705 0.329642 0.000000
H164  H     H_    0.660191 0.547814 0.341583 0.000000
H165  H     H_    0.779073 0.543834 0.288557 0.000000
H166  H     H_    0.714682 0.590557 0.252651 0.000000
H167  H     H_    0.689962 0.786428 0.359012 0.000000
H168  H     H_    0.819442 0.836893 0.373681 0.000000
H169  H     H_    0.966511 0.795997 0.350854 0.000000
H170  H     H_    0.981765 0.705511 0.312171 0.000000
C154  C     C_3   0.298242 0.010259 0.048657 0.000000
N52   N     N_3   0.241260 0.952078 0.053821 0.000000
C155  C     C_3   0.267411 0.920170 0.021162 0.000000
C156  C     C_R   0.211364 0.858975 0.029839 0.000000
N53   N     N_R   0.153856 0.841153 0.065515 0.000000
C157  C     C_R   0.111831 0.786711 0.060597 0.000000
C158  C     C_R   0.039608 0.754211 0.083848 0.000000
C159  C     C_R   0.997724 0.710645 0.068362 0.000000
C160  C     C_R   0.031349 0.693420 0.033090 0.000000
C161  C     C_R   0.095187 0.734810 0.007538 0.000000
C162  C     C_R   0.137870 0.777143 0.023267 0.000000
N54   N     N_R   0.205576 0.817510 0.003718 0.000000
H171  H     H_    0.256207 0.057776 0.047620 0.000000
H172  H     H_    0.334187 0.999894 0.074974 0.000000
H173  H     H_    0.345326 0.016298 0.020621 0.000000
H174  H     H_    0.180149 0.975232 0.049089 0.000000
H175  H     H_    0.255493 0.959389 0.992666 0.000000
H176  H     H_    0.335534 0.900952 0.020389 0.000000
H177  H     H_    0.010066 0.768211 0.110708 0.000000
H178  H     H_    0.934345 0.693991 0.082972 0.000000
H179  H     H_    0.003820 0.652484 0.023734 0.000000
H180  H     H_    0.109685 0.734266 0.976424 0.000000
C163  C     C_3   0.102669 0.006437 0.965620 0.000000
N55   N     N_3   0.139605 0.950353 0.947860 0.000000
C164  C     C_3   0.183809 0.984230 0.907186 0.000000
C165  C     C_R   0.197025 0.933136 0.881962 0.000000
N56   N     N_R   0.196689 0.858976 0.899768 0.000000
C166  C     C_R   0.149879 0.838712 0.874413 0.000000
C167  C     C_R   0.097134 0.780626 0.883924 0.000000
C168  C     C_R   0.044463 0.773825 0.856007 0.000000
C169  C     C_R   0.041497 0.826748 0.819843 0.000000
C170  C     C_R   0.087679 0.888367 0.812310 0.000000
C171  C     C_R   0.137496 0.894049 0.840925 0.000000
N57   N     N_R   0.166446 0.954927 0.844290 0.000000
H181  H     H_    0.079276 0.982919 0.998404 0.000000
H182  H     H_    0.152897 0.047141 0.962235 0.000000
H183  H     H_    0.046683 0.032025 0.950378 0.000000
H184  H     H_    0.087387 0.920815 0.945251 0.000000
H185  H     H_    0.140568 0.026079 0.892351 0.000000
H186  H     H_    0.245173 0.009421 0.908210 0.000000
H187  H     H_    0.093308 0.742535 0.913195 0.000000
H188  H     H_    0.003233 0.727751 0.863065 0.000000
H189  H     H_    0.996647 0.823419 0.799346 0.000000
H190  H     H_    0.078722 0.932388 0.786428 0.000000
C172  C     C_3   0.425077 0.080455 0.849753 0.000000
N58   N     N_3   0.359168 0.133759 0.855615 0.000000
C173  C     C_3   0.302607 0.140475 0.824893 0.000000
C174  C     C_R   0.215006 0.169527 0.835996 0.000000
N59   N     N_R   0.145221 0.132898 0.831549 0.000000
C175  C     C_R   0.081538 0.149602 0.858028 0.000000
C176  C     C_R   0.998487 0.125004 0.867295 0.000000
C177  C     C_R   0.945738 0.143525 0.898472 0.000000
C178  C     C_R   0.980365 0.177323 0.922661 0.000000
C179  C     C_R   0.067362 0.195173 0.914982 0.000000
C180  C     C_R   0.112202 0.191331 0.878508 0.000000
N60   N     N_R   0.194704 0.212074 0.862795 0.000000
H191  H     H_    0.397275 0.026676 0.862935 0.000000
H192  H     H_    0.445566 0.085350 0.817092 0.000000
H193  H     H_    0.483056 0.087260 0.863684 0.000000
H194  H     H_    0.321863 0.111924 0.883754 0.000000
H195  H     H_    0.333228 0.170197 0.794482 0.000000
H196  H     H_    0.290141 0.086178 0.823800 0.000000
H197  H     H_    0.975056 0.094655 0.849907 0.000000
H198  H     H_    0.878391 0.129493 0.905195 0.000000
H199  H     H_    0.938290 0.191577 0.946615 0.000000
H200  H     H_    0.097696 0.213092 0.936535 0.000000
C181  C     C_3   0.383822 0.470104 0.824114 0.000000
N61   N     N_3   0.393678 0.409643 0.807302 0.000000
C182  C     C_3   0.473458 0.370060 0.815445 0.000000
C183  C     C_R   0.456144 0.311584 0.853967 0.000000
N62   N     N_R   0.372371 0.291059 0.871347 0.000000
C184  C     C_R   0.384463 0.237209 0.903477 0.000000
C185  C     C_R   0.319255 0.199371 0.930921 0.000000
C186  C     C_R   0.342196 0.149215 0.964124 0.000000
C187  C     C_R   0.428992 0.140568 0.970383 0.000000
C188  C     C_R   0.493304 0.180417 0.942275 0.000000
C189  C     C_R   0.470353 0.226625 0.907109 0.000000
N63   N     N_R   0.519610 0.272230 0.875361 0.000000
H201  H     H_    0.346229 0.512300 0.804808 0.000000
H202  H     H_    0.348414 0.453710 0.855601 0.000000
H203  H     H_    0.447216 0.492726 0.823305 0.000000
H204  H     H_    0.395748 0.427891 0.775811 0.000000
H205  H     H_    0.490792 0.347118 0.790158 0.000000
H206  H     H_    0.528332 0.404339 0.813942 0.000000
H207  H     H_    0.251385 0.209381 0.927980 0.000000
H208  H     H_    0.290193 0.121080 0.985694 0.000000
H209  H     H_    0.447209 0.104572 0.998027 0.000000
H210  H     H_    0.556735 0.176123 0.950357 0.000000
C190  C     C_3   0.008353 0.474285 0.832868 0.000000
N64   N     N_3   0.074825 0.527895 0.821040 0.000000
C191  C     C_3   0.151682 0.492938 0.836241 0.000000
C192  C     C_R   0.189969 0.456677 0.806264 0.000000
N65   N     N_R   0.221660 0.388275 0.819116 0.000000
C193  C     C_R   0.235894 0.370063 0.784493 0.000000
C194  C     C_R   0.281643 0.312086 0.778789 0.000000
C195  C     C_R   0.287695 0.300604 0.741099 0.000000
C196  C     C_R   0.244045 0.345591 0.711952 0.000000
C197  C     C_R   0.205492 0.407116 0.717667 0.000000
C198  C     C_R   0.208853 0.421645 0.753324 0.000000
N66   N     N_R   0.180325 0.480247 0.764767 0.000000
H211  H     H_    0.954161 0.498193 0.818036 0.000000
H212  H     H_    0.028810 0.426365 0.822677 0.000000
H213  H     H_    0.987989 0.459901 0.865751 0.000000
H214  H     H_    0.054746 0.570111 0.833010 0.000000
H215  H     H_    0.198228 0.529588 0.840907 0.000000
H216  H     H_    0.134538 0.454165 0.865865 0.000000
H217  H     H_    0.317182 0.280869 0.802256 0.000000
H218  H     H_    0.325954 0.257163 0.734106 0.000000
H219  H     H_    0.246481 0.336031 0.683009 0.000000
H220  H     H_    0.170049 0.439801 0.695807 0.000000
C199  C     C_3   0.220193 0.694941 0.374569 0.000000
N67   N     N_3   0.308987 0.687319 0.355274 0.000000
C200  C     C_3   0.346530 0.616381 0.368795 0.000000
C201  C     C_R   0.408739 0.605172 0.333942 0.000000
N68   N     N_R   0.391533 0.557567 0.312654 0.000000
C202  C     C_R   0.456185 0.572386 0.281379 0.000000
C203  C     C_R   0.481938 0.533348 0.254872 0.000000
C204  C     C_R   0.548915 0.559426 0.224295 0.000000
C205  C     C_R   0.584398 0.624924 0.219900 0.000000
C206  C     C_R   0.563717 0.660477 0.249402 0.000000
C207  C     C_R   0.503336 0.629217 0.281549 0.000000
N69   N     N_R   0.481274 0.648365 0.316031 0.000000
H221  H     H_    0.182875 0.731759 0.352255 0.000000
H222  H     H_    0.185301 0.643508 0.385477 0.000000
H223  H     H_    0.222211 0.721656 0.398746 0.000000
H224  H     H_    0.347529 0.722249 0.362321 0.000000
H225  H     H_    0.381790 0.612353 0.395150 0.000000
H226  H     H_    0.295709 0.575179 0.376587 0.000000
H227  H     H_    0.457363 0.481345 0.260109 0.000000
H228  H     H_    0.574447 0.528464 0.203902 0.000000
H229  H     H_    0.636853 0.643307 0.195942 0.000000
H230  H     H_    0.596980 0.708520 0.248180 0.000000
C208  C     C_3   0.047372 0.426933 0.440725 0.000000
N70   N     N_3   0.136061 0.399481 0.445111 0.000000
C209  C     C_3   0.198428 0.453587 0.421082 0.000000
C210  C     C_R   0.288419 0.422998 0.417103 0.000000
N71   N     N_R   0.337399 0.387395 0.448068 0.000000
C211  C     C_R   0.402380 0.358176 0.427343 0.000000
C212  C     C_R   0.464962 0.310470 0.443212 0.000000
C213  C     C_R   0.523300 0.283968 0.416336 0.000000
C214  C     C_R   0.520789 0.308250 0.374529 0.000000
C215  C     C_R   0.457741 0.357173 0.359171 0.000000
C216  C     C_R   0.396883 0.379253 0.386534 0.000000
N72   N     N_R   0.325382 0.420737 0.378868 0.000000
H231  H     H_    0.003697 0.382217 0.442949 0.000000
H232  H     H_    0.022790 0.451422 0.465517 0.000000
H233  H     H_    0.044417 0.467541 0.411191 0.000000
H234  H     H_    0.144758 0.356093 0.432822 0.000000
H235  H     H_    0.183279 0.472074 0.389669 0.000000
H236  H     H_    0.192229 0.501521 0.431310 0.000000
H237  H     H_    0.468221 0.293243 0.475524 0.000000
H238  H     H_    0.572870 0.245733 0.427852 0.000000
H239  H     H_    0.568530 0.288810 0.353790 0.000000
H240  H     H_    0.456909 0.376533 0.326735 0.000000
C217  C     C_3   0.236628 0.854401 0.263209 0.000000
N73   N     N_3   0.324329 0.883522 0.255309 0.000000
C218  C     C_3   0.384968 0.826481 0.271046 0.000000
C219  C     C_R   0.474461 0.855861 0.263421 0.000000
N74   N     N_R   0.494032 0.922583 0.236013 0.000000
C220  C     C_R   0.566455 0.939313 0.248398 0.000000
C221  C     C_R   0.614269 0.000314 0.231685 0.000000
C222  C     C_R   0.675573 0.014824 0.253653 0.000000
C223  C     C_R   0.682417 0.970600 0.292399 0.000000
C224  C     C_R   0.636911 0.907096 0.307004 0.000000
C225  C     C_R   0.587160 0.887844 0.281904 0.000000
N75   N     N_R   0.535311 0.829842 0.290420 0.000000
H241  H     H_    0.187935 0.897905 0.256224 0.000000
H242  H     H_    0.231703 0.819095 0.243549 0.000000
H243  H     H_    0.220811 0.825364 0.295833 0.000000
H244  H     H_    0.323842 0.920297 0.272264 0.000000
H245  H     H_    0.367017 0.806754 0.304297 0.000000
H246  H     H_    0.383423 0.782773 0.256757 0.000000
H247  H     H_    0.601763 0.037167 0.203229 0.000000
H248  H     H_    0.712407 0.063739 0.242279 0.000000
H249  H     H_    0.722067 0.986618 0.311684 0.000000
H250  H     H_    0.629636 0.881011 0.339012 0.000000
C226  C     C_3   0.190045 0.110908 0.205129 0.000000
N76   N     N_3   0.239682 0.051028 0.196062 0.000000
C227  C     C_3   0.204103 0.033599 0.163278 0.000000
C228  C     C_R   0.255644 0.974036 0.151672 0.000000
N77   N     N_R   0.339396 0.955506 0.162646 0.000000
C229  C     C_R   0.349041 0.891584 0.156175 0.000000
C230  C     C_R   0.407709 0.843247 0.172045 0.000000
C231  C     C_R   0.401309 0.775122 0.170657 0.000000
C232  C     C_R   0.337098 0.757028 0.151577 0.000000
C233  C     C_R   0.273564 0.805975 0.137548 0.000000
C234  C     C_R   0.280547 0.873614 0.140613 0.000000
N78   N     N_R   0.219118 0.925199 0.135516 0.000000
H251  H     H_    0.217288 0.126284 0.229501 0.000000
H252  H     H_    0.194935 0.156445 0.177301 0.000000
H253  H     H_    0.120465 0.095919 0.215801 0.000000
H254  H     H_    0.228582 0.008243 0.222076 0.000000
H255  H     H_    0.135581 0.016874 0.174181 0.000000
H256  H     H_    0.206007 0.081038 0.136678 0.000000
H257  H     H_    0.447767 0.856285 0.190816 0.000000
H258  H     H_    0.441885 0.735663 0.187958 0.000000
H259  H     H_    0.333110 0.702946 0.150768 0.000000
H260  H     H_    0.217660 0.789241 0.127768 0.000000
C235  C     C_3   0.651538 0.202000 0.123502 0.000000
N79   N     N_3   0.678868 0.138546 0.110764 0.000000
C236  C     C_3   0.605728 0.116509 0.095043 0.000000
C237  C     C_R   0.610556 0.038588 0.100648 0.000000
N80   N     N_R   0.670648 0.006437 0.076560 0.000000
C238  C     C_R   0.667251 0.938857 0.099953 0.000000
C239  C     C_R   0.702761 0.881407 0.089038 0.000000
C240  C     C_R   0.672859 0.815033 0.111544 0.000000
C241  C     C_R   0.628797 0.807018 0.150103 0.000000
C242  C     C_R   0.604790 0.865737 0.163284 0.000000
C243  C     C_R   0.611101 0.930582 0.134901 0.000000
N81   N     N_R   0.567711 0.991490 0.135650 0.000000
H261  H     H_    0.709090 0.228347 0.128315 0.000000
H262  H     H_    0.617964 0.239342 0.099770 0.000000
H263  H     H_    0.607263 0.187373 0.152596 0.000000
H264  H     H_    0.690750 0.098576 0.136800 0.000000
H265  H     H_    0.547065 0.129226 0.112968 0.000000
H266  H     H_    0.602358 0.145429 0.062780 0.000000
H267  H     H_    0.740655 0.888571 0.060572 0.000000
H268  H     H_    0.692928 0.768966 0.100891 0.000000
H269  H     H_    0.615331 0.755456 0.170389 0.000000
H270  H     H_    0.580385 0.858195 0.194581 0.000000
C244  C     C_3   0.806113 0.541043 0.433239 0.000000
N82   N     N_3   0.714306 0.562046 0.437498 0.000000
C245  C     C_3   0.704537 0.629837 0.407613 0.000000
C246  C     C_R   0.619645 0.667535 0.416648 0.000000
N83   N     N_R   0.567449 0.704698 0.387591 0.000000
C247  C     C_R   0.499957 0.726307 0.410658 0.000000
C248  C     C_R   0.436993 0.776226 0.398320 0.000000
C249  C     C_R   0.370181 0.786387 0.427751 0.000000
C250  C     C_R   0.367498 0.745897 0.468156 0.000000
C251  C     C_R   0.435602 0.699539 0.480033 0.000000
C252  C     C_R   0.505395 0.696870 0.450754 0.000000
N84   N     N_R   0.583834 0.664899 0.455908 0.000000
H271  H     H_    0.813034 0.484707 0.451074 0.000000
H272  H     H_    0.830926 0.546076 0.400672 0.000000
H273  H     H_    0.845224 0.575049 0.444940 0.000000
H274  H     H_    0.696696 0.568033 0.466399 0.000000
H275  H     H_    0.759750 0.663828 0.407499 0.000000
H276  H     H_    0.705686 0.617327 0.378554 0.000000
H277  H     H_    0.438969 0.806436 0.366731 0.000000
H278  H     H_    0.318393 0.824389 0.419029 0.000000
H279  H     H_    0.313358 0.752305 0.490636 0.000000
H280  H     H_    0.435780 0.669739 0.511565 0.000000
C253  C     C_3   0.864680 0.814623 0.030810 0.000000
N85   N     N_3   0.884196 0.887208 0.028578 0.000000
C254  C     C_3   0.929209 0.884062 0.062222 0.000000
C255  C     C_R   0.935836 0.952324 0.068447 0.000000
N86   N     N_R   0.892270 0.011977 0.046975 0.000000
C256  C     C_R   0.944670 0.063764 0.050182 0.000000
C257  C     C_R   0.945410 0.134689 0.030032 0.000000
C258  C     C_R   0.009172 0.177753 0.034903 0.000000
C259  C     C_R   0.073256 0.149350 0.059193 0.000000
C260  C     C_R   0.075129 0.077103 0.077896 0.000000
C261  C     C_R   0.011065 0.035753 0.072937 0.000000
N87   N     N_R   0.008784 0.964446 0.084994 0.000000
H281  H     H_    0.805696 0.811156 0.017991 0.000000
H282  H     H_    0.919661 0.795154 0.012802 0.000000
H283  H     H_    0.848357 0.781921 0.062539 0.000000
H284  H     H_    0.933050 0.902816 0.003690 0.000000
H285  H     H_    0.901124 0.847549 0.090926 0.000000
H286  H     H_    0.996598 0.875113 0.051408 0.000000
H287  H     H_    0.901652 0.155577 0.008789 0.000000
H288  H     H_    0.010338 0.233729 0.018727 0.000000
H289  H     H_    0.123605 0.183288 0.062216 0.000000
H290  H     H_    0.126838 0.052947 0.094820 0.000000
C262  C     C_3   0.710687 0.040895 0.863410 0.000000
N88   N     N_3   0.750670 0.080755 0.885579 0.000000
C263  C     C_3   0.684349 0.092687 0.917104 0.000000
C264  C     C_R   0.716194 0.142109 0.937155 0.000000
N89   N     N_R   0.739852 0.119306 0.976605 0.000000
C265  C     C_R   0.735697 0.180849 0.986468 0.000000
C266  C     C_R   0.749753 0.190659 0.022524 0.000000
C267  C     C_R   0.742932 0.259020 0.026010 0.000000
C268  C     C_R   0.711256 0.312189 0.995896 0.000000
C269  C     C_R   0.683843 0.297988 0.962988 0.000000
C270  C     C_R   0.709031 0.235374 0.956164 0.000000
N90   N     N_R   0.699068 0.215034 0.923192 0.000000
H291  H     H_    0.710459 0.073297 0.831720 0.000000
H292  H     H_    0.748260 0.991026 0.864600 0.000000
H293  H     H_    0.641840 0.029134 0.875967 0.000000
H294  H     H_    0.766351 0.130544 0.865431 0.000000
H295  H     H_    0.627179 0.118541 0.902746 0.000000
H296  H     H_    0.665963 0.041953 0.940154 0.000000
H297  H     H_    0.770934 0.146880 0.046019 0.000000
H298  H     H_    0.759916 0.271471 0.052330 0.000000
H299  H     H_    0.712216 0.365253 0.997150 0.000000
H300  H     H_    0.647945 0.334693 0.941793 0.000000
C271  C     C_3   0.504279 0.528164 0.728710 0.000000
N91   N     N_3   0.539285 0.551854 0.759506 0.000000
C272  C     C_3   0.514451 0.625881 0.755230 0.000000
C273  C     C_R   0.587945 0.674883 0.734129 0.000000
N92   N     N_R   0.665482 0.680431 0.749737 0.000000
C274  C     C_R   0.707223 0.732070 0.718836 0.000000
C275  C     C_R   0.788074 0.759730 0.716289 0.000000
C276  C     C_R   0.823193 0.806102 0.679612 0.000000
C277  C     C_R   0.774353 0.828638 0.647469 0.000000
C278  C     C_R   0.689341 0.805855 0.652018 0.000000
C279  C     C_R   0.658727 0.755750 0.687577 0.000000
N93   N     N_R   0.580879 0.723249 0.696498 0.000000
H301  H     H_    0.524927 0.472246 0.730946 0.000000
H302  H     H_    0.431926 0.532589 0.732334 0.000000
H303  H     H_    0.531019 0.561097 0.698574 0.000000
H304  H     H_    0.606377 0.549214 0.752877 0.000000
H305  H     H_    0.461235 0.639187 0.736361 0.000000
H306  H     H_    0.490733 0.634273 0.785196 0.000000
H307  H     H_    0.822145 0.746983 0.742210 0.000000
H308  H     H_    0.887942 0.827230 0.676355 0.000000
H309  H     H_    0.802119 0.865631 0.619175 0.000000
H310  H     H_    0.650702 0.823277 0.627283 0.000000
C280  C     C_3   0.744359 0.460396 0.914413 0.000000
N94   N     N_3   0.801564 0.418046 0.892276 0.000000
C281  C     C_3   0.804768 0.446132 0.848392 0.000000
C282  C     C_R   0.718166 0.454148 0.837064 0.000000
N95   N     N_R   0.655953 0.403309 0.857943 0.000000
C283  C     C_R   0.587847 0.446696 0.865614 0.000000
C284  C     C_R   0.516199 0.430278 0.894884 0.000000
C285  C     C_R   0.463218 0.486635 0.901958 0.000000
C286  C     C_R   0.477606 0.555816 0.878353 0.000000
C287  C     C_R   0.553529 0.572119 0.851713 0.000000
C288  C     C_R   0.606634 0.516921 0.846187 0.000000
N96   N     N_R   0.687746 0.523988 0.826625 0.000000
H311  H     H_    0.677233 0.441325 0.922887 0.000000
H312  H     H_    0.768068 0.456462 0.943442 0.000000
H313  H     H_    0.739491 0.515786 0.896412 0.000000
H314  H     H_    0.778498 0.366519 0.900380 0.000000
H315  H     H_    0.825900 0.501215 0.839692 0.000000
H316  H     H_    0.846926 0.413523 0.832063 0.000000
H317  H     H_    0.505163 0.376306 0.913147 0.000000
H318  H     H_    0.409991 0.479242 0.926307 0.000000
H319  H     H_    0.432225 0.597383 0.883276 0.000000
H320  H     H_    0.571958 0.626601 0.836610 0.000000
C289  C     C_3   0.056038 0.779536 0.711411 0.000000
N97   N     N_3   0.070624 0.726843 0.749134 0.000000
C290  C     C_3   0.986666 0.704340 0.773646 0.000000
C291  C     C_R   0.953995 0.643252 0.762510 0.000000
N98   N     N_R   0.010544 0.598617 0.745835 0.000000
C292  C     C_R   0.954694 0.549921 0.743900 0.000000
C293  C     C_R   0.974215 0.482360 0.743083 0.000000
C294  C     C_R   0.905204 0.436846 0.750863 0.000000
C295  C     C_R   0.820286 0.461163 0.749521 0.000000
C296  C     C_R   0.803122 0.529464 0.751121 0.000000
C297  C     C_R   0.871310 0.567496 0.754336 0.000000
N99   N     N_R   0.866646 0.622183 0.770149 0.000000
H321  H     H_    0.014797 0.756627 0.694569 0.000000
H322  H     H_    0.024492 0.828013 0.718058 0.000000
H323  H     H_    0.119884 0.794844 0.692096 0.000000
H324  H     H_    0.104969 0.751818 0.765165 0.000000
H325  H     H_    0.995766 0.686828 0.806152 0.000000
H326  H     H_    0.939400 0.749040 0.769193 0.000000
H327  H     H_    0.039888 0.462707 0.742644 0.000000
H328  H     H_    0.918558 0.382131 0.756614 0.000000
H329  H     H_    0.767570 0.425253 0.751743 0.000000
H330  H     H_    0.738732 0.550569 0.753234 0.000000
C298  C     C_3   0.858433 0.959450 0.778980 0.000000
N100  N     N_3   0.822428 0.026062 0.785835 0.000000
C299  C     C_3   0.887708 0.063761 0.798517 0.000000
C300  C     C_R   0.955749 0.094190 0.763879 0.000000
N101  N     N_R   0.039088 0.064012 0.764085 0.000000
C301  C     C_R   0.058544 0.063027 0.724563 0.000000
C302  C     C_R   0.127610 0.029067 0.707580 0.000000
C303  C     C_R   0.134336 0.033525 0.666493 0.000000
C304  C     C_R   0.074009 0.073004 0.642913 0.000000
C305  C     C_R   0.004861 0.107154 0.660345 0.000000
C306  C     C_R   0.996714 0.099289 0.701570 0.000000
N102  N     N_R   0.930745 0.122010 0.725224 0.000000
H331  H     H_    0.807780 0.932492 0.769079 0.000000
H332  H     H_    0.915698 0.968782 0.754870 0.000000
H333  H     H_    0.876936 0.923668 0.807705 0.000000
H334  H     H_    0.798104 0.057559 0.759902 0.000000
H335  H     H_    0.856543 0.107002 0.810375 0.000000
H336  H     H_    0.918851 0.024775 0.822408 0.000000
H337  H     H_    0.172190 0.995824 0.725939 0.000000
H338  H     H_    0.186221 0.005024 0.652835 0.000000
H339  H     H_    0.079712 0.075299 0.610942 0.000000
H340  H     H_    0.957463 0.136350 0.642194 0.000000
C307  C     C_3   0.379968 0.885545 0.812994 0.000000
N103  N     N_3   0.384995 0.960910 0.791569 0.000000
C308  C     C_3   0.339785 0.974049 0.755989 0.000000
C309  C     C_R   0.323833 0.052110 0.739866 0.000000
N104  N     N_R   0.249888 0.079125 0.757720 0.000000
C310  C     C_R   0.239033 0.141163 0.731095 0.000000
C311  C     C_R   0.164217 0.180480 0.731161 0.000000
C312  C     C_R   0.144500 0.219124 0.694063 0.000000
C313  C     C_R   0.209009 0.233216 0.660764 0.000000
C314  C     C_R   0.291207 0.205589 0.664582 0.000000
C315  C     C_R   0.302270 0.152386 0.698585 0.000000
N105  N     N_R   0.361440 0.098586 0.702693 0.000000
H341  H     H_    0.427343 0.872337 0.835326 0.000000
H342  H     H_    0.313861 0.871978 0.829431 0.000000
H343  H     H_    0.394626 0.853961 0.791002 0.000000
H344  H     H_    0.349813 0.987080 0.811295 0.000000
H345  H     H_    0.372408 0.949609 0.732718 0.000000
H346  H     H_    0.275234 0.948002 0.766135 0.000000
H347  H     H_    0.115650 0.172750 0.757583 0.000000
H348  H     H_    0.078903 0.237697 0.691906 0.000000
H349  H     H_    0.198988 0.271479 0.632909 0.000000
H350  H     H_    0.342738 0.227235 0.641724 0.000000
C316  C     C_3   0.490954 0.222313 0.774891 0.000000
N106  N     N_3   0.581112 0.242291 0.762914 0.000000
C317  C     C_3   0.634586 0.192250 0.787798 0.000000
C318  C     C_R   0.713490 0.230999 0.787445 0.000000
N107  N     N_R   0.788328 0.229707 0.760057 0.000000
C319  C     C_R   0.848979 0.250354 0.778381 0.000000
C320  C     C_R   0.937796 0.249050 0.767621 0.000000
C321  C     C_R   0.989732 0.267640 0.792292 0.000000
C322  C     C_R   0.951459 0.284343 0.827462 0.000000
C323  C     C_R   0.862070 0.280778 0.839155 0.000000
C324  C     C_R   0.811793 0.267031 0.812996 0.000000
N108  N     N_R   0.724510 0.258995 0.819137 0.000000
H351  H     H_    0.450497 0.266519 0.759790 0.000000
H352  H     H_    0.480002 0.175317 0.764373 0.000000
H353  H     H_    0.473339 0.214198 0.807949 0.000000
H354  H     H_    0.591805 0.291093 0.767712 0.000000
H355  H     H_    0.602122 0.173146 0.819711 0.000000
H356  H     H_    0.651381 0.146909 0.774582 0.000000
H357  H     H_    0.965770 0.237251 0.739892 0.000000
H358  H     H_    0.059889 0.270768 0.783858 0.000000
H359  H     H_    0.992072 0.298533 0.846342 0.000000
H360  H     H_    0.833069 0.287978 0.868018 0.000000
C325  C     C_3   0.614539 0.434840 0.413749 0.000000
N109  N     N_3   0.574088 0.430843 0.455004 0.000000
C326  C     C_3   0.522382 0.495141 0.454939 0.000000
C327  C     C_R   0.491451 0.493071 0.497992 0.000000
N110  N     N_R   0.429913 0.442971 0.519826 0.000000
C328  C     C_R   0.433006 0.444516 0.558007 0.000000
C329  C     C_R   0.385380 0.404235 0.592447 0.000000
C330  C     C_R   0.402521 0.413185 0.628698 0.000000
C331  C     C_R   0.464990 0.460576 0.630133 0.000000
C332  C     C_R   0.511189 0.500560 0.594712 0.000000
C333  C     C_R   0.492384 0.492837 0.559171 0.000000
N111  N     N_R   0.529330 0.527803 0.521802 0.000000
H361  H     H_    0.644514 0.382590 0.412810 0.000000
H362  H     H_    0.564630 0.449744 0.392806 0.000000
H363  H     H_    0.667637 0.474131 0.404287 0.000000
H364  H     H_    0.624150 0.428919 0.472525 0.000000
H365  H     H_    0.560000 0.542565 0.438874 0.000000
H366  H     H_    0.465009 0.495572 0.439003 0.000000
H367  H     H_    0.336693 0.367136 0.591537 0.000000
H368  H     H_    0.368532 0.382132 0.656317 0.000000
H369  H     H_    0.475673 0.468185 0.658924 0.000000
H370  H     H_    0.557277 0.539045 0.594551 0.000000
C334  C     C_3   0.605274 0.203606 0.533014 0.000000
N112  N     N_3   0.580734 0.216264 0.572916 0.000000
C335  C     C_3   0.516474 0.274111 0.570043 0.000000
C336  C     C_R   0.430352 0.242779 0.574378 0.000000
N113  N     N_R   0.371649 0.269526 0.546425 0.000000
C337  C     C_R   0.330036 0.209366 0.548380 0.000000
C338  C     C_R   0.279407 0.199325 0.520952 0.000000
C339  C     C_R   0.250217 0.130814 0.526342 0.000000
C340  C     C_R   0.267327 0.075566 0.559949 0.000000
C341  C     C_R   0.319788 0.086517 0.586958 0.000000
C342  C     C_R   0.354900 0.152884 0.578901 0.000000
N114  N     N_R   0.418272 0.171954 0.596825 0.000000
H371  H     H_    0.654846 0.160159 0.535595 0.000000
H372  H     H_    0.547452 0.187153 0.522288 0.000000
H373  H     H_    0.634237 0.252045 0.510407 0.000000
H374  H     H_    0.636619 0.230015 0.582550 0.000000
H375  H     H_    0.517894 0.298413 0.595172 0.000000
H376  H     H_    0.528701 0.314522 0.540062 0.000000
H377  H     H_    0.265577 0.242626 0.495150 0.000000
H378  H     H_    0.211520 0.120622 0.504855 0.000000
H379  H     H_    0.241361 0.023117 0.564408 0.000000
H380  H     H_    0.335150 0.043558 0.612502 0.000000
C343  C     C_3   0.073570 0.220127 0.541778 0.000000
N115  N     N_3   0.102322 0.293633 0.525469 0.000000
C344  C     C_3   0.115513 0.319257 0.559772 0.000000
C345  C     C_R   0.137681 0.396601 0.546110 0.000000
N116  N     N_R   0.219898 0.417314 0.525648 0.000000
C346  C     C_R   0.205984 0.485909 0.506018 0.000000
C347  C     C_R   0.265663 0.535403 0.482276 0.000000
C348  C     C_R   0.234931 0.603098 0.465221 0.000000
C349  C     C_R   0.145515 0.617686 0.467642 0.000000
C350  C     C_R   0.086798 0.565782 0.490039 0.000000
C351  C     C_R   0.120064 0.503491 0.512101 0.000000
N117  N     N_R   0.075692 0.451712 0.540694 0.000000
H381  H     H_    0.006799 0.217887 0.558184 0.000000
H382  H     H_    0.074636 0.195307 0.516444 0.000000
H383  H     H_    0.115786 0.190035 0.564122 0.000000
H384  H     H_    0.050498 0.322410 0.512451 0.000000
H385  H     H_    0.056197 0.308589 0.581913 0.000000
H386  H     H_    0.171902 0.290063 0.572801 0.000000
H387  H     H_    0.333585 0.523406 0.476508 0.000000
H388  H     H_    0.281522 0.643699 0.448738 0.000000
H389  H     H_    0.121111 0.669863 0.453034 0.000000
H390  H     H_    0.017612 0.574015 0.490819 0.000000
C352  C     C_3   0.410086 0.629375 0.643702 0.000000
N118  N     N_3   0.370755 0.686218 0.613732 0.000000
C353  C     C_3   0.284730 0.705528 0.630018 0.000000
C354  C     C_R   0.287262 0.703118 0.672487 0.000000
N119  N     N_R   0.232064 0.660411 0.705274 0.000000
C355  C     C_R   0.262270 0.676955 0.736095 0.000000
C356  C     C_R   0.245061 0.642323 0.775731 0.000000
C357  C     C_R   0.297404 0.655624 0.802110 0.000000
C358  C     C_R   0.348163 0.715922 0.790180 0.000000
C359  C     C_R   0.361274 0.752813 0.749521 0.000000
C360  C     C_R   0.327701 0.725071 0.723099 0.000000
N120  N     N_R   0.353326 0.737741 0.683108 0.000000
H391  H     H_    0.453575 0.651537 0.659760 0.000000
H392  H     H_    0.363924 0.594411 0.667120 0.000000
H393  H     H_    0.450511 0.596600 0.627533 0.000000
H394  H     H_    0.369670 0.674497 0.586176 0.000000
H395  H     H_    0.269459 0.760815 0.612880 0.000000
H396  H     H_    0.233710 0.670523 0.627464 0.000000
H397  H     H_    0.197194 0.602936 0.783236 0.000000
H398  H     H_    0.298024 0.620364 0.832231 0.000000
H399  H     H_    0.381525 0.730707 0.812041 0.000000
H400  H     H_    0.393637 0.802392 0.738367 0.000000
C361  C     C_3   0.007057 0.716603 0.607248 0.000000
N121  N     N_3   0.947444 0.657347 0.614844 0.000000
C362  C     C_3   0.956160 0.608933 0.654731 0.000000
C363  C     C_R   0.023888 0.555082 0.649766 0.000000
N122  N     N_R   0.035399 0.539116 0.612703 0.000000
C364  C     C_R   0.122515 0.541798 0.603623 0.000000
C365  C     C_R   0.165337 0.579189 0.567051 0.000000
C366  C     C_R   0.254072 0.584387 0.563030 0.000000
C367  C     C_R   0.295552 0.554728 0.596277 0.000000
C368  C     C_R   0.248361 0.536864 0.634708 0.000000
C369  C     C_R   0.160211 0.541741 0.636558 0.000000
N123  N     N_R   0.100922 0.552962 0.666816 0.000000
H401  H     H_    0.010100 0.748929 0.575036 0.000000
H402  H     H_    0.982681 0.751479 0.627004 0.000000
H403  H     H_    0.073810 0.696795 0.612867 0.000000
H404  H     H_    0.884677 0.679174 0.616076 0.000000
H405  H     H_    0.975128 0.640929 0.673796 0.000000
H406  H     H_    0.895168 0.579895 0.668210 0.000000
H407  H     H_    0.130575 0.612367 0.544368 0.000000
H408  H     H_    0.291082 0.613811 0.534807 0.000000
H409  H     H_    0.364111 0.559299 0.592101 0.000000
H410  H     H_    0.278288 0.522307 0.662025 0.000000
C370  C     C_3   0.590869 0.989354 0.527854 0.000000
N124  N     N_3   0.566268 0.944581 0.569208 0.000000
C371  C     C_3   0.489567 0.976162 0.587636 0.000000
C372  C     C_R   0.485191 0.953395 0.632795 0.000000
N125  N     N_R   0.497859 0.883800 0.656851 0.000000
C373  C     C_R   0.520933 0.898024 0.690574 0.000000
C374  C     C_R   0.540637 0.853107 0.726572 0.000000
C375  C     C_R   0.559750 0.880865 0.756541 0.000000
C376  C     C_R   0.560701 0.952766 0.751817 0.000000
C377  C     C_R   0.532788 0.997151 0.717873 0.000000
C378  C     C_R   0.515943 0.968648 0.687528 0.000000
N126  N     N_R   0.489449 0.005113 0.652680 0.000000
H411  H     H_    0.635196 0.958881 0.510290 0.000000
H412  H     H_    0.531873 0.006264 0.512591 0.000000
H413  H     H_    0.625836 0.037020 0.528706 0.000000
H414  H     H_    0.617635 0.946726 0.585436 0.000000
H415  H     H_    0.496920 0.034893 0.577704 0.000000
H416  H     H_    0.428616 0.964077 0.577916 0.000000
H417  H     H_    0.530672 0.797755 0.735532 0.000000
H418  H     H_    0.560173 0.845190 0.785869 0.000000
H419  H     H_    0.570362 0.973657 0.776688 0.000000
H420  H     H_    0.518975 0.051452 0.717385 0.000000
C379  C     C_3   0.729702 0.615501 0.659456 0.000000
N127  N     N_3   0.690273 0.671331 0.629803 0.000000
C380  C     C_3   0.630064 0.637374 0.613172 0.000000
C381  C     C_R   0.575235 0.691567 0.588373 0.000000
N128  N     N_R   0.529636 0.746403 0.601613 0.000000
C382  C     C_R   0.503963 0.786390 0.566651 0.000000
C383  C     C_R   0.443388 0.840156 0.562195 0.000000
C384  C     C_R   0.432753 0.878915 0.522830 0.000000
C385  C     C_R   0.485651 0.864341 0.489795 0.000000
C386  C     C_R   0.539074 0.804335 0.495588 0.000000
C387  C     C_R   0.536351 0.760221 0.534653 0.000000
N129  N     N_R   0.572543 0.694702 0.547924 0.000000
H421  H     H_    0.774053 0.640309 0.673856 0.000000
H422  H     H_    0.679401 0.586417 0.683849 0.000000
H423  H     H_    0.765376 0.577497 0.644110 0.000000
H424  H     H_    0.739110 0.694134 0.605949 0.000000
H425  H     H_    0.668340 0.608044 0.593364 0.000000
H426  H     H_    0.589642 0.599596 0.637690 0.000000
H427  H     H_    0.405013 0.850742 0.588724 0.000000
H428  H     H_    0.387096 0.923226 0.517867 0.000000
H429  H     H_    0.482720 0.898471 0.459286 0.000000
H430  H     H_    0.581225 0.793587 0.470133 0.000000
C388  C     C_3   0.680193 0.370664 0.560252 0.000000
N130  N     N_3   0.734433 0.431243 0.539399 0.000000
C389  C     C_3   0.741960 0.470961 0.568207 0.000000
C390  C     C_R   0.785757 0.537822 0.545719 0.000000
N131  N     N_R   0.871608 0.551907 0.548268 0.000000
C391  C     C_R   0.876183 0.622445 0.528111 0.000000
C392  C     C_R   0.942492 0.669171 0.524124 0.000000
C393  C     C_R   0.932010 0.739864 0.502681 0.000000
C394  C     C_R   0.854937 0.763436 0.486706 0.000000
C395  C     C_R   0.786988 0.716610 0.492367 0.000000
C396  C     C_R   0.799645 0.646649 0.513029 0.000000
N132  N     N_R   0.740254 0.594561 0.523546 0.000000
H431  H     H_    0.680849 0.337177 0.539223 0.000000
H432  H     H_    0.705083 0.340356 0.588740 0.000000
H433  H     H_    0.613300 0.389374 0.567888 0.000000
H434  H     H_    0.700513 0.463181 0.516908 0.000000
H435  H     H_    0.677399 0.482652 0.582515 0.000000
H436  H     H_    0.777370 0.441345 0.593026 0.000000
H437  H     H_    0.000694 0.651843 0.537580 0.000000
H438  H     H_    0.984035 0.777303 0.498698 0.000000
H439  H     H_    0.847504 0.818887 0.470361 0.000000
H440  H     H_    0.726047 0.734589 0.480874 0.000000

loop_
_geom_bond_atom_site_label_1
_geom_bond_atom_site_label_2
_geom_bond_distance
_geom_bond_site_symmetry_2
_ccdc_geom_bond_type
Zn1   N3    2.114 .      S
Zn1   N6    2.104 .      S
Zn1   N102  2.152 .      S
Zn1   N107  2.093 .      S
Zn2   N2    2.173 .      S
Zn2   N105  2.146 .      S
Zn2   N114  2.179 .      S
Zn2   N126  2.028 .      S
Zn3   N5    2.051 .      S
Zn3   N117  2.106 1_655  S
Zn3   N122  2.166 1_655  S
Zn3   N131  2.154 .      S
Zn4   N8    2.105 .      S
Zn4   N11   2.143 .      S
Zn4   N14   2.152 .      S
Zn4   N18   2.202 .      S
Zn5   N9    2.149 .      S
Zn5   N20   2.132 .      S
Zn5   N24   2.149 .      S
Zn5   N26   2.169 .      S
Zn6   N12   2.116 .      S
Zn6   N27   2.132 .      S
Zn6   N30   2.201 .      S
Zn6   N33   2.205 1_554  S
Zn7   N15   2.158 1_556  S
Zn7   N35   2.104 .      S
Zn7   N39   2.178 .      S
Zn7   N41   2.043 .      S
Zn8   N17   2.202 .      S
Zn8   N44   2.175 1_655  S
Zn8   N47   2.121 .      S
Zn8   N51   1.996 .      S
Zn9   N29   2.154 .      S
Zn9   N42   2.016 .      S
Zn9   N54   2.058 1_556  S
Zn9   N56   2.249 .      S
Zn10  N32   2.176 .      S
Zn10  N60   2.174 .      S
Zn10  N62   1.982 .      S
Zn10  N65   2.063 .      S
Zn11  N21   2.183 .      S
Zn11  N45   2.188 .      S
Zn11  N68   2.107 .      S
Zn11  N72   2.071 .      S
Zn12  N23   2.076 1_565  S
Zn12  N74   2.141 .      S
Zn12  N77   2.203 .      S
Zn12  N81   2.136 .      S
Zn13  N50   2.113 .      S
Zn13  N69   2.122 .      S
Zn13  N75   2.207 .      S
Zn13  N83   2.067 .      S
Zn14  N48   2.061 .      S
Zn14  N53   2.099 .      S
Zn14  N78   2.174 .      S
Zn14  N87   2.217 .      S
Zn15  N36   2.171 1_544  S
Zn15  N80   2.155 .      S
Zn15  N86   2.262 .      S
Zn15  N89   2.157 1_554  S
Zn16  N38   2.140 .      S
Zn16  N92   2.151 .      S
Zn16  N96   2.144 .      S
Zn16  N99   2.084 .      S
Zn17  N57   2.128 1_545  S
Zn17  N59   2.080 .      S
Zn17  N101  2.199 .      S
Zn17  N104  2.014 .      S
Zn18  N63   2.052 .      S
Zn18  N90   2.181 .      S
Zn18  N95   2.196 .      S
Zn18  N108  2.115 .      S
Zn19  N71   2.091 .      S
Zn19  N110  2.071 .      S
Zn19  N113  2.177 .      S
Zn19  N116  2.056 .      S
Zn20  N66   2.199 .      S
Zn20  N98   2.066 .      S
Zn20  N119  2.208 .      S
Zn20  N123  2.155 .      S
Zn21  N93   2.107 .      S
Zn21  N120  2.195 .      S
Zn21  N125  2.170 .      S
Zn21  N128  2.153 .      S
Zn22  N84   2.021 .      S
Zn22  N111  2.133 .      S
Zn22  N129  2.162 .      S
Zn22  N132  2.113 .      S
C1    N1    1.445 1_565  S
C1    H1    1.108 .      S
C1    H2    1.108 .      S
C1    H3    1.108 .      S
N1    C1    1.445 1_545  S
N1    C2    1.448 .      S
N1    H4    1.040 .      S
C2    C3    1.489 .      S
C2    H5    1.106 .      S
C2    H6    1.093 .      S
C5    H7    1.065 .      S
C6    H8    1.072 .      S
C7    H9    1.081 .      S
C8    H10   1.070 .      S
C10   N4    1.450 .      S
C10   H11   1.078 .      S
C10   H12   1.092 .      S
C10   H13   1.088 .      S
N4    C11   1.455 1_455  S
N4    H14   1.031 .      S
C11   N4    1.455 1_655  S
C11   C12   1.438 .      S
C11   H15   1.097 .      S
C11   H16   1.106 .      S
C14   H17   1.080 .      S
C15   H18   1.081 .      S
C16   H19   1.081 .      S
C17   H20   1.063 .      S
C19   N7    1.453 .      S
C19   H21   1.109 .      S
C19   H22   1.108 .      S
C19   H23   1.108 .      S
N7    C20   1.455 .      S
N7    H24   1.044 .      S
C20   C21   1.493 .      S
C20   H25   1.100 .      S
C20   H26   1.106 .      S
C23   H27   1.072 .      S
C24   H28   1.077 .      S
C25   H29   1.076 .      S
C26   H30   1.064 .      S
C28   N10   1.458 .      S
C28   H31   1.109 .      S
C28   H32   1.103 .      S
C28   H33   1.105 .      S
N10   C29   1.456 .      S
N10   H34   1.042 .      S
C29   C30   1.496 .      S
C29   H35   1.104 .      S
C29   H36   1.107 .      S
C32   H37   1.067 .      S
C33   H38   1.031 1_455  S
C34   H39   1.067 .      S
C35   H40   1.055 .      S
H38   C33   1.031 1_655  S
C37   N13   1.450 .      S
C37   H41   1.104 .      S
C37   H42   1.106 .      S
C37   H43   1.102 .      S
N13   C38   1.460 1_556  S
N13   H44   1.031 .      S
C38   N13   1.460 1_554  S
C38   C39   1.473 .      S
C38   H45   1.100 .      S
C38   H46   1.087 .      S
C41   H47   1.070 .      S
C42   H48   1.055 .      S
C43   H49   1.073 .      S
C44   H50   1.068 .      S
N15   Zn7   2.158 1_554  S
C46   N16   1.445 .      S
C46   H51   1.088 .      S
C46   H52   1.080 .      S
C46   H53   1.107 .      S
N16   C47   1.446 .      S
N16   H54   1.039 .      S
C47   C48   1.476 .      S
C47   H55   1.105 .      S
C47   H56   1.092 .      S
C50   H57   1.060 1_655  S
C51   H58   1.081 1_655  S
C52   H59   1.080 .      S
C53   H60   1.077 .      S
H57   C50   1.060 1_455  S
H58   C51   1.081 1_455  S
C55   N19   1.439 .      S
C55   H61   1.095 .      S
C55   H62   1.101 .      S
C55   H63   1.105 .      S
N19   C56   1.437 .      S
N19   H64   1.034 .      S
C56   C57   1.453 .      S
C56   H65   1.094 .      S
C56   H66   1.105 .      S
C59   H67   1.073 .      S
C60   H68   1.081 .      S
C61   H69   1.081 .      S
C62   H70   1.068 .      S
C64   N22   1.455 .      S
C64   H71   1.109 .      S
C64   H72   1.108 .      S
C64   H73   1.107 .      S
N22   C65   1.455 .      S
N22   H74   1.043 .      S
C65   C66   1.493 .      S
C65   H75   1.104 .      S
C65   H76   1.104 .      S
N23   Zn12  2.076 1_545  S
C68   H77   1.072 .      S
C69   H78   1.065 .      S
C70   H79   1.068 .      S
C71   H80   1.027 .      S
C73   N25   1.440 .      S
C73   H81   1.098 .      S
C73   H82   1.100 .      S
C73   H83   1.096 .      S
N25   C74   1.438 .      S
N25   H84   1.037 .      S
C74   C75   1.461 .      S
C74   H85   1.100 .      S
C74   H86   1.095 .      S
C77   H87   1.068 .      S
C78   H88   1.081 .      S
C79   H89   1.077 .      S
C80   H90   1.072 .      S
C82   N28   1.443 .      S
C82   H91   1.105 .      S
C82   H92   1.104 .      S
C82   H93   1.098 .      S
N28   C83   1.443 .      S
N28   H94   1.029 .      S
C83   C84   1.484 .      S
C83   H95   1.094 .      S
C83   H96   1.085 .      S
C86   H97   1.080 .      S
C87   H98   1.077 .      S
C88   H99   1.051 .      S
C89   H100  1.058 .      S
C91   N31   1.452 1_554  S
C91   H101  1.107 .      S
C91   H102  1.101 1_554  S
C91   H103  1.102 .      S
N31   C91   1.452 1_556  S
N31   C92   1.444 .      S
N31   H104  1.038 .      S
C92   C93   1.466 .      S
C92   H105  1.108 .      S
C92   H106  1.097 .      S
C95   H107  1.071 .      S
C96   H108  1.072 .      S
C97   H109  1.074 .      S
C98   H110  1.054 1_455  S
N33   Zn6   2.205 1_556  S
H102  C91   1.101 1_556  S
H110  C98   1.054 1_655  S
C100  N34   1.450 .      S
C100  H111  1.097 .      S
C100  H112  1.105 .      S
C100  H113  1.093 .      S
N34   C101  1.452 .      S
N34   H114  1.037 .      S
C101  C102  1.488 1_554  S
C101  H115  1.085 .      S
C101  H116  1.085 .      S
C102  C101  1.488 1_556  S
C104  H117  1.078 .      S
C105  H118  1.066 .      S
C106  H119  1.073 .      S
C107  H120  1.077 1_565  S
N36   Zn15  2.171 1_566  S
H120  C107  1.077 1_545  S
C109  N37   1.447 .      S
C109  H121  1.102 .      S
C109  H122  1.109 .      S
C109  H123  1.103 .      S
N37   C110  1.451 .      S
N37   H124  1.044 .      S
C110  C111  1.455 .      S
C110  H125  1.103 .      S
C110  H126  1.106 .      S
C113  H127  1.064 .      S
C114  H128  1.064 .      S
C115  H129  1.080 .      S
C116  H130  1.058 .      S
C118  N40   1.446 .      S
C118  H131  1.103 .      S
C118  H132  1.103 .      S
C118  H133  1.105 .      S
N40   C119  1.439 .      S
N40   H134  1.037 .      S
C119  C120  1.470 .      S
C119  H135  1.104 .      S
C119  H136  1.095 .      S
C122  H137  1.061 .      S
C123  H138  1.071 1_565  S
C124  H139  1.077 1_565  S
C125  H140  1.057 .      S
H138  C123  1.071 1_545  S
H139  C124  1.077 1_545  S
C127  N43   1.435 .      S
C127  H141  1.093 .      S
C127  H142  1.100 .      S
C127  H143  1.095 .      S
N43   C128  1.442 .      S
N43   H144  1.035 .      S
C128  C129  1.483 .      S
C128  H145  1.103 .      S
C128  H146  1.103 .      S
N44   Zn8   2.175 1_455  S
C131  H147  1.071 .      S
C132  H148  1.081 .      S
C133  H149  1.081 .      S
C134  H150  1.066 .      S
C136  N46   1.455 .      S
C136  H151  1.098 .      S
C136  H152  1.091 .      S
C136  H153  1.099 .      S
N46   C137  1.438 .      S
N46   H154  1.034 .      S
C137  C138  1.458 .      S
C137  H155  1.095 .      S
C137  H156  1.083 .      S
C140  H157  1.061 .      S
C141  H158  1.075 .      S
C142  H159  1.081 1_565  S
C143  H160  1.073 1_655  S
H159  C142  1.081 1_545  S
H160  C143  1.073 1_455  S
C145  N49   1.453 .      S
C145  H161  1.101 .      S
C145  H162  1.109 .      S
C145  H163  1.109 .      S
N49   C146  1.443 .      S
N49   H164  1.038 .      S
C146  C147  1.481 .      S
C146  H165  1.098 .      S
C146  H166  1.084 .      S
C149  H167  1.059 .      S
C150  H168  1.081 .      S
C151  H169  1.081 .      S
C152  H170  1.074 .      S
C154  N52   1.427 1_545  S
C154  H171  1.102 .      S
C154  H172  1.097 1_545  S
C154  H173  1.102 .      S
N52   C154  1.427 1_565  S
N52   C155  1.433 .      S
N52   H174  1.041 .      S
C155  C156  1.447 .      S
C155  H175  1.096 1_554  S
C155  H176  1.099 .      S
C158  H177  1.070 .      S
C159  H178  1.055 .      S
C160  H179  1.069 .      S
C161  H180  1.065 1_554  S
N54   Zn9   2.058 1_554  S
H172  C154  1.097 1_565  S
H175  C155  1.096 1_556  S
H180  C161  1.065 1_556  S
C163  N55   1.454 1_545  S
C163  H181  1.105 1_545  S
C163  H182  1.109 .      S
C163  H183  1.103 .      S
N55   C163  1.454 1_565  S
N55   C164  1.453 .      S
N55   H184  1.043 .      S
C164  C165  1.486 .      S
C164  H185  1.090 1_565  S
C164  H186  1.099 1_565  S
C167  H187  1.067 .      S
C168  H188  1.078 .      S
C169  H189  1.075 1_455  S
C170  H190  1.071 .      S
N57   Zn17  2.128 1_565  S
H181  C163  1.105 1_565  S
H185  C164  1.090 1_545  S
H186  C164  1.099 1_545  S
H189  C169  1.075 1_655  S
C172  N58   1.455 .      S
C172  H191  1.102 .      S
C172  H192  1.101 .      S
C172  H193  1.106 .      S
N58   C173  1.443 .      S
N58   H194  1.040 .      S
C173  C174  1.481 .      S
C173  H195  1.095 .      S
C173  H196  1.099 .      S
C176  H197  1.061 .      S
C177  H198  1.064 .      S
C178  H199  1.065 .      S
C179  H200  1.075 .      S
C181  N61   1.447 .      S
C181  H201  1.104 .      S
C181  H202  1.107 .      S
C181  H203  1.087 .      S
N61   C182  1.443 .      S
N61   H204  1.038 .      S
C182  C183  1.487 .      S
C182  H205  1.082 .      S
C182  H206  1.092 .      S
C185  H207  1.071 .      S
C186  H208  1.067 .      S
C187  H209  1.079 .      S
C188  H210  1.050 .      S
C190  N64   1.435 .      S
C190  H211  1.064 1_455  S
C190  H212  1.106 .      S
C190  H213  1.089 1_455  S
N64   C191  1.433 .      S
N64   H214  1.037 .      S
C191  C192  1.452 .      S
C191  H215  1.097 .      S
C191  H216  1.092 .      S
C194  H217  1.071 .      S
C195  H218  1.073 .      S
C196  H219  1.059 .      S
C197  H220  1.045 .      S
H211  C190  1.064 1_655  S
H213  C190  1.089 1_655  S
C199  N67   1.454 .      S
C199  H221  1.104 .      S
C199  H222  1.106 .      S
C199  H223  1.104 .      S
N67   C200  1.454 .      S
N67   H224  1.027 .      S
C200  C201  1.483 .      S
C200  H225  1.108 .      S
C200  H226  1.102 .      S
C203  H227  1.060 .      S
C204  H228  1.072 .      S
C205  H229  1.064 .      S
C206  H230  1.080 .      S
C208  N70   1.460 .      S
C208  H231  1.109 .      S
C208  H232  1.104 .      S
C208  H233  1.106 .      S
N70   C209  1.451 .      S
N70   H234  1.044 .      S
C209  C210  1.489 .      S
C209  H235  1.096 .      S
C209  H236  1.085 .      S
C212  H237  1.076 .      S
C213  H238  1.081 .      S
C214  H239  1.081 .      S
C215  H240  1.076 .      S
C217  N73   1.454 .      S
C217  H241  1.105 .      S
C217  H242  1.106 .      S
C217  H243  1.104 .      S
N73   C218  1.456 .      S
N73   H244  1.044 .      S
C218  C219  1.482 .      S
C218  H245  1.098 .      S
C218  H246  1.101 .      S
C221  H247  1.078 .      S
C222  H248  1.081 .      S
C223  H249  1.081 .      S
C224  H250  1.068 .      S
C226  N76   1.450 .      S
C226  H251  1.109 .      S
C226  H252  1.106 .      S
C226  H253  1.109 .      S
N76   C227  1.452 .      S
N76   H254  1.039 .      S
C227  C228  1.492 1_545  S
C227  H255  1.103 .      S
C227  H256  1.103 .      S
C228  C227  1.492 1_565  S
C230  H257  1.044 .      S
C231  H258  1.071 .      S
C232  H259  1.070 .      S
C233  H260  1.068 .      S
C235  N79   1.452 .      S
C235  H261  1.104 .      S
C235  H262  1.105 .      S
C235  H263  1.100 .      S
N79   C236  1.453 .      S
N79   H264  1.044 .      S
C236  C237  1.480 .      S
C236  H265  1.079 .      S
C236  H266  1.104 .      S
C239  H267  1.042 .      S
C240  H268  1.080 .      S
C241  H269  1.063 .      S
C242  H270  1.060 .      S
C244  N82   1.455 .      S
C244  H271  1.109 .      S
C244  H272  1.109 .      S
C244  H273  1.109 .      S
N82   C245  1.448 .      S
N82   H274  1.030 .      S
C245  C246  1.508 .      S
C245  H275  1.105 .      S
C245  H276  1.092 .      S
C248  H277  1.079 .      S
C249  H278  1.081 .      S
C250  H279  1.081 .      S
C251  H280  1.079 .      S
C253  N85   1.443 .      S
C253  H281  1.082 .      S
C253  H282  1.094 .      S
C253  H283  1.100 .      S
N85   C254  1.422 .      S
N85   H284  1.041 .      S
C254  C255  1.420 .      S
C254  H285  1.088 .      S
C254  H286  1.076 .      S
C257  H287  1.053 .      S
C258  H288  1.079 .      S
C259  H289  1.081 .      S
C260  H290  1.070 .      S
C262  N88   1.446 .      S
C262  H291  1.098 .      S
C262  H292  1.103 1_545  S
C262  H293  1.097 .      S
N88   C263  1.440 .      S
N88   H294  1.040 .      S
C263  C264  1.474 .      S
C263  H295  1.106 .      S
C263  H296  1.102 .      S
N89   Zn15  2.157 1_556  S
C266  H297  1.075 .      S
C267  H298  1.072 .      S
C268  H299  1.051 .      S
C269  H300  1.068 .      S
H292  C262  1.103 1_565  S
C271  N91   1.449 .      S
C271  H301  1.108 .      S
C271  H302  1.108 .      S
C271  H303  1.090 .      S
N91   C272  1.451 .      S
N91   H304  1.030 .      S
C272  C273  1.486 .      S
C272  H305  1.098 .      S
C272  H306  1.097 .      S
C275  H307  1.066 .      S
C276  H308  1.079 .      S
C277  H309  1.081 .      S
C278  H310  1.079 .      S
C280  N94   1.460 .      S
C280  H311  1.089 .      S
C280  H312  1.096 .      S
C280  H313  1.091 .      S
N94   C281  1.450 .      S
N94   H314  1.033 .      S
C281  C282  1.437 .      S
C281  H315  1.086 .      S
C281  H316  1.095 .      S
C284  H317  1.073 .      S
C285  H318  1.068 .      S
C286  H319  1.080 .      S
C287  H320  1.077 .      S
C289  N97   1.453 .      S
C289  H321  1.106 .      S
C289  H322  1.109 .      S
C289  H323  1.109 .      S
N97   C290  1.454 1_455  S
N97   H324  1.042 .      S
C290  N97   1.454 1_655  S
C290  C291  1.483 .      S
C290  H325  1.103 .      S
C290  H326  1.102 .      S
C293  H327  1.066 1_655  S
C294  H328  1.047 .      S
C295  H329  1.081 .      S
C296  H330  1.058 .      S
H327  C293  1.066 1_455  S
C298  N100  1.457 1_565  S
C298  H331  1.107 .      S
C298  H332  1.105 .      S
C298  H333  1.107 .      S
N100  C298  1.457 1_545  S
N100  C299  1.460 .      S
N100  H334  1.042 .      S
C299  C300  1.475 .      S
C299  H335  1.099 .      S
C299  H336  1.103 .      S
C302  H337  1.072 1_545  S
C303  H338  1.080 .      S
C304  H339  1.080 .      S
C305  H340  1.070 1_455  S
H337  C302  1.072 1_565  S
H340  C305  1.070 1_655  S
C307  N103  1.451 .      S
C307  H341  1.108 .      S
C307  H342  1.098 .      S
C307  H343  1.097 .      S
N103  C308  1.453 .      S
N103  H344  1.038 .      S
C308  C309  1.491 1_565  S
C308  H345  1.094 .      S
C308  H346  1.106 .      S
C309  C308  1.491 1_545  S
C311  H347  1.071 .      S
C312  H348  1.065 .      S
C313  H349  1.064 .      S
C314  H350  1.046 .      S
C316  N106  1.434 .      S
C316  H351  1.094 .      S
C316  H352  1.106 .      S
C316  H353  1.099 .      S
N106  C317  1.425 .      S
N106  H354  1.037 .      S
C317  C318  1.463 .      S
C317  H355  1.107 .      S
C317  H356  1.108 .      S
C320  H357  1.070 .      S
C321  H358  1.080 1_655  S
C322  H359  1.063 .      S
C323  H360  1.072 .      S
H358  C321  1.080 1_455  S
C325  N109  1.448 .      S
C325  H361  1.107 .      S
C325  H362  1.106 .      S
C325  H363  1.100 .      S
N109  C326  1.455 .      S
N109  H364  1.041 .      S
C326  C327  1.479 .      S
C326  H365  1.083 .      S
C326  H366  1.107 .      S
C329  H367  1.079 .      S
C330  H368  1.053 .      S
C331  H369  1.080 .      S
C332  H370  1.059 .      S
C334  N112  1.457 .      S
C334  H371  1.109 .      S
C334  H372  1.108 .      S
C334  H373  1.108 .      S
N112  C335  1.459 .      S
N112  H374  1.041 .      S
C335  C336  1.462 .      S
C335  H375  1.101 .      S
C335  H376  1.107 .      S
C338  H377  1.080 .      S
C339  H378  1.081 .      S
C340  H379  1.081 .      S
C341  H380  1.078 .      S
C343  N115  1.453 .      S
C343  H381  1.097 .      S
C343  H382  1.109 .      S
C343  H383  1.104 .      S
N115  C344  1.449 .      S
N115  H384  1.038 .      S
C344  C345  1.492 .      S
C344  H385  1.090 .      S
C344  H386  1.099 .      S
C347  H387  1.066 .      S
C348  H388  1.074 .      S
C349  H389  1.079 .      S
C350  H390  1.070 .      S
N117  Zn3   2.106 1_455  S
C352  N118  1.464 .      S
C352  H391  1.103 .      S
C352  H392  1.093 .      S
C352  H393  1.081 .      S
N118  C353  1.440 .      S
N118  H394  1.039 .      S
C353  C354  1.456 .      S
C353  H395  1.109 .      S
C353  H396  1.097 .      S
C356  H397  1.046 .      S
C357  H398  1.073 .      S
C358  H399  1.080 .      S
C359  H400  1.057 .      S
C361  N121  1.456 1_455  S
C361  H401  1.107 .      S
C361  H402  1.109 1_455  S
C361  H403  1.108 .      S
N121  C361  1.456 1_655  S
N121  C362  1.454 .      S
N121  H404  1.040 .      S
C362  C363  1.474 1_655  S
C362  H405  1.101 .      S
C362  H406  1.096 .      S
C363  C362  1.474 1_455  S
N122  Zn3   2.166 1_455  S
C365  H407  1.060 .      S
C366  H408  1.076 .      S
C367  H409  1.052 .      S
C368  H410  1.070 .      S
H402  C361  1.109 1_655  S
C370  N124  1.454 .      S
C370  H411  1.109 .      S
C370  H412  1.109 1_565  S
C370  H413  1.109 1_565  S
N124  C371  1.454 .      S
N124  H414  1.044 .      S
C371  C372  1.485 .      S
C371  H415  1.108 1_565  S
C371  H416  1.101 .      S
C374  H417  1.051 .      S
C375  H418  1.055 .      S
C376  H419  1.078 .      S
C377  H420  1.068 1_565  S
H412  C370  1.109 1_545  S
H413  C370  1.109 1_545  S
H415  C371  1.108 1_545  S
H420  C377  1.068 1_545  S
C379  N127  1.448 .      S
C379  H421  1.103 .      S
C379  H422  1.103 .      S
C379  H423  1.109 .      S
N127  C380  1.436 .      S
N127  H424  1.043 .      S
C380  C381  1.478 .      S
C380  H425  1.101 .      S
C380  H426  1.090 .      S
C383  H427  1.079 .      S
C384  H428  1.081 .      S
C385  H429  1.081 .      S
C386  H430  1.077 .      S
C388  N130  1.436 .      S
C388  H431  1.103 .      S
C388  H432  1.106 .      S
C388  H433  1.099 .      S
N130  C389  1.440 .      S
N130  H434  1.039 .      S
C389  C390  1.459 .      S
C389  H435  1.089 .      S
C389  H436  1.092 .      S
C392  H437  1.069 1_655  S
C393  H438  1.081 .      S
C394  H439  1.081 .      S
C395  H440  1.079 .      S
H437  C392  1.069 1_455  S
C3    N2    1.401 .      A
C3    N3    1.394 .      A
N2    C4    1.346 .      A
C4    C5    1.362 .      A
C4    C9    1.362 .      A
C5    C6    1.381 .      A
C6    C7    1.380 .      A
C7    C8    1.372 .      A
C8    C9    1.376 .      A
C9    N3    1.341 .      A
C12   N5    1.365 .      A
C12   N6    1.378 .      A
N5    C13   1.340 .      A
C13   C14   1.372 .      A
C13   C18   1.362 .      A
C14   C15   1.384 .      A
C15   C16   1.389 .      A
C16   C17   1.386 .      A
C17   C18   1.368 .      A
C18   N6    1.355 .      A
C21   N8    1.398 .      A
C21   N9    1.394 .      A
N8    C22   1.333 .      A
C22   C23   1.365 .      A
C22   C27   1.359 .      A
C23   C24   1.367 .      A
C24   C25   1.384 .      A
C25   C26   1.381 .      A
C26   C27   1.360 .      A
C27   N9    1.346 .      A
C30   N11   1.393 .      A
C30   N12   1.409 1_655  A
N11   C31   1.315 .      A
C31   C32   1.302 .      A
C31   C36   1.330 1_655  A
C32   C33   1.349 1_655  A
C33   C32   1.349 1_455  A
C33   C34   1.363 .      A
C34   C35   1.356 .      A
C35   C36   1.355 .      A
C36   C31   1.330 1_455  A
C36   N12   1.316 .      A
N12   C30   1.409 1_455  A
C39   N14   1.385 .      A
C39   N15   1.400 .      A
N14   C40   1.327 .      A
C40   C41   1.337 .      A
C40   C45   1.366 .      A
C41   C42   1.369 .      A
C42   C43   1.383 .      A
C43   C44   1.370 .      A
C44   C45   1.357 .      A
C45   N15   1.337 .      A
C48   N17   1.396 .      A
C48   N18   1.402 .      A
N17   C49   1.361 .      A
C49   C50   1.373 .      A
C49   C54   1.370 .      A
C50   C51   1.383 .      A
C51   C52   1.383 .      A
C52   C53   1.379 .      A
C53   C54   1.370 .      A
C54   N18   1.339 .      A
C57   N20   1.378 .      A
C57   N21   1.392 .      A
N20   C58   1.347 .      A
C58   C59   1.373 .      A
C58   C63   1.375 .      A
C59   C60   1.381 .      A
C60   C61   1.383 .      A
C61   C62   1.382 .      A
C62   C63   1.380 .      A
C63   N21   1.360 .      A
C66   N23   1.396 .      A
C66   N24   1.394 .      A
N23   C67   1.335 .      A
C67   C68   1.376 .      A
C67   C72   1.348 .      A
C68   C69   1.370 .      A
C69   C70   1.360 .      A
C70   C71   1.357 .      A
C71   C72   1.356 .      A
C72   N24   1.352 .      A
C75   N26   1.404 .      A
C75   N27   1.380 .      A
N26   C76   1.347 .      A
C76   C77   1.369 .      A
C76   C81   1.368 .      A
C77   C78   1.379 .      A
C78   C79   1.385 .      A
C79   C80   1.386 .      A
C80   C81   1.368 .      A
C81   N27   1.348 .      A
C84   N29   1.392 1_554  A
C84   N30   1.404 .      A
N29   C84   1.392 1_556  A
N29   C85   1.333 .      A
C85   C86   1.359 .      A
C85   C90   1.360 .      A
C86   C87   1.378 .      A
C87   C88   1.374 .      A
C88   C89   1.358 .      A
C89   C90   1.340 .      A
C90   N30   1.334 1_556  A
N30   C90   1.334 1_554  A
C93   N32   1.398 .      A
C93   N33   1.399 .      A
N32   C94   1.331 .      A
C94   C95   1.350 .      A
C94   C99   1.359 .      A
C95   C96   1.369 1_455  A
C96   C95   1.369 1_655  A
C96   C97   1.378 .      A
C97   C98   1.375 1_655  A
C98   C97   1.375 1_455  A
C98   C99   1.368 .      A
C99   N33   1.356 .      A
C102  N35   1.393 .      A
C102  N36   1.394 .      A
N35   C103  1.338 .      A
C103  C104  1.364 .      A
C103  C108  1.370 .      A
C104  C105  1.374 .      A
C105  C106  1.383 .      A
C106  C107  1.382 .      A
C107  C108  1.363 .      A
C108  N36   1.351 .      A
C111  N38   1.389 .      A
C111  N39   1.393 .      A
N38   C112  1.343 .      A
C112  C113  1.368 .      A
C112  C117  1.354 .      A
C113  C114  1.381 .      A
C114  C115  1.369 .      A
C115  C116  1.369 .      A
C116  C117  1.358 .      A
C117  N39   1.344 .      A
C120  N41   1.368 .      A
C120  N42   1.378 .      A
N41   C121  1.353 .      A
C121  C122  1.371 .      A
C121  C126  1.343 .      A
C122  C123  1.381 .      A
C123  C124  1.372 .      A
C124  C125  1.370 .      A
C125  C126  1.339 .      A
C126  N42   1.322 .      A
C129  N44   1.393 .      A
C129  N45   1.405 .      A
N44   C130  1.347 .      A
C130  C131  1.374 1_455  A
C130  C135  1.367 .      A
C131  C130  1.374 1_655  A
C131  C132  1.383 .      A
C132  C133  1.387 1_655  A
C133  C132  1.387 1_455  A
C133  C134  1.384 .      A
C134  C135  1.369 .      A
C135  N45   1.351 .      A
C138  N47   1.364 1_455  A
C138  N48   1.390 .      A
N47   C138  1.364 1_655  A
N47   C139  1.364 .      A
C139  C140  1.375 .      A
C139  C144  1.361 1_655  A
C140  C141  1.381 .      A
C141  C142  1.379 .      A
C142  C143  1.375 .      A
C143  C144  1.372 1_655  A
C144  C139  1.361 1_455  A
C144  C143  1.372 1_455  A
C144  N48   1.336 .      A
C147  N50   1.394 .      A
C147  N51   1.364 .      A
N50   C148  1.364 .      A
C148  C149  1.370 .      A
C148  C153  1.359 .      A
C149  C150  1.386 .      A
C150  C151  1.386 .      A
C151  C152  1.380 .      A
C152  C153  1.371 .      A
C153  N51   1.332 .      A
C156  N53   1.375 .      A
C156  N54   1.383 .      A
N53   C157  1.335 .      A
C157  C158  1.346 .      A
C157  C162  1.351 .      A
C158  C159  1.355 1_455  A
C159  C158  1.355 1_655  A
C159  C160  1.373 1_655  A
C160  C159  1.373 1_455  A
C160  C161  1.351 .      A
C161  C162  1.350 .      A
C162  N54   1.321 .      A
C165  N56   1.406 .      A
C165  N57   1.392 .      A
N56   C166  1.360 .      A
C166  C167  1.365 .      A
C166  C171  1.371 .      A
C167  C168  1.384 .      A
C168  C169  1.383 .      A
C169  C170  1.371 .      A
C170  C171  1.367 .      A
C171  N57   1.332 .      A
C174  N59   1.372 .      A
C174  N60   1.400 .      A
N59   C175  1.333 .      A
C175  C176  1.354 1_455  A
C175  C180  1.358 .      A
C176  C175  1.354 1_655  A
C176  C177  1.371 .      A
C177  C178  1.375 .      A
C178  C179  1.374 1_655  A
C179  C178  1.374 1_455  A
C179  C180  1.362 .      A
C180  N60   1.344 .      A
C183  N62   1.372 .      A
C183  N63   1.384 .      A
N62   C184  1.325 .      A
C184  C185  1.362 .      A
C184  C189  1.351 .      A
C185  C186  1.360 .      A
C186  C187  1.384 .      A
C187  C188  1.379 .      A
C188  C189  1.374 .      A
C189  N63   1.358 .      A
C192  N65   1.375 .      A
C192  N66   1.401 .      A
N65   C193  1.323 .      A
C193  C194  1.352 .      A
C193  C198  1.351 .      A
C194  C195  1.367 .      A
C195  C196  1.371 .      A
C196  C197  1.366 .      A
C197  C198  1.344 .      A
C198  N66   1.347 .      A
C201  N68   1.392 .      A
C201  N69   1.395 .      A
N68   C202  1.334 .      A
C202  C203  1.352 .      A
C202  C207  1.359 .      A
C203  C204  1.367 .      A
C204  C205  1.377 .      A
C205  C206  1.377 .      A
C206  C207  1.357 .      A
C207  N69   1.336 .      A
C210  N71   1.401 .      A
C210  N72   1.368 .      A
N71   C211  1.344 .      A
C211  C212  1.372 .      A
C211  C216  1.363 .      A
C212  C213  1.384 .      A
C213  C214  1.390 .      A
C214  C215  1.385 .      A
C215  C216  1.373 .      A
C216  N72   1.351 .      A
C219  N74   1.395 .      A
C219  N75   1.397 .      A
N74   C220  1.339 .      A
C220  C221  1.369 1_565  A
C220  C225  1.368 .      A
C221  C220  1.369 1_545  A
C221  C222  1.380 .      A
C222  C223  1.387 1_545  A
C223  C222  1.387 1_565  A
C223  C224  1.385 .      A
C224  C225  1.373 .      A
C225  N75   1.358 .      A
C228  N77   1.403 .      A
C228  N78   1.407 .      A
N77   C229  1.327 .      A
C229  C230  1.336 .      A
C229  C234  1.356 .      A
C230  C231  1.354 .      A
C231  C232  1.377 .      A
C232  C233  1.378 .      A
C233  C234  1.366 .      A
C234  N78   1.343 .      A
C237  N80   1.398 .      A
C237  N81   1.393 1_545  A
N80   C238  1.339 1_545  A
C238  N80   1.339 1_565  A
C238  C239  1.348 .      A
C238  C243  1.351 .      A
C239  C240  1.373 .      A
C240  C241  1.371 .      A
C241  C242  1.364 .      A
C242  C243  1.364 .      A
C243  N81   1.342 .      A
N81   C237  1.393 1_565  A
C246  N83   1.397 .      A
C246  N84   1.371 .      A
N83   C247  1.341 .      A
C247  C248  1.369 .      A
C247  C252  1.352 .      A
C248  C249  1.385 .      A
C249  C250  1.390 .      A
C250  C251  1.385 .      A
C251  C252  1.374 .      A
C252  N84   1.348 .      A
C255  N86   1.394 1_565  A
C255  N87   1.393 1_655  A
N86   C255  1.394 1_545  A
N86   C256  1.364 .      A
C256  C257  1.365 .      A
C256  C261  1.380 1_655  A
C257  C258  1.384 1_655  A
C258  C257  1.384 1_455  A
C258  C259  1.384 .      A
C259  C260  1.378 .      A
C260  C261  1.366 .      A
C261  C256  1.380 1_455  A
C261  N87   1.338 1_545  A
N87   C255  1.393 1_455  A
N87   C261  1.338 1_565  A
C264  N89   1.403 .      A
C264  N90   1.396 .      A
N89   C265  1.334 .      A
C265  C266  1.357 1_556  A
C265  C270  1.361 .      A
C266  C265  1.357 1_554  A
C266  C267  1.372 .      A
C267  C268  1.374 1_554  A
C268  C267  1.374 1_556  A
C268  C269  1.367 .      A
C269  C270  1.338 .      A
C270  N90   1.335 .      A
C273  N92   1.403 .      A
C273  N93   1.389 .      A
N92   C274  1.351 .      A
C274  C275  1.366 .      A
C274  C279  1.363 .      A
C275  C276  1.384 .      A
C276  C277  1.388 .      A
C277  C278  1.380 .      A
C278  C279  1.373 .      A
C279  N93   1.342 .      A
C282  N95   1.385 .      A
C282  N96   1.387 .      A
N95   C283  1.361 .      A
C283  C284  1.367 .      A
C283  C288  1.372 .      A
C284  C285  1.395 .      A
C285  C286  1.378 .      A
C286  C287  1.369 .      A
C287  C288  1.362 .      A
C288  N96   1.327 .      A
C291  N98   1.383 1_655  A
C291  N99   1.396 .      A
N98   C291  1.383 1_455  A
N98   C292  1.337 1_455  A
C292  N98   1.337 1_655  A
C292  C293  1.347 .      A
C292  C297  1.340 .      A
C293  C294  1.369 .      A
C294  C295  1.376 .      A
C295  C296  1.363 .      A
C296  C297  1.353 .      A
C297  N99   1.323 .      A
C300  N101  1.390 1_655  A
C300  N102  1.393 .      A
N101  C300  1.390 1_455  A
N101  C301  1.355 .      A
C301  C302  1.373 .      A
C301  C306  1.372 1_455  A
C302  C303  1.382 .      A
C303  C304  1.387 .      A
C304  C305  1.383 .      A
C305  C306  1.372 1_455  A
C306  C301  1.372 1_655  A
C306  C305  1.372 1_655  A
C306  N102  1.347 .      A
C309  N104  1.371 .      A
C309  N105  1.408 .      A
N104  C310  1.319 .      A
C310  C311  1.356 .      A
C310  C315  1.348 .      A
C311  C312  1.359 .      A
C312  C313  1.378 .      A
C313  C314  1.365 .      A
C314  C315  1.356 .      A
C315  N105  1.349 .      A
C318  N107  1.385 .      A
C318  N108  1.385 .      A
N107  C319  1.338 .      A
C319  C320  1.368 .      A
C319  C324  1.362 .      A
C320  C321  1.378 .      A
C321  C322  1.384 .      A
C322  C323  1.380 .      A
C323  C324  1.359 .      A
C324  N108  1.344 .      A
C327  N110  1.377 .      A
C327  N111  1.402 .      A
N110  C328  1.332 .      A
C328  C329  1.358 .      A
C328  C333  1.360 .      A
C329  C330  1.372 .      A
C330  C331  1.385 .      A
C331  C332  1.368 .      A
C332  C333  1.348 .      A
C333  N111  1.333 .      A
C336  N113  1.396 .      A
C336  N114  1.389 .      A
N113  C337  1.348 .      A
C337  C338  1.370 .      A
C337  C342  1.377 .      A
C338  C339  1.387 .      A
C339  C340  1.391 .      A
C340  C341  1.385 .      A
C341  C342  1.370 .      A
C342  N114  1.349 .      A
C345  N116  1.379 .      A
C345  N117  1.396 .      A
N116  C346  1.344 .      A
C346  C347  1.370 .      A
C346  C351  1.355 .      A
C347  C348  1.380 .      A
C348  C349  1.392 .      A
C349  C350  1.375 .      A
C350  C351  1.363 .      A
C351  N117  1.332 .      A
C354  N119  1.399 .      A
C354  N120  1.396 .      A
N119  C355  1.342 .      A
C355  C356  1.336 .      A
C355  C360  1.353 .      A
C356  C357  1.384 .      A
C357  C358  1.377 .      A
C358  C359  1.373 .      A
C359  C360  1.354 .      A
C360  N120  1.332 .      A
C363  N122  1.382 .      A
C363  N123  1.396 .      A
N122  C364  1.336 .      A
C364  C365  1.358 .      A
C364  C369  1.348 .      A
C365  C366  1.363 .      A
C366  C367  1.365 .      A
C367  C368  1.374 .      A
C368  C369  1.354 .      A
C369  N123  1.342 .      A
C372  N125  1.401 .      A
C372  N126  1.379 1_565  A
N125  C373  1.366 .      A
C373  C374  1.369 .      A
C373  C378  1.354 .      A
C374  C375  1.366 .      A
C375  C376  1.369 .      A
C376  C377  1.359 .      A
C377  C378  1.375 .      A
C378  N126  1.323 1_565  A
N126  C372  1.379 1_545  A
N126  C378  1.323 1_545  A
C381  N128  1.399 .      A
C381  N129  1.384 .      A
N128  C382  1.341 .      A
C382  C383  1.363 .      A
C382  C387  1.362 .      A
C383  C384  1.384 .      A
C384  C385  1.389 .      A
C385  C386  1.385 .      A
C386  C387  1.375 .      A
C387  N129  1.355 .      A
C390  N131  1.387 .      A
C390  N132  1.383 .      A
N131  C391  1.358 .      A
C391  C392  1.372 .      A
C391  C396  1.371 .      A
C392  C393  1.386 .      A
C393  C394  1.389 .      A
C394  C395  1.382 .      A
C395  C396  1.372 .      A
C396  N132  1.340 .      A
