data_str_m1_o12038_ATO
_audit_creation_date              2015-10-01T06:40:31-0700
_symmetry_space_group_name_H-M    P1
_symmetry_Int_Tables_number       1
_space_group_crystal_system       triclinic
loop_
_symmetry_equiv_pos_as_xyz
  x,y,z
_cell_length_a                    10.7552018
_cell_length_b                    26.2415180
_cell_length_c                    24.6790482
_cell_angle_alpha                 64.7154351
_cell_angle_beta                  98.2721429
_cell_angle_gamma                 81.3222937
_cell_volume                      6054.41701621

loop_
_atom_site_label
_atom_site_type_symbol
_atom_site_description
_atom_site_fract_x
_atom_site_fract_y
_atom_site_fract_z
_atom_type_partial_charge
Zn1   Zn    Zn3+2 0.069796 0.554733 0.510563 0.000000
Zn2   Zn    Zn3+2 0.235964 0.963498 0.367283 0.000000
Zn3   Zn    Zn3+2 0.858188 0.253165 0.973028 0.000000
Zn4   Zn    Zn3+2 0.588897 0.649925 0.969671 0.000000
Zn5   Zn    Zn3+2 0.539482 0.810750 0.112620 0.000000
Zn6   Zn    Zn3+2 0.048871 0.654938 0.811159 0.000000
Zn7   Zn    Zn3+2 0.848398 0.809883 0.508557 0.000000
Zn8   Zn    Zn3+2 0.581397 0.406987 0.217892 0.000000
Zn9   Zn    Zn3+2 0.009452 0.966746 0.107107 0.000000
Zn10  Zn    Zn3+2 0.241470 0.400738 0.812947 0.000000
Zn11  Zn    Zn3+2 0.108759 0.250443 0.236263 0.000000
Zn12  Zn    Zn3+2 0.541007 0.561120 0.360563 0.000000
N1    N     N_2   0.081455 0.690861 0.111932 0.000000
C1    C     C_R   0.184551 0.706037 0.084508 0.000000
C2    C     C_R   0.253309 0.669150 0.067398 0.000000
C3    C     C_R   0.352624 0.683168 0.038804 0.000000
C4    C     C_R   0.390434 0.732272 0.033503 0.000000
C5    C     C_R   0.322647 0.768600 0.050857 0.000000
C6    C     C_R   0.217659 0.757107 0.074963 0.000000
C7    C     C_R   0.521116 0.737806 0.030197 0.000000
N2    N     N_R   0.598656 0.710641 0.005132 0.000000
C8    C     C_R   0.707782 0.728352 0.012916 0.000000
C9    C     C_R   0.820012 0.714451 0.996896 0.000000
C10   C     C_R   0.919789 0.738768 0.007310 0.000000
N3    N     N_2   0.034161 0.728293 0.988762 0.000000
C11   C     C_R   0.908591 0.773323 0.036254 0.000000
C12   C     C_R   0.799697 0.782834 0.056952 0.000000
C13   C     C_R   0.697357 0.762254 0.042322 0.000000
N4    N     N_R   0.580271 0.769196 0.055289 0.000000
H1    H     H_    0.088636 0.646942 0.133210 0.000000
H2    H     H_    0.054107 0.713152 0.135478 0.000000
H3    H     H_    0.235143 0.627395 0.081079 0.000000
H4    H     H_    0.408414 0.652901 0.027316 0.000000
H5    H     H_    0.363548 0.802640 0.051196 0.000000
H6    H     H_    0.173095 0.784562 0.092761 0.000000
H7    H     H_    0.831268 0.686277 0.976333 0.000000
H8    H     H_    0.081382 0.761218 0.980180 0.000000
H9    H     H_    0.021663 0.714797 0.955497 0.000000
H10   H     H_    0.987292 0.791726 0.043830 0.000000
H11   H     H_    0.799104 0.804148 0.084897 0.000000
N5    N     N_2   0.570572 0.545929 0.748186 0.000000
C14   C     C_R   0.503026 0.575200 0.774991 0.000000
C15   C     C_R   0.533100 0.624769 0.774240 0.000000
C16   C     C_R   0.490621 0.644791 0.813151 0.000000
C17   C     C_R   0.405080 0.620195 0.845917 0.000000
C18   C     C_R   0.372536 0.572725 0.844772 0.000000
C19   C     C_R   0.424249 0.548588 0.811337 0.000000
C20   C     C_R   0.341800 0.647154 0.878034 0.000000
N6    N     N_R   0.407600 0.671189 0.910117 0.000000
C21   C     C_R   0.314696 0.715947 0.901319 0.000000
C22   C     C_R   0.327874 0.760253 0.914396 0.000000
C23   C     C_R   0.219553 0.801528 0.903012 0.000000
N7    N     N_2   0.233048 0.843273 0.922739 0.000000
C24   C     C_R   0.099423 0.798522 0.878019 0.000000
C25   C     C_R   0.089921 0.754410 0.862716 0.000000
C26   C     C_R   0.199324 0.715484 0.871773 0.000000
N8    N     N_R   0.210439 0.671929 0.856455 0.000000
H12   H     H_    0.567265 0.572457 0.702989 0.000000
H13   H     H_    0.547080 0.506955 0.757428 0.000000
H14   H     H_    0.609175 0.640401 0.753142 0.000000
H15   H     H_    0.525972 0.678436 0.819756 0.000000
H16   H     H_    0.327322 0.548840 0.879134 0.000000
H17   H     H_    0.411865 0.506260 0.818413 0.000000
H18   H     H_    0.419484 0.764989 0.930287 0.000000
H19   H     H_    0.166328 0.846685 0.947597 0.000000
H20   H     H_    0.326757 0.832368 0.946946 0.000000
H21   H     H_    0.013488 0.829016 0.872817 0.000000
H22   H     H_    0.999972 0.746952 0.850595 0.000000
N9    N     N_2   0.270804 0.528092 0.101734 0.000000
C27   C     C_R   0.158061 0.562206 0.057332 0.000000
C28   C     C_R   0.167330 0.601976 0.001591 0.000000
C29   C     C_R   0.061232 0.624175 0.954685 0.000000
C30   C     C_R   0.946824 0.609894 0.962939 0.000000
C31   C     C_R   0.929550 0.584330 0.021942 0.000000
C32   C     C_R   0.040134 0.555262 0.069488 0.000000
C33   C     C_R   0.844494 0.633904 0.907844 0.000000
N10   N     N_R   0.881182 0.663948 0.852461 0.000000
C34   C     C_R   0.797501 0.715965 0.829594 0.000000
C35   C     C_R   0.811855 0.768369 0.786610 0.000000
C36   C     C_R   0.734556 0.818809 0.779982 0.000000
N11   N     N_2   0.749984 0.873044 0.738156 0.000000
C37   C     C_R   0.644676 0.816248 0.815653 0.000000
C38   C     C_R   0.632002 0.763333 0.858741 0.000000
C39   C     C_R   0.708063 0.713631 0.864592 0.000000
N12   N     N_R   0.725347 0.660099 0.911177 0.000000
H23   H     H_    0.350602 0.536069 0.083920 0.000000
H24   H     H_    0.266810 0.485419 0.122628 0.000000
H25   H     H_    0.259044 0.611058 0.992592 0.000000
H26   H     H_    0.067119 0.653186 0.910995 0.000000
H27   H     H_    0.833715 0.580883 0.029231 0.000000
H28   H     H_    0.043814 0.518254 0.111752 0.000000
H29   H     H_    0.883507 0.770248 0.759673 0.000000
H30   H     H_    0.671364 0.906943 0.724947 0.000000
H31   H     H_    0.792920 0.871845 0.703919 0.000000
H32   H     H_    0.587333 0.855914 0.811354 0.000000
H33   H     H_    0.570665 0.761171 0.889524 0.000000
N13   N     N_2   0.328035 0.663778 0.196757 0.000000
C40   C     C_R   0.399248 0.632825 0.173360 0.000000
C41   C     C_R   0.380911 0.579179 0.184630 0.000000
C42   C     C_R   0.460150 0.545496 0.168455 0.000000
C43   C     C_R   0.547603 0.567196 0.135970 0.000000
C44   C     C_R   0.559898 0.622479 0.120348 0.000000
C45   C     C_R   0.486664 0.655492 0.140409 0.000000
C46   C     C_R   0.601156 0.534830 0.107285 0.000000
N14   N     N_R   0.593172 0.476831 0.128969 0.000000
C47   C     C_R   0.588336 0.471391 0.077288 0.000000
C48   C     C_R   0.554758 0.427381 0.068116 0.000000
C49   C     C_R   0.524756 0.436837 0.007934 0.000000
N15   N     N_2   0.473696 0.397050 0.994512 0.000000
C50   C     C_R   0.533833 0.486747 0.959993 0.000000
C51   C     C_R   0.566486 0.531117 0.969810 0.000000
C52   C     C_R   0.595095 0.521956 0.028869 0.000000
N16   N     N_R   0.607046 0.563496 0.045459 0.000000
H34   H     H_    0.243810 0.650458 0.201984 0.000000
H35   H     H_    0.328983 0.706940 0.178436 0.000000
H36   H     H_    0.303008 0.564111 0.204695 0.000000
H37   H     H_    0.447297 0.503912 0.175439 0.000000
H38   H     H_    0.633780 0.636898 0.097394 0.000000
H39   H     H_    0.498131 0.698129 0.131899 0.000000
H40   H     H_    0.541172 0.389299 0.105570 0.000000
H41   H     H_    0.425846 0.378056 0.027469 0.000000
H42   H     H_    0.421975 0.414071 0.949720 0.000000
H43   H     H_    0.518110 0.488626 0.915683 0.000000
H44   H     H_    0.571238 0.571819 0.933658 0.000000
N17   N     N_2   0.911607 0.573821 0.139925 0.000000
C53   C     C_R   0.834912 0.598781 0.167047 0.000000
C54   C     C_R   0.826225 0.655750 0.153788 0.000000
C55   C     C_R   0.744336 0.681448 0.177306 0.000000
C56   C     C_R   0.671963 0.649362 0.213943 0.000000
C57   C     C_R   0.674461 0.594139 0.223279 0.000000
C58   C     C_R   0.757335 0.567983 0.200752 0.000000
C59   C     C_R   0.572762 0.677028 0.232522 0.000000
N18   N     N_R   0.524309 0.737335 0.202264 0.000000
C60   C     C_R   0.448664 0.741879 0.240455 0.000000
C61   C     C_R   0.389376 0.790250 0.242027 0.000000
C62   C     C_R   0.343694 0.784980 0.293452 0.000000
N19   N     N_2   0.314055 0.832194 0.305869 0.000000
C63   C     C_R   0.342777 0.731542 0.337953 0.000000
C64   C     C_R   0.397808 0.683180 0.335717 0.000000
C65   C     C_R   0.450677 0.689253 0.287210 0.000000
N20   N     N_R   0.526464 0.646127 0.284537 0.000000
H45   H     H_    0.007498 0.570572 0.156148 0.000000
H46   H     H_    0.889121 0.535412 0.145606 0.000000
H47   H     H_    0.876314 0.681192 0.121635 0.000000
H48   H     H_    0.732577 0.727058 0.164462 0.000000
H49   H     H_    0.601243 0.574466 0.243024 0.000000
H50   H     H_    0.756051 0.525018 0.206120 0.000000
H51   H     H_    0.385743 0.829377 0.205632 0.000000
H52   H     H_    0.268116 0.823024 0.341045 0.000000
H53   H     H_    0.394492 0.847299 0.313364 0.000000
H54   H     H_    0.314249 0.727327 0.378374 0.000000
H55   H     H_    0.413176 0.642041 0.375040 0.000000
N21   N     N_2   0.641716 0.990375 0.213237 0.000000
C66   C     C_R   0.559268 0.964538 0.189454 0.000000
C67   C     C_R   0.472220 0.939041 0.221297 0.000000
C68   C     C_R   0.383225 0.919267 0.194647 0.000000
C69   C     C_R   0.380162 0.924556 0.137099 0.000000
C70   C     C_R   0.474150 0.945607 0.107601 0.000000
C71   C     C_R   0.562888 0.966310 0.133262 0.000000
C72   C     C_R   0.295052 0.899798 0.108985 0.000000
N22   N     N_R   0.163915 0.926643 0.081884 0.000000
C73   C     C_R   0.151805 0.924400 0.027735 0.000000
C74   C     C_R   0.050269 0.954248 0.976564 0.000000
C75   C     C_R   0.074314 0.962572 0.920075 0.000000
N23   N     N_2   0.976011 0.996122 0.866006 0.000000
C76   C     C_R   0.197410 0.941574 0.915984 0.000000
C77   C     C_R   0.295532 0.908860 0.968637 0.000000
C78   C     C_R   0.267308 0.896994 0.024423 0.000000
N24   N     N_R   0.354827 0.873776 0.078580 0.000000
H56   H     H_    0.614953 0.996479 0.248843 0.000000
H57   H     H_    0.663380 0.024983 0.179226 0.000000
H58   H     H_    0.479107 0.930505 0.268603 0.000000
H59   H     H_    0.310749 0.901652 0.216186 0.000000
H60   H     H_    0.475474 0.947513 0.063171 0.000000
H61   H     H_    0.632512 0.985372 0.108471 0.000000
H62   H     H_    0.960051 0.976796 0.978987 0.000000
H63   H     H_    0.990513 0.988756 0.829392 0.000000
H64   H     H_    0.884072 0.998142 0.873435 0.000000
H65   H     H_    0.217225 0.951463 0.871302 0.000000
H66   H     H_    0.393981 0.896320 0.965808 0.000000
N25   N     N_2   0.758791 0.930038 0.842452 0.000000
C79   C     C_R   0.762659 0.921405 0.903110 0.000000
C80   C     C_R   0.879027 0.899582 0.946068 0.000000
C81   C     C_R   0.883572 0.892618 0.005107 0.000000
C82   C     C_R   0.771235 0.906421 0.021269 0.000000
C83   C     C_R   0.654198 0.925695 0.979119 0.000000
C84   C     C_R   0.649923 0.934322 0.919755 0.000000
C85   C     C_R   0.772302 0.894225 0.084654 0.000000
N26   N     N_R   0.847318 0.916508 0.117740 0.000000
C86   C     C_R   0.797847 0.898181 0.168769 0.000000
C87   C     C_R   0.816166 0.911582 0.216414 0.000000
C88   C     C_R   0.748585 0.888882 0.261929 0.000000
N27   N     N_2   0.759001 0.900582 0.311867 0.000000
C89   C     C_R   0.659147 0.858356 0.257175 0.000000
C90   C     C_R   0.642586 0.844441 0.210181 0.000000
C91   C     C_R   0.708841 0.866136 0.166674 0.000000
N28   N     N_R   0.688203 0.861689 0.115221 0.000000
H67   H     H_    0.837792 0.905883 0.838095 0.000000
H68   H     H_    0.669830 0.931672 0.819042 0.000000
H69   H     H_    0.965937 0.887456 0.933311 0.000000
H70   H     H_    0.973889 0.875547 0.039383 0.000000
H71   H     H_    0.565400 0.934725 0.992374 0.000000
H72   H     H_    0.558138 0.950556 0.886591 0.000000
H73   H     H_    0.869036 0.943088 0.214276 0.000000
H74   H     H_    0.673961 0.900453 0.326100 0.000000
H75   H     H_    0.791299 0.936589 0.304162 0.000000
H76   H     H_    0.598630 0.847797 0.289583 0.000000
H77   H     H_    0.577562 0.818972 0.205371 0.000000
N29   N     N_2   0.486693 0.869669 0.707490 0.000000
C92   C     C_R   0.572753 0.836038 0.690619 0.000000
C93   C     C_R   0.611017 0.776552 0.725545 0.000000
C94   C     C_R   0.703882 0.743354 0.712977 0.000000
C95   C     C_R   0.760709 0.770990 0.665958 0.000000
C96   C     C_R   0.709996 0.829652 0.626161 0.000000
C97   C     C_R   0.616356 0.862102 0.638417 0.000000
C98   C     C_R   0.884347 0.744329 0.660371 0.000000
N30   N     N_R   0.988941 0.718700 0.712412 0.000000
C99   C     C_R   0.073918 0.750107 0.689065 0.000000
C100  C     C_R   0.191806 0.748825 0.718559 0.000000
C101  C     C_R   0.249411 0.792206 0.686601 0.000000
N31   N     N_2   0.381890 0.782445 0.702404 0.000000
C102  C     C_R   0.185094 0.838961 0.631380 0.000000
C103  C     C_R   0.074572 0.835425 0.600066 0.000000
C104  C     C_R   0.028060 0.787458 0.628054 0.000000
N32   N     N_R   0.916628 0.779331 0.606368 0.000000
H78   H     H_    0.438363 0.846693 0.739309 0.000000
H79   H     H_    0.433986 0.908501 0.671360 0.000000
H80   H     H_    0.579301 0.757216 0.766914 0.000000
H81   H     H_    0.742988 0.697853 0.744063 0.000000
H82   H     H_    0.749762 0.852628 0.587563 0.000000
H83   H     H_    0.583752 0.908397 0.609272 0.000000
H84   H     H_    0.244368 0.712848 0.761417 0.000000
H85   H     H_    0.411028 0.799182 0.661909 0.000000
H86   H     H_    0.419490 0.738797 0.728139 0.000000
H87   H     H_    0.230204 0.874085 0.608835 0.000000
H88   H     H_    0.022701 0.871568 0.558022 0.000000
N33   N     N_2   0.420702 0.637735 0.603870 0.000000
C105  C     C_R   0.349454 0.614890 0.648414 0.000000
C106  C     C_R   0.271255 0.650263 0.664688 0.000000
C107  C     C_R   0.214319 0.625672 0.713135 0.000000
C108  C     C_R   0.221150 0.567639 0.739175 0.000000
C109  C     C_R   0.289252 0.533694 0.719190 0.000000
C110  C     C_R   0.358367 0.556443 0.675990 0.000000
C111  C     C_R   0.168812 0.538903 0.792035 0.000000
N34   N     N_R   0.121776 0.566161 0.825247 0.000000
C112  C     C_R   0.137937 0.518928 0.880551 0.000000
C113  C     C_R   0.181470 0.516006 0.936787 0.000000
C114  C     C_R   0.223929 0.461487 0.987646 0.000000
N35   N     N_2   0.277553 0.456671 0.045305 0.000000
C115  C     C_R   0.212509 0.411977 0.982416 0.000000
C116  C     C_R   0.197873 0.414736 0.925569 0.000000
C117  C     C_R   0.171896 0.468516 0.876676 0.000000
N36   N     N_R   0.197012 0.478566 0.822591 0.000000
H89   H     H_    0.429974 0.679172 0.591754 0.000000
H90   H     H_    0.494623 0.608450 0.602936 0.000000
H91   H     H_    0.255367 0.696692 0.640875 0.000000
H92   H     H_    0.167370 0.650545 0.732170 0.000000
H93   H     H_    0.294666 0.488440 0.741687 0.000000
H94   H     H_    0.423033 0.528321 0.665486 0.000000
H95   H     H_    0.193922 0.554281 0.940415 0.000000
H96   H     H_    0.314742 0.414508 0.078830 0.000000
H97   H     H_    0.340339 0.483147 0.040815 0.000000
H98   H     H_    0.232514 0.370314 0.022784 0.000000
H99   H     H_    0.222043 0.375796 0.921100 0.000000
N37   N     N_2   0.856600 0.553757 0.719635 0.000000
C118  C     C_R   0.934010 0.588724 0.689153 0.000000
C119  C     C_R   0.037089 0.565048 0.673981 0.000000
C120  C     C_R   0.079674 0.598803 0.623940 0.000000
C121  C     C_R   0.012485 0.655331 0.589395 0.000000
C122  C     C_R   0.926267 0.680048 0.611727 0.000000
C123  C     C_R   0.887723 0.646833 0.662697 0.000000
C124  C     C_R   0.983362 0.679504 0.523561 0.000000
N38   N     N_R   0.992985 0.642712 0.495932 0.000000
C125  C     C_R   0.905249 0.675091 0.442607 0.000000
C126  C     C_R   0.871919 0.658040 0.398261 0.000000
C127  C     C_R   0.774226 0.693698 0.348687 0.000000
N39   N     N_2   0.751394 0.681759 0.298504 0.000000
C128  C     C_R   0.712477 0.745758 0.343222 0.000000
C129  C     C_R   0.751106 0.765156 0.386515 0.000000
C130  C     C_R   0.848540 0.728131 0.437325 0.000000
N40   N     N_R   0.897798 0.734141 0.487835 0.000000
H100  H     H_    0.886923 0.512387 0.726592 0.000000
H101  H     H_    0.760329 0.572684 0.700466 0.000000
H102  H     H_    0.077460 0.519668 0.698795 0.000000
H103  H     H_    0.147327 0.578920 0.606157 0.000000
H104  H     H_    0.856689 0.717441 0.578881 0.000000
H105  H     H_    0.801662 0.663645 0.672950 0.000000
H106  H     H_    0.922847 0.619688 0.398754 0.000000
H107  H     H_    0.737592 0.718851 0.257828 0.000000
H108  H     H_    0.818779 0.647226 0.302639 0.000000
H109  H     H_    0.627077 0.766000 0.306633 0.000000
H110  H     H_    0.706985 0.806770 0.381789 0.000000
N41   N     N_2   0.615913 0.096771 0.250467 0.000000
C131  C     C_R   0.623094 0.054262 0.310092 0.000000
C132  C     C_R   0.723061 0.005360 0.338529 0.000000
C133  C     C_R   0.702641 0.954727 0.380481 0.000000
C134  C     C_R   0.587689 0.955451 0.395368 0.000000
C135  C     C_R   0.502145 0.006340 0.378742 0.000000
C136  C     C_R   0.518985 0.056931 0.335468 0.000000
C137  C     C_R   0.551554 0.903119 0.429466 0.000000
N42   N     N_R   0.638656 0.852865 0.476488 0.000000
C138  C     C_R   0.555784 0.827935 0.509634 0.000000
C139  C     C_R   0.586548 0.779390 0.565227 0.000000
C140  C     C_R   0.490047 0.763027 0.594634 0.000000
N43   N     N_2   0.523360 0.714742 0.653089 0.000000
C141  C     C_R   0.364075 0.795718 0.568754 0.000000
C142  C     C_R   0.336002 0.847077 0.515165 0.000000
C143  C     C_R   0.430583 0.859897 0.483358 0.000000
N44   N     N_R   0.421732 0.906794 0.429717 0.000000
H111  H     H_    0.667809 0.082477 0.226025 0.000000
H112  H     H_    0.522767 0.120002 0.227702 0.000000
H113  H     H_    0.811262 0.004580 0.324342 0.000000
H114  H     H_    0.765216 0.913109 0.396927 0.000000
H115  H     H_    0.417662 0.004617 0.396361 0.000000
H116  H     H_    0.442548 0.095735 0.316007 0.000000
H117  H     H_    0.682494 0.753713 0.586177 0.000000
H118  H     H_    0.446086 0.700293 0.668768 0.000000
H119  H     H_    0.595736 0.682891 0.655677 0.000000
H120  H     H_    0.289098 0.782823 0.592294 0.000000
H121  H     H_    0.247879 0.878276 0.503251 0.000000
N45   N     N_2   0.375504 0.661957 0.498101 0.000000
C144  C     C_R   0.309406 0.716068 0.490655 0.000000
C145  C     C_R   0.219438 0.718558 0.524188 0.000000
C146  C     C_R   0.143779 0.771440 0.511067 0.000000
C147  C     C_R   0.156671 0.821140 0.463239 0.000000
C148  C     C_R   0.258329 0.819548 0.436484 0.000000
C149  C     C_R   0.334072 0.766673 0.450108 0.000000
C150  C     C_R   0.064770 0.875112 0.444273 0.000000
N46   N     N_R   0.953680 0.873917 0.466228 0.000000
C151  C     C_R   0.917148 0.929063 0.456614 0.000000
C152  C     C_R   0.817536 0.950717 0.475631 0.000000
C153  C     C_R   0.802939 0.006937 0.467272 0.000000
N47   N     N_2   0.706899 0.029910 0.489375 0.000000
C154  C     C_R   0.885775 0.040037 0.439163 0.000000
C155  C     C_R   0.982497 0.017984 0.418168 0.000000
C156  C     C_R   0.997196 0.961877 0.427366 0.000000
N48   N     N_R   0.091633 0.929806 0.416240 0.000000
H122  H     H_    0.325854 0.629816 0.512783 0.000000
H123  H     H_    0.428355 0.662765 0.466441 0.000000
H124  H     H_    0.200279 0.679284 0.556332 0.000000
H125  H     H_    0.067506 0.773311 0.534702 0.000000
H126  H     H_    0.273550 0.859562 0.402823 0.000000
H127  H     H_    0.407038 0.764931 0.426182 0.000000
H128  H     H_    0.754968 0.924181 0.498035 0.000000
H129  H     H_    0.685057 0.074416 0.470625 0.000000
H130  H     H_    0.630086 0.010510 0.493331 0.000000
H131  H     H_    0.876708 0.083140 0.434686 0.000000
H132  H     H_    0.046633 0.043750 0.398066 0.000000
N49   N     N_2   0.307461 0.296730 0.472918 0.000000
C157  C     C_R   0.300657 0.316392 0.409586 0.000000
C158  C     C_R   0.395081 0.341102 0.383682 0.000000
C159  C     C_R   0.394074 0.355104 0.322993 0.000000
C160  C     C_R   0.292934 0.350116 0.285812 0.000000
C161  C     C_R   0.197497 0.327338 0.311853 0.000000
C162  C     C_R   0.203308 0.308256 0.373792 0.000000
C163  C     C_R   0.315963 0.343368 0.231905 0.000000
N50   N     N_R   0.441555 0.347438 0.222311 0.000000
C164  C     C_R   0.491801 0.290630 0.239144 0.000000
C165  C     C_R   0.617610 0.261694 0.270664 0.000000
C166  C     C_R   0.640620 0.209467 0.323566 0.000000
N51   N     N_2   0.766335 0.179506 0.358760 0.000000
C167  C     C_R   0.544264 0.180785 0.335220 0.000000
C168  C     C_R   0.426002 0.204264 0.295047 0.000000
C169  C     C_R   0.397217 0.259518 0.248418 0.000000
N52   N     N_R   0.278964 0.294035 0.232218 0.000000
H133  H     H_    0.337976 0.324045 0.489026 0.000000
H134  H     H_    0.228554 0.281907 0.486789 0.000000
H135  H     H_    0.475888 0.344761 0.412181 0.000000
H136  H     H_    0.478766 0.364333 0.306515 0.000000
H137  H     H_    0.126477 0.318847 0.284489 0.000000
H138  H     H_    0.130691 0.287253 0.393962 0.000000
H139  H     H_    0.696523 0.275963 0.252371 0.000000
H140  H     H_    0.778892 0.173839 0.403224 0.000000
H141  H     H_    0.835481 0.193810 0.335722 0.000000
H142  H     H_    0.562830 0.138602 0.374493 0.000000
H143  H     H_    0.352242 0.183688 0.307848 0.000000
N53   N     N_2   0.792829 0.479880 0.974458 0.000000
C170  C     C_R   0.810538 0.441847 0.036828 0.000000
C171  C     C_R   0.868692 0.454938 0.080363 0.000000
C172  C     C_R   0.882884 0.419846 0.141203 0.000000
C173  C     C_R   0.838881 0.370725 0.158439 0.000000
C174  C     C_R   0.777062 0.357586 0.115299 0.000000
C175  C     C_R   0.768322 0.391917 0.054013 0.000000
C176  C     C_R   0.849662 0.336220 0.222643 0.000000
N54   N     N_R   0.762383 0.350640 0.252253 0.000000
C177  C     C_R   0.813465 0.310927 0.311366 0.000000
C178  C     C_R   0.760167 0.301693 0.361178 0.000000
C179  C     C_R   0.823917 0.255067 0.417434 0.000000
N55   N     N_2   0.766362 0.240110 0.468284 0.000000
C180  C     C_R   0.939875 0.220099 0.422735 0.000000
C181  C     C_R   0.989928 0.230045 0.371562 0.000000
C182  C     C_R   0.926435 0.275921 0.316306 0.000000
N56   N     N_R   0.953579 0.290350 0.260465 0.000000
H144  H     H_    0.778855 0.523177 0.963273 0.000000
H145  H     H_    0.740839 0.467000 0.947084 0.000000
H146  H     H_    0.905195 0.491908 0.067027 0.000000
H147  H     H_    0.924744 0.431464 0.175364 0.000000
H148  H     H_    0.731931 0.322099 0.129643 0.000000
H149  H     H_    0.727179 0.380995 0.019291 0.000000
H150  H     H_    0.670986 0.329234 0.356910 0.000000
H151  H     H_    0.830697 0.218661 0.510606 0.000000
H152  H     H_    0.685866 0.270008 0.463095 0.000000
H153  H     H_    0.985376 0.181884 0.465875 0.000000
H154  H     H_    0.060683 0.197425 0.372340 0.000000
N57   N     N_2   0.145406 0.444559 0.376111 0.000000
C183  C     C_R   0.012580 0.458925 0.348862 0.000000
C184  C     C_R   0.961315 0.422193 0.331059 0.000000
C185  C     C_R   0.830347 0.432299 0.311764 0.000000
C186  C     C_R   0.748810 0.477841 0.310141 0.000000
C187  C     C_R   0.799777 0.516887 0.324966 0.000000
C188  C     C_R   0.931906 0.507397 0.344170 0.000000
C189  C     C_R   0.611383 0.477870 0.301557 0.000000
N58   N     N_R   0.552131 0.449200 0.273153 0.000000
C190  C     C_R   0.428697 0.463474 0.276091 0.000000
C191  C     C_R   0.324580 0.455620 0.244890 0.000000
C192  C     C_R   0.203045 0.478522 0.247304 0.000000
N59   N     N_2   0.095178 0.467874 0.218345 0.000000
C193  C     C_R   0.187613 0.511447 0.278275 0.000000
C194  C     C_R   0.294656 0.519622 0.309082 0.000000
C195  C     C_R   0.414898 0.496169 0.305902 0.000000
N60   N     N_R   0.528667 0.506833 0.322441 0.000000
H155  H     H_    0.203818 0.419004 0.363219 0.000000
H156  H     H_    0.178796 0.476241 0.383454 0.000000
H157  H     H_    0.022249 0.384469 0.333920 0.000000
H158  H     H_    0.787597 0.402152 0.303302 0.000000
H159  H     H_    0.739154 0.552240 0.326918 0.000000
H160  H     H_    0.971503 0.536630 0.358062 0.000000
H161  H     H_    0.338771 0.434697 0.216827 0.000000
H162  H     H_    0.015596 0.471591 0.236099 0.000000
H163  H     H_    0.119054 0.431630 0.212093 0.000000
H164  H     H_    0.091834 0.531834 0.277416 0.000000
H165  H     H_    0.280937 0.543941 0.333898 0.000000
N61   N     N_2   0.062925 0.740653 0.401698 0.000000
C196  C     C_R   0.036658 0.795991 0.352308 0.000000
C197  C     C_R   0.080236 0.804458 0.300211 0.000000
C198  C     C_R   0.084203 0.858507 0.259988 0.000000
C199  C     C_R   0.065820 0.900482 0.278368 0.000000
C200  C     C_R   0.008962 0.894607 0.325583 0.000000
C201  C     C_R   0.983512 0.842304 0.360252 0.000000
C202  C     C_R   0.110806 0.950402 0.246902 0.000000
N62   N     N_R   0.108308 0.969202 0.185258 0.000000
C203  C     C_R   0.206974 0.995627 0.178803 0.000000
C204  C     C_R   0.259357 0.015933 0.127714 0.000000
C205  C     C_R   0.362531 0.041016 0.131102 0.000000
N63   N     N_2   0.422529 0.062141 0.081217 0.000000
C206  C     C_R   0.405585 0.047009 0.183276 0.000000
C207  C     C_R   0.359539 0.021498 0.236031 0.000000
C208  C     C_R   0.267080 0.991179 0.234211 0.000000
N64   N     N_R   0.204488 0.964914 0.278708 0.000000
H166  H     H_    0.154871 0.718495 0.409597 0.000000
H167  H     H_    0.055105 0.744949 0.439625 0.000000
H168  H     H_    0.128487 0.770076 0.293835 0.000000
H169  H     H_    0.126986 0.864989 0.221209 0.000000
H170  H     H_    0.982589 0.931941 0.332503 0.000000
H171  H     H_    0.934825 0.835532 0.397112 0.000000
H172  H     H_    0.218542 0.014109 0.086151 0.000000
H173  H     H_    0.510133 0.071695 0.090048 0.000000
H174  H     H_    0.403517 0.048163 0.048464 0.000000
H175  H     H_    0.475746 0.072309 0.181407 0.000000
H176  H     H_    0.395558 0.024249 0.277261 0.000000
N65   N     N_2   0.923584 0.073358 0.290563 0.000000
C209  C     C_R   0.891245 0.087726 0.227715 0.000000
C210  C     C_R   0.862172 0.047031 0.209959 0.000000
C211  C     C_R   0.853202 0.056270 0.150283 0.000000
C212  C     C_R   0.885620 0.103867 0.109677 0.000000
C213  C     C_R   0.931641 0.140079 0.129364 0.000000
C214  C     C_R   0.927467 0.134241 0.187224 0.000000
C215  C     C_R   0.898060 0.108114 0.050561 0.000000
N66   N     N_R   0.942663 0.058582 0.044507 0.000000
C216  C     C_R   0.949793 0.082271 0.985180 0.000000
C217  C     C_R   0.039073 0.060329 0.961553 0.000000
C218  C     C_R   0.041125 0.092446 0.900502 0.000000
N67   N     N_2   0.129220 0.070448 0.874216 0.000000
C219  C     C_R   0.960600 0.147459 0.866036 0.000000
C220  C     C_R   0.892924 0.173172 0.895013 0.000000
C221  C     C_R   0.896245 0.140734 0.956035 0.000000
N68   N     N_R   0.877542 0.160678 0.997332 0.000000
H177  H     H_    0.988312 0.033622 0.315186 0.000000
H178  H     H_    0.952480 0.105584 0.298686 0.000000
H179  H     H_    0.850045 0.007305 0.243339 0.000000
H180  H     H_    0.829104 0.025193 0.135275 0.000000
H181  H     H_    0.981254 0.168676 0.100405 0.000000
H182  H     H_    0.992370 0.150531 0.208878 0.000000
H183  H     H_    0.119438 0.025022 0.992447 0.000000
H184  H     H_    0.149764 0.101957 0.836397 0.000000
H185  H     H_    0.206956 0.038354 0.906050 0.000000
H186  H     H_    0.960385 0.172323 0.818011 0.000000
H187  H     H_    0.836017 0.216554 0.869971 0.000000
N69   N     N_2   0.656410 0.397315 0.579954 0.000000
C222  C     C_R   0.549148 0.413193 0.601149 0.000000
C223  C     C_R   0.502926 0.371179 0.644663 0.000000
C224  C     C_R   0.399174 0.387599 0.666036 0.000000
C225  C     C_R   0.340167 0.445769 0.643855 0.000000
C226  C     C_R   0.384418 0.487207 0.599123 0.000000
C227  C     C_R   0.490444 0.471158 0.579233 0.000000
C228  C     C_R   0.214149 0.461778 0.656719 0.000000
N70   N     N_R   0.179351 0.430276 0.712832 0.000000
C229  C     C_R   0.050946 0.437210 0.692216 0.000000
C230  C     C_R   0.958972 0.421771 0.725732 0.000000
C231  C     C_R   0.830921 0.447011 0.696045 0.000000
N71   N     N_2   0.738222 0.451798 0.729002 0.000000
C232  C     C_R   0.794138 0.473320 0.633519 0.000000
C233  C     C_R   0.885981 0.481571 0.600218 0.000000
C234  C     C_R   0.011663 0.471834 0.630204 0.000000
N72   N     N_R   0.109462 0.491792 0.606003 0.000000
H188  H     H_    0.703832 0.354133 0.603072 0.000000
H189  H     H_    0.710840 0.427609 0.565845 0.000000
H190  H     H_    0.547496 0.325727 0.661920 0.000000
H191  H     H_    0.360942 0.354690 0.698538 0.000000
H192  H     H_    0.332744 0.532250 0.577589 0.000000
H193  H     H_    0.523830 0.504398 0.544571 0.000000
H194  H     H_    0.979554 0.393691 0.773270 0.000000
H195  H     H_    0.667047 0.489178 0.703110 0.000000
H196  H     H_    0.774403 0.443738 0.773160 0.000000
H197  H     H_    0.693460 0.490282 0.610804 0.000000
H198  H     H_    0.852540 0.498997 0.552465 0.000000
N73   N     N_2   0.713038 0.550434 0.845047 0.000000
C235  C     C_R   0.774402 0.500419 0.843146 0.000000
C236  C     C_R   0.891730 0.498312 0.828258 0.000000
C237  C     C_R   0.958935 0.446982 0.833699 0.000000
C238  C     C_R   0.928161 0.396379 0.867908 0.000000
C239  C     C_R   0.809982 0.398458 0.882160 0.000000
C240  C     C_R   0.726574 0.451209 0.862883 0.000000
C241  C     C_R   0.019023 0.342415 0.884249 0.000000
N74   N     N_R   0.126932 0.342142 0.859019 0.000000
C242  C     C_R   0.161609 0.286306 0.871645 0.000000
C243  C     C_R   0.264882 0.261168 0.857333 0.000000
C244  C     C_R   0.295020 0.201389 0.881254 0.000000
N75   N     N_2   0.399926 0.173547 0.867805 0.000000
C245  C     C_R   0.225112 0.168625 0.920384 0.000000
C246  C     C_R   0.123138 0.195432 0.934828 0.000000
C247  C     C_R   0.090818 0.254223 0.908988 0.000000
N76   N     N_R   0.997766 0.287788 0.918942 0.000000
H199  H     H_    0.773826 0.575868 0.849510 0.000000
H200  H     H_    0.644115 0.545194 0.870333 0.000000
H201  H     H_    0.932701 0.535591 0.816191 0.000000
H202  H     H_    0.034096 0.444526 0.811474 0.000000
H203  H     H_    0.784265 0.359391 0.908774 0.000000
H204  H     H_    0.632105 0.452187 0.872427 0.000000
H205  H     H_    0.321788 0.287137 0.829046 0.000000
H206  H     H_    0.395525 0.132642 0.873748 0.000000
H207  H     H_    0.424497 0.199966 0.828134 0.000000
H208  H     H_    0.252507 0.121815 0.940926 0.000000
H209  H     H_    0.075151 0.171767 0.968285 0.000000
N77   N     N_2   0.348516 0.271869 0.132741 0.000000
C248  C     C_R   0.399375 0.276426 0.081975 0.000000
C249  C     C_R   0.522477 0.283889 0.080922 0.000000
C250  C     C_R   0.565317 0.297352 0.027331 0.000000
C251  C     C_R   0.489424 0.298296 0.977412 0.000000
C252  C     C_R   0.373718 0.283373 0.982079 0.000000
C253  C     C_R   0.326801 0.272978 0.033736 0.000000
C254  C     C_R   0.530259 0.315682 0.919457 0.000000
N78   N     N_R   0.659117 0.298558 0.917330 0.000000
C255  C     C_R   0.647162 0.323406 0.855880 0.000000
C256  C     C_R   0.741073 0.322267 0.824150 0.000000
C257  C     C_R   0.708886 0.354387 0.761279 0.000000
N79   N     N_2   0.802768 0.350990 0.728036 0.000000
C258  C     C_R   0.588155 0.392197 0.732093 0.000000
C259  C     C_R   0.493331 0.389362 0.764059 0.000000
C260  C     C_R   0.523966 0.354067 0.824724 0.000000
N80   N     N_R   0.443818 0.351227 0.861705 0.000000
H210  H     H_    0.258957 0.262672 0.130249 0.000000
H211  H     H_    0.353139 0.307118 0.140504 0.000000
H212  H     H_    0.574600 0.287883 0.118813 0.000000
H213  H     H_    0.653827 0.311015 0.022151 0.000000
H214  H     H_    0.320618 0.280390 0.944717 0.000000
H215  H     H_    0.232111 0.264084 0.035343 0.000000
H216  H     H_    0.838596 0.300019 0.845291 0.000000
H217  H     H_    0.766672 0.368970 0.681438 0.000000
H218  H     H_    0.869845 0.311855 0.748421 0.000000
H219  H     H_    0.570639 0.427527 0.686890 0.000000
H220  H     H_    0.400000 0.416629 0.745565 0.000000
N81   N     N_2   0.263035 0.153597 0.053531 0.000000
C261  C     C_R   0.250458 0.137858 0.114055 0.000000
C262  C     C_R   0.170330 0.102641 0.138235 0.000000
C263  C     C_R   0.152037 0.089536 0.196484 0.000000
C264  C     C_R   0.210329 0.113861 0.229809 0.000000
C265  C     C_R   0.289901 0.149627 0.204402 0.000000
C266  C     C_R   0.316098 0.158372 0.148756 0.000000
C267  C     C_R   0.181248 0.108279 0.288391 0.000000
N82   N     N_R   0.211839 0.054947 0.341940 0.000000
C268  C     C_R   0.236203 0.071814 0.386107 0.000000
C269  C     C_R   0.282816 0.036044 0.448232 0.000000
C270  C     C_R   0.323014 0.060730 0.485160 0.000000
N83   N     N_2   0.373499 0.025527 0.548881 0.000000
C271  C     C_R   0.319575 0.119604 0.459209 0.000000
C272  C     C_R   0.269955 0.154983 0.396673 0.000000
C273  C     C_R   0.217817 0.130848 0.361297 0.000000
N84   N     N_R   0.171075 0.156602 0.299158 0.000000
H221  H     H_    0.233623 0.126088 0.037689 0.000000
H222  H     H_    0.348600 0.164775 0.045256 0.000000
H223  H     H_    0.106844 0.093298 0.107607 0.000000
H224  H     H_    0.093423 0.059776 0.215691 0.000000
H225  H     H_    0.333404 0.170910 0.227816 0.000000
H226  H     H_    0.387078 0.181523 0.131882 0.000000
H227  H     H_    0.292723 0.989702 0.467352 0.000000
H228  H     H_    0.370545 0.047975 0.574336 0.000000
H229  H     H_    0.344086 0.987268 0.566175 0.000000
H230  H     H_    0.355990 0.138067 0.488103 0.000000
H231  H     H_    0.267754 0.200797 0.376950 0.000000
N85   N     N_2   0.999353 0.501529 0.985448 0.000000
C274  C     C_R   0.022117 0.441149 0.012296 0.000000
C275  C     C_R   0.083560 0.407866 0.072991 0.000000
C276  C     C_R   0.095833 0.349164 0.098175 0.000000
C277  C     C_R   0.054763 0.323945 0.062117 0.000000
C278  C     C_R   0.005210 0.356939 0.001075 0.000000
C279  C     C_R   0.985171 0.415540 0.976953 0.000000
C280  C     C_R   0.008135 0.272958 0.090712 0.000000
N86   N     N_R   0.004217 0.256234 0.151567 0.000000
C281  C     C_R   0.889258 0.242213 0.151955 0.000000
C282  C     C_R   0.834747 0.222820 0.201181 0.000000
C283  C     C_R   0.728872 0.200637 0.195994 0.000000
N87   N     N_2   0.669962 0.182812 0.245338 0.000000
C284  C     C_R   0.684144 0.193834 0.144479 0.000000
C285  C     C_R   0.738890 0.214860 0.094500 0.000000
C286  C     C_R   0.836326 0.242457 0.098202 0.000000
N88   N     N_R   0.907642 0.262211 0.056693 0.000000
H232  H     H_    0.064504 0.514692 0.007158 0.000000
H233  H     H_    0.965785 0.523483 0.938264 0.000000
H234  H     H_    0.110979 0.427802 0.101768 0.000000
H235  H     H_    0.120873 0.324634 0.147168 0.000000
H236  H     H_    0.963567 0.337156 0.975584 0.000000
H237  H     H_    0.937338 0.441955 0.930952 0.000000
H238  H     H_    0.878469 0.220252 0.244397 0.000000
H239  H     H_    0.570757 0.191603 0.234592 0.000000
H240  H     H_    0.726208 0.147838 0.284967 0.000000
H241  H     H_    0.604855 0.173374 0.142778 0.000000
H242  H     H_    0.708750 0.208499 0.054531 0.000000
N89   N     N_2   0.937258 0.767032 0.212148 0.000000
C287  C     C_R   0.020182 0.717057 0.261851 0.000000
C288  C     C_R   0.135483 0.693969 0.255038 0.000000
C289  C     C_R   0.221983 0.646771 0.304330 0.000000
C290  C     C_R   0.198997 0.628431 0.362527 0.000000
C291  C     C_R   0.094965 0.657896 0.370304 0.000000
C292  C     C_R   0.005444 0.702691 0.320214 0.000000
C293  C     C_R   0.280709 0.578215 0.417387 0.000000
N90   N     N_R   0.397297 0.548693 0.415400 0.000000
C294  C     C_R   0.409212 0.495631 0.462224 0.000000
C295  C     C_R   0.493997 0.445633 0.474919 0.000000
C296  C     C_R   0.474115 0.393185 0.515362 0.000000
N91   N     N_2   0.560310 0.341034 0.528671 0.000000
C297  C     C_R   0.375090 0.392090 0.545784 0.000000
C298  C     C_R   0.300120 0.443319 0.538421 0.000000
C299  C     C_R   0.313608 0.494781 0.493382 0.000000
N92   N     N_R   0.231324 0.547360 0.468510 0.000000
H243  H     H_    0.974107 0.783694 0.173611 0.000000
H244  H     H_    0.901427 0.796941 0.225843 0.000000
H245  H     H_    0.159760 0.718521 0.212392 0.000000
H246  H     H_    0.309751 0.626489 0.298095 0.000000
H247  H     H_    0.093730 0.644922 0.417703 0.000000
H248  H     H_    0.937782 0.734310 0.324291 0.000000
H249  H     H_    0.570421 0.447555 0.452090 0.000000
H250  H     H_    0.529330 0.303870 0.551039 0.000000
H251  H     H_    0.609044 0.343431 0.495036 0.000000
H252  H     H_    0.359029 0.351009 0.576942 0.000000
H253  H     H_    0.219443 0.442232 0.560023 0.000000
N93   N     N_2   0.615000 0.752362 0.479568 0.000000
C300  C     C_R   0.642805 0.700313 0.475732 0.000000
C301  C     C_R   0.597877 0.698195 0.422222 0.000000
C302  C     C_R   0.639795 0.648597 0.417124 0.000000
C303  C     C_R   0.737778 0.605434 0.460997 0.000000
C304  C     C_R   0.788183 0.609083 0.513433 0.000000
C305  C     C_R   0.731350 0.653804 0.522894 0.000000
C306  C     C_R   0.793179 0.559350 0.447776 0.000000
N94   N     N_R   0.720203 0.533236 0.421467 0.000000
C307  C     C_R   0.807653 0.484891 0.433148 0.000000
C308  C     C_R   0.789901 0.438697 0.422504 0.000000
C309  C     C_R   0.896723 0.394869 0.436770 0.000000
N95   N     N_2   0.880393 0.345830 0.429719 0.000000
C310  C     C_R   0.019101 0.399604 0.456441 0.000000
C311  C     C_R   0.034250 0.447216 0.464433 0.000000
C312  C     C_R   0.927488 0.486434 0.457770 0.000000
N96   N     N_R   0.922657 0.532835 0.468237 0.000000
H254  H     H_    0.575935 0.788492 0.438042 0.000000
H255  H     H_    0.697992 0.756374 0.501158 0.000000
H256  H     H_    0.535088 0.736107 0.384484 0.000000
H257  H     H_    0.614397 0.644643 0.376164 0.000000
H258  H     H_    0.872726 0.579030 0.547120 0.000000
H259  H     H_    0.762236 0.653938 0.565979 0.000000
H260  H     H_    0.697802 0.433654 0.405946 0.000000
H261  H     H_    0.957313 0.310437 0.454604 0.000000
H262  H     H_    0.790905 0.338316 0.434761 0.000000
H263  H     H_    0.102868 0.367413 0.463049 0.000000
H264  H     H_    0.125583 0.456230 0.469617 0.000000

loop_
_geom_bond_atom_site_label_1
_geom_bond_atom_site_label_2
_geom_bond_distance
_geom_bond_site_symmetry_2
_ccdc_geom_bond_type
Zn1   N38   2.184 1_455  S
Zn1   N72   2.152 .      S
Zn1   N92   2.173 .      S
Zn1   N96   2.058 1_455  S
Zn2   N44   2.200 .      S
Zn2   N48   2.166 .      S
Zn2   N64   2.147 .      S
Zn2   N82   2.168 1_565  S
Zn3   N68   2.205 .      S
Zn3   N76   2.194 .      S
Zn3   N78   2.208 .      S
Zn3   N88   2.178 1_556  S
Zn4   N2    2.129 1_556  S
Zn4   N6    2.102 .      S
Zn4   N12   2.170 .      S
Zn4   N16   2.195 1_556  S
Zn5   N4    2.176 .      S
Zn5   N18   2.278 .      S
Zn5   N24   2.174 .      S
Zn5   N28   2.245 .      S
Zn6   N8    2.137 .      S
Zn6   N10   2.226 1_455  S
Zn6   N30   2.212 1_455  S
Zn6   N34   2.200 .      S
Zn7   N32   2.160 .      S
Zn7   N40   2.263 .      S
Zn7   N42   2.223 .      S
Zn7   N46   2.148 .      S
Zn8   N14   2.215 .      S
Zn8   N50   2.308 .      S
Zn8   N54   2.069 .      S
Zn8   N58   2.120 .      S
Zn9   N22   2.141 .      S
Zn9   N26   2.319 1_455  S
Zn9   N62   2.096 .      S
Zn9   N66   2.165 1_465  S
Zn10  N36   2.147 .      S
Zn10  N70   2.210 .      S
Zn10  N74   2.158 .      S
Zn10  N80   2.220 .      S
Zn11  N52   2.293 .      S
Zn11  N56   2.129 1_455  S
Zn11  N84   2.205 .      S
Zn11  N86   2.158 .      S
Zn12  N20   2.181 .      S
Zn12  N60   2.024 .      S
Zn12  N90   2.169 .      S
Zn12  N94   2.076 .      S
N1    C1    1.402 .      S
N1    H1    1.027 .      S
N1    H2    1.027 .      S
C2    H3    1.058 .      S
C3    H4    1.081 .      S
C4    C7    1.445 .      S
C5    H5    1.056 .      S
C6    H6    1.081 .      S
N2    Zn4   2.129 1_554  S
C9    H7    1.063 .      S
C10   N3    1.402 1_654  S
N3    C10   1.402 1_456  S
N3    H8    1.028 .      S
N3    H9    1.024 .      S
C11   H10   1.068 .      S
C12   H11   1.057 .      S
N5    C14   1.400 .      S
N5    H12   1.024 .      S
N5    H13   1.028 .      S
C15   H14   1.072 .      S
C16   H15   1.076 .      S
C17   C20   1.443 .      S
C18   H16   1.051 .      S
C19   H17   1.081 .      S
C22   H18   1.052 .      S
C23   N7    1.393 .      S
N7    H19   1.026 .      S
N7    H20   1.024 .      S
C24   H21   1.080 .      S
C25   H22   1.043 1_455  S
H22   C25   1.043 1_655  S
N9    C27   1.387 .      S
N9    H23   1.029 .      S
N9    H24   1.024 .      S
C28   H25   1.081 1_554  S
C29   H26   1.039 .      S
C30   C33   1.444 .      S
C31   H27   1.082 .      S
C32   H28   1.069 .      S
N10   Zn6   2.226 1_655  S
C35   H29   1.081 .      S
C36   N11   1.409 .      S
N11   H30   1.029 .      S
N11   H31   1.029 .      S
C37   H32   1.081 .      S
C38   H33   1.065 .      S
H25   C28   1.081 1_556  S
N13   C40   1.386 .      S
N13   H34   1.025 .      S
N13   H35   1.027 .      S
C41   H36   1.075 .      S
C42   H37   1.064 .      S
C43   C46   1.427 .      S
C44   H38   1.064 .      S
C45   H39   1.077 .      S
C48   H40   1.081 .      S
C49   N15   1.385 1_554  S
N15   C49   1.385 1_556  S
N15   H41   1.013 1_556  S
N15   H42   1.028 .      S
C50   H43   1.061 .      S
C51   H44   1.075 .      S
N16   Zn4   2.195 1_554  S
H41   N15   1.013 1_554  S
N17   C53   1.388 .      S
N17   H45   1.028 1_655  S
N17   H46   1.028 .      S
C54   H47   1.070 .      S
C55   H48   1.081 .      S
C56   C59   1.438 .      S
C57   H49   1.069 .      S
C58   H50   1.080 .      S
C61   H51   1.026 .      S
C62   N19   1.401 .      S
N19   H52   1.018 .      S
N19   H53   1.029 .      S
C63   H54   1.051 .      S
C64   H55   1.068 .      S
H45   N17   1.028 1_455  S
N21   C66   1.401 .      S
N21   H56   1.029 .      S
N21   H57   1.026 1_565  S
C67   H58   1.080 .      S
C68   H59   1.059 .      S
C69   C72   1.457 .      S
C70   H60   1.078 .      S
C71   H61   1.081 .      S
C74   H62   1.081 1_455  S
C75   N23   1.408 1_455  S
N23   C75   1.408 1_655  S
N23   H63   1.029 .      S
N23   H64   1.029 .      S
C76   H65   1.081 .      S
C77   H66   1.082 .      S
H57   N21   1.026 1_545  S
H62   C74   1.081 1_655  S
N25   C79   1.408 .      S
N25   H67   1.028 .      S
N25   H68   1.029 .      S
C80   H69   1.075 .      S
C81   H70   1.081 .      S
C82   C85   1.455 .      S
C83   H71   1.078 .      S
C84   H72   1.081 .      S
N26   Zn9   2.319 1_655  S
C87   H73   1.060 .      S
C88   N27   1.385 .      S
N27   H74   1.026 .      S
N27   H75   1.007 .      S
C89   H76   1.075 .      S
C90   H77   1.065 .      S
N29   C92   1.410 .      S
N29   H78   1.029 .      S
N29   H79   1.029 .      S
C93   H80   1.061 .      S
C94   H81   1.079 .      S
C95   C98   1.460 .      S
C96   H82   1.076 .      S
C97   H83   1.081 .      S
N30   Zn6   2.212 1_655  S
C100  H84   1.069 .      S
C101  N31   1.376 .      S
N31   H85   1.023 .      S
N31   H86   1.022 .      S
C102  H87   1.081 .      S
C103  H88   1.059 .      S
N33   C105  1.405 .      S
N33   H89   1.022 .      S
N33   H90   1.029 .      S
C106  H91   1.075 .      S
C107  H92   1.064 .      S
C108  C111  1.444 .      S
C109  H93   1.062 .      S
C110  H94   1.075 .      S
C113  H95   1.072 .      S
C114  N35   1.401 1_556  S
N35   C114  1.401 1_554  S
N35   H96   1.029 .      S
N35   H97   1.024 .      S
C115  H98   1.082 1_556  S
C116  H99   1.072 .      S
H98   C115  1.082 1_554  S
N37   C118  1.386 .      S
N37   H100  1.016 .      S
N37   H101  1.023 .      S
C119  H102  1.061 .      S
C120  H103  1.080 .      S
C121  C124  1.433 1_455  S
C122  H104  1.051 .      S
C123  H105  1.075 .      S
C124  C121  1.433 1_655  S
N38   Zn1   2.184 1_655  S
C126  H106  1.065 .      S
C127  N39   1.400 .      S
N39   H107  1.028 .      S
N39   H108  1.029 .      S
C128  H109  1.070 .      S
C129  H110  1.072 .      S
N41   C131  1.398 .      S
N41   H111  1.021 .      S
N41   H112  1.026 .      S
C132  H113  1.058 .      S
C133  H114  1.064 .      S
C134  C137  1.419 .      S
C135  H115  1.061 .      S
C136  H116  1.077 .      S
C139  H117  1.061 .      S
C140  N43   1.403 .      S
N43   H118  1.023 .      S
N43   H119  1.026 .      S
C141  H120  1.073 .      S
C142  H121  1.065 .      S
N45   C144  1.411 .      S
N45   H122  1.029 .      S
N45   H123  1.025 .      S
C145  H124  1.071 .      S
C146  H125  1.080 .      S
C147  C150  1.442 .      S
C148  H126  1.079 .      S
C149  H127  1.055 .      S
C152  H128  1.078 .      S
C153  N47   1.408 .      S
N47   H129  1.028 .      S
N47   H130  1.029 .      S
C154  H131  1.076 .      S
C155  H132  1.064 1_655  S
H132  C155  1.064 1_455  S
N49   C157  1.408 .      S
N49   H133  1.028 .      S
N49   H134  1.029 .      S
C158  H135  1.080 .      S
C159  H136  1.069 .      S
C160  C163  1.465 .      S
C161  H137  1.059 .      S
C162  H138  1.081 .      S
C165  H139  1.061 .      S
C166  N51   1.400 .      S
N51   H140  1.028 .      S
N51   H141  1.020 .      S
C167  H142  1.080 .      S
C168  H143  1.037 .      S
N53   C170  1.396 1_556  S
N53   H144  1.029 .      S
N53   H145  1.013 .      S
C170  N53   1.396 1_554  S
C171  H146  1.041 .      S
C172  H147  1.076 .      S
C173  C176  1.426 .      S
C174  H148  1.064 .      S
C175  H149  1.073 .      S
C178  H150  1.072 .      S
C179  N55   1.410 .      S
N55   H151  1.029 .      S
N55   H152  1.029 .      S
C180  H153  1.081 .      S
C181  H154  1.048 1_655  S
N56   Zn11  2.129 1_655  S
H154  C181  1.048 1_455  S
N57   C183  1.407 .      S
N57   H155  1.029 .      S
N57   H156  1.026 .      S
C184  H157  1.070 1_655  S
C185  H158  1.051 .      S
C186  C189  1.463 .      S
C187  H159  1.074 .      S
C188  H160  1.081 .      S
C191  H161  1.065 .      S
C192  N59   1.402 .      S
N59   H162  1.026 .      S
N59   H163  1.028 .      S
C193  H164  1.080 .      S
C194  H165  1.066 .      S
H157  C184  1.070 1_455  S
N61   C196  1.393 .      S
N61   H166  1.014 .      S
N61   H167  1.003 .      S
C197  H168  1.054 .      S
C198  H169  1.081 .      S
C199  C202  1.408 .      S
C200  H170  1.069 1_455  S
C201  H171  1.077 .      S
C204  H172  1.080 .      S
C205  N63   1.412 .      S
N63   H173  1.028 .      S
N63   H174  1.029 .      S
C206  H175  1.071 .      S
C207  H176  1.072 .      S
H170  C200  1.069 1_655  S
N65   C209  1.405 .      S
N65   H177  1.029 .      S
N65   H178  1.029 .      S
C210  H179  1.059 .      S
C211  H180  1.079 .      S
C212  C215  1.442 .      S
C213  H181  1.064 .      S
C214  H182  1.065 .      S
N66   Zn9   2.165 1_645  S
C217  H183  1.073 .      S
C218  N67   1.408 .      S
N67   H184  1.029 .      S
N67   H185  1.029 .      S
C219  H186  1.081 .      S
C220  H187  1.064 .      S
N69   C222  1.412 .      S
N69   H188  1.029 .      S
N69   H189  1.029 .      S
C223  H190  1.081 .      S
C224  H191  1.081 .      S
C225  C228  1.477 .      S
C226  H192  1.081 .      S
C227  H193  1.080 .      S
C230  H194  1.052 .      S
C231  N71   1.398 .      S
N71   H195  1.027 .      S
N71   H196  1.020 .      S
C232  H197  1.073 .      S
C233  H198  1.047 .      S
N73   C235  1.400 .      S
N73   H199  1.029 .      S
N73   H200  1.024 .      S
C236  H201  1.076 .      S
C237  H202  1.049 1_655  S
C238  C241  1.451 1_655  S
C239  H203  1.059 .      S
C240  H204  1.075 .      S
C241  C238  1.451 1_455  S
C243  H205  1.081 .      S
C244  N75   1.408 .      S
N75   H206  1.029 .      S
N75   H207  1.029 .      S
C245  H208  1.081 .      S
C246  H209  1.056 .      S
H202  C237  1.049 1_455  S
N77   C248  1.404 .      S
N77   H210  1.027 .      S
N77   H211  1.028 .      S
C249  H212  1.073 .      S
C250  H213  1.072 .      S
C251  C254  1.460 .      S
C252  H214  1.052 .      S
C253  H215  1.081 .      S
C256  H216  1.054 .      S
C257  N79   1.405 .      S
N79   H217  1.024 .      S
N79   H218  1.029 .      S
C258  H219  1.069 .      S
C259  H220  1.049 .      S
N81   C261  1.403 .      S
N81   H221  1.024 .      S
N81   H222  1.029 .      S
C262  H223  1.076 .      S
C263  H224  1.073 .      S
C264  C267  1.474 .      S
C265  H225  1.068 .      S
C266  H226  1.068 .      S
N82   Zn2   2.168 1_545  S
C269  H227  1.081 1_545  S
C270  N83   1.408 .      S
N83   H228  1.029 .      S
N83   H229  1.029 1_545  S
C271  H230  1.081 .      S
C272  H231  1.082 .      S
H227  C269  1.081 1_565  S
H229  N83   1.029 1_565  S
N85   C274  1.396 1_656  S
N85   H232  1.010 1_656  S
N85   H233  1.030 .      S
C274  N85   1.396 1_454  S
C275  H234  1.081 .      S
C276  H235  1.067 .      S
C277  C280  1.427 .      S
C278  H236  1.065 1_454  S
C279  H237  1.042 .      S
C282  H238  1.071 .      S
C283  N87   1.389 .      S
N87   H239  1.027 .      S
N87   H240  1.030 .      S
C284  H241  1.079 .      S
C285  H242  1.082 .      S
N88   Zn3   2.178 1_554  S
H232  N85   1.010 1_454  S
H236  C278  1.065 1_656  S
N89   C287  1.406 1_655  S
N89   H243  1.029 .      S
N89   H244  1.025 .      S
C287  N89   1.406 1_455  S
C288  H245  1.068 .      S
C289  H246  1.076 .      S
C290  C293  1.458 .      S
C291  H247  1.072 .      S
C292  H248  1.067 1_455  S
C295  H249  1.057 .      S
C296  N91   1.409 .      S
N91   H250  1.029 .      S
N91   H251  1.029 .      S
C297  H252  1.081 .      S
C298  H253  1.080 .      S
H248  C292  1.067 1_655  S
N93   C300  1.400 .      S
N93   H254  1.025 .      S
N93   H255  1.015 .      S
C301  H256  1.067 .      S
C302  H257  1.061 .      S
C303  C306  1.449 .      S
C304  H258  1.070 .      S
C305  H259  1.069 .      S
C308  H260  1.065 .      S
C309  N95   1.403 .      S
N95   H261  1.029 .      S
N95   H262  1.025 .      S
C310  H263  1.078 .      S
C311  H264  1.047 .      S
N96   Zn1   2.058 1_655  S
C1    C2    1.373 .      A
C1    C6    1.370 .      A
C2    C3    1.374 .      A
C3    C4    1.368 .      A
C4    C5    1.361 .      A
C5    C6    1.365 .      A
C7    N2    1.390 .      A
C7    N4    1.395 .      A
N2    C8    1.344 .      A
C8    C9    1.369 1_554  A
C8    C13   1.370 .      A
C9    C8    1.369 1_556  A
C9    C10   1.376 1_556  A
C10   C9    1.376 1_554  A
C10   C11   1.376 .      A
C11   C12   1.374 .      A
C12   C13   1.366 .      A
C13   N4    1.348 .      A
C14   C15   1.380 .      A
C14   C19   1.368 .      A
C15   C16   1.375 .      A
C16   C17   1.365 .      A
C17   C18   1.354 .      A
C18   C19   1.365 .      A
C20   N6    1.388 .      A
C20   N8    1.383 .      A
N6    C21   1.338 .      A
C21   C22   1.354 .      A
C21   C26   1.350 .      A
C22   C23   1.369 .      A
C23   C24   1.378 .      A
C24   C25   1.375 .      A
C25   C26   1.358 .      A
C26   N8    1.343 .      A
C27   C28   1.355 .      A
C27   C32   1.365 .      A
C28   C29   1.351 1_554  A
C29   C28   1.351 1_556  A
C29   C30   1.357 1_455  A
C30   C29   1.357 1_655  A
C30   C31   1.373 1_556  A
C31   C30   1.373 1_554  A
C31   C32   1.390 1_655  A
C32   C31   1.390 1_455  A
C33   N10   1.405 .      A
C33   N12   1.391 .      A
N10   C34   1.348 .      A
C34   C35   1.380 .      A
C34   C39   1.374 .      A
C35   C36   1.383 .      A
C36   C37   1.388 .      A
C37   C38   1.384 .      A
C38   C39   1.369 .      A
C39   N12   1.345 .      A
C40   C41   1.365 .      A
C40   C45   1.369 .      A
C41   C42   1.356 .      A
C42   C43   1.357 .      A
C43   C44   1.366 .      A
C44   C45   1.374 .      A
C46   N14   1.403 .      A
C46   N16   1.400 .      A
N14   C47   1.337 .      A
C47   C48   1.357 .      A
C47   C52   1.376 .      A
C48   C49   1.376 .      A
C49   C50   1.369 1_554  A
C50   C49   1.369 1_556  A
C50   C51   1.370 .      A
C51   C52   1.351 1_556  A
C52   C51   1.351 1_554  A
C52   N16   1.334 .      A
C53   C54   1.372 .      A
C53   C58   1.368 .      A
C54   C55   1.367 .      A
C55   C56   1.372 .      A
C56   C57   1.362 .      A
C57   C58   1.363 .      A
C59   N18   1.401 .      A
C59   N20   1.404 .      A
N18   C60   1.361 .      A
C60   C61   1.351 .      A
C60   C65   1.364 .      A
C61   C62   1.386 .      A
C62   C63   1.365 .      A
C63   C64   1.344 .      A
C64   C65   1.357 .      A
C65   N20   1.323 .      A
C66   C67   1.376 .      A
C66   C71   1.374 .      A
C67   C68   1.370 .      A
C68   C69   1.362 .      A
C69   C70   1.376 .      A
C70   C71   1.372 .      A
C72   N22   1.400 .      A
C72   N24   1.374 .      A
N22   C73   1.351 .      A
C73   C74   1.379 1_554  A
C73   C78   1.370 .      A
C74   C73   1.379 1_556  A
C74   C75   1.385 .      A
C75   C76   1.390 .      A
C76   C77   1.385 .      A
C77   C78   1.366 1_556  A
C78   C77   1.366 1_554  A
C78   N24   1.346 .      A
C79   C80   1.379 .      A
C79   C84   1.375 .      A
C80   C81   1.381 1_556  A
C81   C80   1.381 1_554  A
C81   C82   1.371 .      A
C82   C83   1.380 1_554  A
C83   C82   1.380 1_556  A
C83   C84   1.376 .      A
C85   N26   1.421 .      A
C85   N28   1.413 .      A
N26   C86   1.361 .      A
C86   C87   1.361 .      A
C86   C91   1.375 .      A
C87   C88   1.392 .      A
C88   C89   1.364 .      A
C89   C90   1.354 .      A
C90   C91   1.344 .      A
C91   N28   1.315 .      A
C92   C93   1.380 .      A
C92   C97   1.366 .      A
C93   C94   1.382 .      A
C94   C95   1.366 .      A
C95   C96   1.390 .      A
C96   C97   1.371 .      A
C98   N30   1.409 .      A
C98   N32   1.387 .      A
N30   C99   1.349 1_655  A
C99   N30   1.349 1_455  A
C99   C100  1.356 .      A
C99   C104  1.360 .      A
C100  C101  1.374 .      A
C101  C102  1.373 .      A
C102  C103  1.360 .      A
C103  C104  1.363 .      A
C104  N32   1.326 1_455  A
N32   C104  1.326 1_655  A
C105  C106  1.382 .      A
C105  C110  1.367 .      A
C106  C107  1.375 .      A
C107  C108  1.362 .      A
C108  C109  1.362 .      A
C109  C110  1.365 .      A
C111  N34   1.397 .      A
C111  N36   1.392 .      A
N34   C112  1.360 .      A
C112  C113  1.365 .      A
C112  C117  1.366 .      A
C113  C114  1.391 .      A
C114  C115  1.381 .      A
C115  C116  1.358 .      A
C116  C117  1.362 .      A
C117  N36   1.322 .      A
C118  C119  1.366 1_655  A
C118  C123  1.351 .      A
C119  C118  1.366 1_455  A
C119  C120  1.368 .      A
C120  C121  1.367 .      A
C121  C122  1.362 1_455  A
C122  C121  1.362 1_655  A
C122  C123  1.355 .      A
C124  N38   1.400 .      A
C124  N40   1.403 .      A
N38   C125  1.338 .      A
C125  C126  1.371 .      A
C125  C130  1.376 .      A
C126  C127  1.353 .      A
C127  C128  1.367 .      A
C128  C129  1.405 .      A
C129  C130  1.374 .      A
C130  N40   1.365 .      A
C131  C132  1.376 .      A
C131  C136  1.366 .      A
C132  C133  1.365 1_545  A
C133  C132  1.365 1_565  A
C133  C134  1.339 .      A
C134  C135  1.360 1_565  A
C135  C134  1.360 1_545  A
C135  C136  1.361 .      A
C137  N42   1.404 .      A
C137  N44   1.386 .      A
N42   C138  1.349 .      A
C138  C139  1.365 .      A
C138  C143  1.371 .      A
C139  C140  1.369 .      A
C140  C141  1.383 .      A
C141  C142  1.377 .      A
C142  C143  1.368 .      A
C143  N44   1.346 .      A
C144  C145  1.372 .      A
C144  C149  1.372 .      A
C145  C146  1.376 .      A
C146  C147  1.378 .      A
C147  C148  1.360 .      A
C148  C149  1.372 .      A
C150  N46   1.380 1_455  A
C150  N48   1.399 .      A
N46   C150  1.380 1_655  A
N46   C151  1.347 .      A
C151  C152  1.371 .      A
C151  C156  1.369 .      A
C152  C153  1.380 1_565  A
C153  C152  1.380 1_545  A
C153  C154  1.388 .      A
C154  C155  1.384 .      A
C155  C156  1.370 1_545  A
C156  C155  1.370 1_565  A
C156  N48   1.355 1_655  A
N48   C156  1.355 1_455  A
C157  C158  1.375 .      A
C157  C162  1.373 .      A
C158  C159  1.379 .      A
C159  C160  1.379 .      A
C160  C161  1.368 .      A
C161  C162  1.379 .      A
C163  N50   1.416 .      A
C163  N52   1.408 .      A
N50   C164  1.360 .      A
C164  C165  1.377 .      A
C164  C169  1.383 .      A
C165  C166  1.386 .      A
C166  C167  1.364 .      A
C167  C168  1.364 .      A
C168  C169  1.364 .      A
C169  N52   1.340 .      A
C170  C171  1.360 .      A
C170  C175  1.365 .      A
C171  C172  1.355 .      A
C172  C173  1.356 .      A
C173  C174  1.369 .      A
C174  C175  1.370 .      A
C176  N54   1.373 .      A
C176  N56   1.380 .      A
N54   C177  1.347 .      A
C177  C178  1.374 .      A
C177  C182  1.364 .      A
C178  C179  1.384 .      A
C179  C180  1.386 .      A
C180  C181  1.382 .      A
C181  C182  1.363 .      A
C182  N56   1.353 .      A
C183  C184  1.371 1_455  A
C183  C188  1.377 1_455  A
C184  C183  1.371 1_655  A
C184  C185  1.367 .      A
C185  C186  1.353 .      A
C186  C187  1.384 .      A
C187  C188  1.380 .      A
C188  C183  1.377 1_655  A
C189  N58   1.389 .      A
C189  N60   1.377 .      A
N58   C190  1.345 .      A
C190  C191  1.359 .      A
C190  C195  1.353 .      A
C191  C192  1.375 .      A
C192  C193  1.384 .      A
C193  C194  1.383 .      A
C194  C195  1.374 .      A
C195  N60   1.341 .      A
C196  C197  1.372 .      A
C196  C201  1.367 1_455  A
C197  C198  1.352 .      A
C198  C199  1.358 .      A
C199  C200  1.355 .      A
C200  C201  1.367 1_455  A
C201  C196  1.367 1_655  A
C201  C200  1.367 1_655  A
C202  N62   1.379 .      A
C202  N64   1.386 .      A
N62   C203  1.345 .      A
C203  C204  1.383 1_565  A
C203  C208  1.374 .      A
C204  C203  1.383 1_545  A
C204  C205  1.383 .      A
C205  C206  1.386 .      A
C206  C207  1.389 .      A
C207  C208  1.371 1_545  A
C208  C207  1.371 1_565  A
C208  N64   1.357 .      A
C209  C210  1.375 .      A
C209  C214  1.362 .      A
C210  C211  1.373 .      A
C211  C212  1.360 .      A
C212  C213  1.361 .      A
C213  C214  1.378 .      A
C215  N66   1.393 .      A
C215  N68   1.398 1_554  A
N66   C216  1.344 1_554  A
C216  N66   1.344 1_556  A
C216  C217  1.369 1_655  A
C216  C221  1.369 .      A
C217  C216  1.369 1_455  A
C217  C218  1.383 .      A
C218  C219  1.385 1_455  A
C219  C218  1.385 1_655  A
C219  C220  1.382 .      A
C220  C221  1.369 .      A
C221  N68   1.355 .      A
N68   C215  1.398 1_556  A
C222  C223  1.387 .      A
C222  C227  1.383 .      A
C223  C224  1.388 .      A
C224  C225  1.388 .      A
C225  C226  1.382 .      A
C226  C227  1.383 .      A
C228  N70   1.416 .      A
C228  N72   1.393 .      A
N70   C229  1.357 .      A
C229  C230  1.377 1_455  A
C229  C234  1.363 .      A
C230  C229  1.377 1_655  A
C230  C231  1.376 .      A
C231  C232  1.359 .      A
C232  C233  1.358 .      A
C233  C234  1.374 1_655  A
C234  C233  1.374 1_455  A
C234  N72   1.348 .      A
C235  C236  1.364 .      A
C235  C240  1.380 .      A
C236  C237  1.371 .      A
C237  C238  1.357 .      A
C238  C239  1.366 .      A
C239  C240  1.374 .      A
C241  N74   1.394 .      A
C241  N76   1.395 1_455  A
N74   C242  1.340 .      A
C242  C243  1.373 .      A
C242  C247  1.368 .      A
C243  C244  1.384 .      A
C244  C245  1.390 .      A
C245  C246  1.385 .      A
C246  C247  1.357 .      A
C247  N76   1.352 1_455  A
N76   C241  1.395 1_655  A
N76   C247  1.352 1_655  A
C248  C249  1.370 .      A
C248  C253  1.371 .      A
C249  C250  1.383 .      A
C250  C251  1.365 1_554  A
C251  C250  1.365 1_556  A
C251  C252  1.366 .      A
C252  C253  1.373 1_556  A
C253  C252  1.373 1_554  A
C254  N78   1.407 .      A
C254  N80   1.410 .      A
N78   C255  1.347 .      A
C255  C256  1.368 .      A
C255  C260  1.360 .      A
C256  C257  1.370 .      A
C257  C258  1.386 .      A
C258  C259  1.368 .      A
C259  C260  1.338 .      A
C260  N80   1.330 .      A
C261  C262  1.367 .      A
C261  C266  1.362 .      A
C262  C263  1.379 .      A
C263  C264  1.378 .      A
C264  C265  1.379 .      A
C265  C266  1.371 .      A
C267  N82   1.403 .      A
C267  N84   1.395 .      A
N82   C268  1.348 .      A
C268  C269  1.375 .      A
C268  C273  1.370 .      A
C269  C270  1.383 .      A
C270  C271  1.389 .      A
C271  C272  1.385 .      A
C272  C273  1.384 .      A
C273  N84   1.361 .      A
C274  C275  1.366 .      A
C274  C279  1.361 1_454  A
C275  C276  1.369 .      A
C276  C277  1.380 .      A
C277  C278  1.349 .      A
C278  C279  1.359 1_454  A
C279  C274  1.361 1_656  A
C279  C278  1.359 1_656  A
C280  N86   1.382 .      A
C280  N88   1.409 1_455  A
N86   C281  1.342 1_455  A
C281  N86   1.342 1_655  A
C281  C282  1.358 .      A
C281  C286  1.363 .      A
C282  C283  1.369 .      A
C283  C284  1.387 .      A
C284  C285  1.378 .      A
C285  C286  1.374 .      A
C286  N88   1.341 .      A
N88   C280  1.409 1_655  A
C287  C288  1.361 .      A
C287  C292  1.364 .      A
C288  C289  1.385 .      A
C289  C290  1.380 .      A
C290  C291  1.347 .      A
C291  C292  1.383 .      A
C293  N90   1.390 .      A
C293  N92   1.407 .      A
N90   C294  1.349 .      A
C294  C295  1.363 .      A
C294  C299  1.367 .      A
C295  C296  1.383 .      A
C296  C297  1.386 .      A
C297  C298  1.383 .      A
C298  C299  1.380 .      A
C299  N92   1.347 .      A
C300  C301  1.367 .      A
C300  C305  1.367 .      A
C301  C302  1.376 .      A
C302  C303  1.353 .      A
C303  C304  1.377 .      A
C304  C305  1.365 .      A
C306  N94   1.379 .      A
C306  N96   1.372 .      A
N94   C307  1.352 .      A
C307  C308  1.379 .      A
C307  C312  1.358 .      A
C308  C309  1.380 .      A
C309  C310  1.379 1_655  A
C310  C309  1.379 1_455  A
C310  C311  1.374 .      A
C311  C312  1.360 1_455  A
C312  C311  1.360 1_655  A
C312  N96   1.344 .      A
