data_str_m1_o12004_IRR
_audit_creation_date              2015-10-01T06:30:24-0700
_symmetry_space_group_name_H-M    P1
_symmetry_Int_Tables_number       1
_space_group_crystal_system       triclinic
loop_
_symmetry_equiv_pos_as_xyz
  x,y,z
_cell_length_a                    41.1051687
_cell_length_b                    42.0040348
_cell_length_c                    30.1284535
_cell_angle_alpha                 86.8273286
_cell_angle_beta                  94.2922915
_cell_angle_gamma                 118.395280
_cell_volume                      45620.7986385

loop_
_atom_site_label
_atom_site_type_symbol
_atom_site_description
_atom_site_fract_x
_atom_site_fract_y
_atom_site_fract_z
_atom_type_partial_charge
Zn1   Zn    Zn3+2 0.689351 0.091630 0.044551 0.000000
Zn2   Zn    Zn3+2 0.779761 0.637862 0.260601 0.000000
Zn3   Zn    Zn3+2 0.773098 0.642404 0.045088 0.000000
Zn4   Zn    Zn3+2 0.126544 0.241652 0.050248 0.000000
Zn5   Zn    Zn3+2 0.612491 0.192153 0.264325 0.000000
Zn6   Zn    Zn3+2 0.983148 0.971138 0.968044 0.000000
Zn7   Zn    Zn3+2 0.725634 0.474023 0.972925 0.000000
Zn8   Zn    Zn3+2 0.606915 0.635233 0.039257 0.000000
Zn9   Zn    Zn3+2 0.760244 0.341422 0.054828 0.000000
Zn10  Zn    Zn3+2 0.484552 0.477346 0.345391 0.000000
Zn11  Zn    Zn3+2 0.472801 0.470470 0.949102 0.000000
Zn12  Zn    Zn3+2 0.482690 0.232282 0.964785 0.000000
Zn13  Zn    Zn3+2 0.958369 0.198335 0.964209 0.000000
Zn14  Zn    Zn3+2 0.842593 0.242090 0.050573 0.000000
Zn15  Zn    Zn3+2 0.145959 0.097885 0.047148 0.000000
Zn16  Zn    Zn3+2 0.314224 0.345502 0.037364 0.000000
Zn17  Zn    Zn3+2 0.607876 0.189801 0.047885 0.000000
Zn18  Zn    Zn3+2 0.764367 0.341473 0.271412 0.000000
Zn19  Zn    Zn3+2 0.616164 0.634535 0.254703 0.000000
Zn20  Zn    Zn3+2 0.142811 0.255421 0.261239 0.000000
Zn21  Zn    Zn3+2 0.328942 0.193303 0.263335 0.000000
Zn22  Zn    Zn3+2 0.897564 0.045506 0.266011 0.000000
Zn23  Zn    Zn3+2 0.560285 0.394838 0.049072 0.000000
Zn24  Zn    Zn3+2 0.570627 0.400691 0.266308 0.000000
Zn25  Zn    Zn3+2 0.802828 0.007517 0.546152 0.000000
Zn26  Zn    Zn3+2 0.951085 0.007000 0.550238 0.000000
Zn27  Zn    Zn3+2 0.522944 0.295216 0.558435 0.000000
Zn28  Zn    Zn3+2 0.946323 0.149478 0.554523 0.000000
Zn29  Zn    Zn3+2 0.512250 0.437469 0.549746 0.000000
Zn30  Zn    Zn3+2 0.662377 0.442058 0.551298 0.000000
Zn31  Zn    Zn3+2 0.323398 0.192384 0.048988 0.000000
Zn32  Zn    Zn3+2 0.695234 0.092487 0.258975 0.000000
Zn33  Zn    Zn3+2 0.863915 0.812303 0.265373 0.000000
Zn34  Zn    Zn3+2 0.520189 0.293741 0.765150 0.000000
Zn35  Zn    Zn3+2 0.512431 0.434738 0.758727 0.000000
Zn36  Zn    Zn3+2 0.946591 0.001636 0.761046 0.000000
Zn37  Zn    Zn3+2 0.942925 0.146454 0.759617 0.000000
Zn38  Zn    Zn3+2 0.994169 0.972473 0.351623 0.000000
Zn39  Zn    Zn3+2 0.660872 0.435095 0.765845 0.000000
Zn40  Zn    Zn3+2 0.985227 0.208905 0.353696 0.000000
Zn41  Zn    Zn3+2 0.734294 0.966237 0.341369 0.000000
Zn42  Zn    Zn3+2 0.735343 0.476521 0.351773 0.000000
Zn43  Zn    Zn3+2 0.494706 0.234700 0.355035 0.000000
Zn44  Zn    Zn3+2 0.858652 0.814956 0.049190 0.000000
Zn45  Zn    Zn3+2 0.697728 0.812667 0.032014 0.000000
Zn46  Zn    Zn3+2 0.800565 0.006338 0.758298 0.000000
Zn47  Zn    Zn3+2 0.705087 0.813444 0.246520 0.000000
Zn48  Zn    Zn3+2 0.326121 0.347103 0.251741 0.000000
Zn49  Zn    Zn3+2 0.881905 0.029943 0.048359 0.000000
Zn50  Zn    Zn3+2 0.849025 0.240835 0.264103 0.000000
Zn51  Zn    Zn3+2 0.154850 0.102870 0.265432 0.000000
Zn52  Zn    Zn3+2 0.724042 0.968958 0.949518 0.000000
C1    C     C_3   0.767626 0.088758 0.086604 0.000000
N1    N     N_3   0.794343 0.126037 0.095769 0.000000
C2    C     C_3   0.776431 0.148501 0.098860 0.000000
C3    C     C_R   0.770051 0.159924 0.054321 0.000000
N2    N     N_R   0.795355 0.190737 0.031917 0.000000
C4    C     C_R   0.780155 0.183430 0.989785 0.000000
C5    C     C_R   0.794775 0.201550 0.951060 0.000000
C6    C     C_R   0.772890 0.190596 0.911958 0.000000
C7    C     C_R   0.736883 0.162376 0.912303 0.000000
C8    C     C_R   0.723510 0.142563 0.951037 0.000000
C9    C     C_R   0.746371 0.152999 0.988843 0.000000
N3    N     N_R   0.738938 0.137321 0.029386 0.000000
H1    H     H_    0.740234 0.085578 0.075761 0.000000
H2    H     H_    0.777419 0.080122 0.059096 0.000000
H3    H     H_    0.765713 0.071187 0.116089 0.000000
H4    H     H_    0.809846 0.135220 0.067727 0.000000
H5    H     H_    0.750023 0.133596 0.114591 0.000000
H6    H     H_    0.793865 0.172937 0.117703 0.000000
H7    H     H_    0.821973 0.224140 0.951063 0.000000
H8    H     H_    0.783534 0.204912 0.881066 0.000000
H9    H     H_    0.719699 0.154991 0.881759 0.000000
H10   H     H_    0.696020 0.119697 0.951558 0.000000
C10   C     C_3   0.607270 0.109381 0.168031 0.000000
N4    N     N_3   0.634561 0.096785 0.176431 0.000000
C11   C     C_3   0.667157 0.117585 0.150351 0.000000
C12   C     C_R   0.687871 0.097253 0.151996 0.000000
N5    N     N_R   0.685843 0.078802 0.191620 0.000000
C13   C     C_R   0.672162 0.044826 0.177629 0.000000
C14   C     C_R   0.648460 0.014052 0.200230 0.000000
C15   C     C_R   0.631625 0.981773 0.177803 0.000000
C16   C     C_R   0.639493 0.980823 0.134139 0.000000
C17   C     C_R   0.660780 0.012614 0.111120 0.000000
C18   C     C_R   0.674693 0.044635 0.132754 0.000000
N6    N     N_R   0.686023 0.078202 0.114686 0.000000
H11   H     H_    0.579318 0.085629 0.165915 0.000000
H12   H     H_    0.607967 0.125645 0.195898 0.000000
H13   H     H_    0.611967 0.125444 0.136851 0.000000
H14   H     H_    0.621441 0.070323 0.165008 0.000000
H15   H     H_    0.658433 0.119627 0.115878 0.000000
H16   H     H_    0.685433 0.144085 0.164600 0.000000
H17   H     H_    0.641872 0.015024 0.233919 0.000000
H18   H     H_    0.613179 0.957035 0.194848 0.000000
H19   H     H_    0.627412 0.955313 0.117304 0.000000
H20   H     H_    0.665277 0.011915 0.077183 0.000000
C19   C     C_3   0.741805 0.211899 0.072929 0.000000
N7    N     N_3   0.710016 0.176610 0.070032 0.000000
C20   C     C_3   0.687693 0.177230 0.031189 0.000000
C21   C     C_R   0.651739 0.144275 0.030679 0.000000
N8    N     N_R   0.648626 0.109754 0.034828 0.000000
C22   C     C_R   0.613319 0.090011 0.046925 0.000000
C23   C     C_R   0.597972 0.056077 0.066615 0.000000
C24   C     C_R   0.562834 0.041975 0.082140 0.000000
C25   C     C_R   0.544837 0.062828 0.081163 0.000000
C26   C     C_R   0.562376 0.098432 0.066102 0.000000
C27   C     C_R   0.596314 0.111315 0.048263 0.000000
N9    N     N_R   0.619754 0.146173 0.038059 0.000000
H21   H     H_    0.760380 0.211504 0.100992 0.000000
H22   H     H_    0.756077 0.217600 0.042345 0.000000
H23   H     H_    0.733425 0.232926 0.075937 0.000000
H24   H     H_    0.695309 0.175184 0.096913 0.000000
H25   H     H_    0.682065 0.199425 0.035299 0.000000
H26   H     H_    0.701774 0.181010 0.000079 0.000000
H27   H     H_    0.613304 0.041221 0.071738 0.000000
H28   H     H_    0.549991 0.015072 0.096992 0.000000
H29   H     H_    0.518013 0.051966 0.095033 0.000000
H30   H     H_    0.550095 0.115791 0.069406 0.000000
C28   C     C_3   0.751082 0.093993 0.887888 0.000000
N10   N     N_3   0.724652 0.076366 0.922077 0.000000
C29   C     C_3   0.742577 0.068803 0.961828 0.000000
C30   C     C_R   0.713228 0.039112 0.987061 0.000000
N11   N     N_R   0.686257 0.045730 0.004517 0.000000
C31   C     C_R   0.655741 0.013652 0.995926 0.000000
C32   C     C_R   0.619465 0.005847 0.997307 0.000000
C33   C     C_R   0.592187 0.971253 0.986850 0.000000
C34   C     C_R   0.601411 0.945456 0.973894 0.000000
C35   C     C_R   0.638040 0.954246 0.969831 0.000000
C36   C     C_R   0.664725 0.988513 0.980848 0.000000
N12   N     N_R   0.701249 0.003004 0.975206 0.000000
H31   H     H_    0.742807 0.111509 0.866543 0.000000
H32   H     H_    0.779263 0.110712 0.903161 0.000000
H33   H     H_    0.750133 0.073248 0.866011 0.000000
H34   H     H_    0.704277 0.051724 0.909415 0.000000
H35   H     H_    0.762356 0.060067 0.952486 0.000000
H36   H     H_    0.756840 0.093146 0.982369 0.000000
H37   H     H_    0.612312 0.026659 0.002806 0.000000
H38   H     H_    0.563378 0.964540 0.987609 0.000000
H39   H     H_    0.579736 0.918753 0.965159 0.000000
H40   H     H_    0.645211 0.935007 0.957147 0.000000
C37   C     C_3   0.801051 0.722670 0.368122 0.000000
N13   N     N_3   0.769995 0.714842 0.335917 0.000000
C38   C     C_3   0.779819 0.723782 0.289468 0.000000
C39   C     C_R   0.815056 0.724133 0.280353 0.000000
N14   N     N_R   0.848684 0.755899 0.286361 0.000000
C40   C     C_R   0.871066 0.741884 0.301936 0.000000
C41   C     C_R   0.907179 0.760378 0.318267 0.000000
C42   C     C_R   0.924727 0.740432 0.333574 0.000000
C43   C     C_R   0.906100 0.702800 0.332772 0.000000
C44   C     C_R   0.869656 0.684431 0.316332 0.000000
C45   C     C_R   0.852803 0.704584 0.300593 0.000000
N15   N     N_R   0.817487 0.692103 0.284249 0.000000
H41   H     H_    0.809591 0.701332 0.368515 0.000000
H42   H     H_    0.824615 0.749574 0.362360 0.000000
H43   H     H_    0.791834 0.722654 0.401778 0.000000
H44   H     H_    0.758561 0.730956 0.344274 0.000000
H45   H     H_    0.756964 0.704178 0.267696 0.000000
H46   H     H_    0.782614 0.750619 0.282229 0.000000
H47   H     H_    0.921701 0.789556 0.318243 0.000000
H48   H     H_    0.953224 0.754285 0.346359 0.000000
H49   H     H_    0.920236 0.687724 0.345101 0.000000
H50   H     H_    0.855059 0.655221 0.315724 0.000000
C46   C     C_3   0.650098 0.564147 0.154960 0.000000
N16   N     N_3   0.659794 0.575346 0.200663 0.000000
C47   C     C_3   0.679719 0.614353 0.201407 0.000000
C48   C     C_R   0.691042 0.625800 0.247453 0.000000
N17   N     N_R   0.666559 0.629704 0.273285 0.000000
C49   C     C_R   0.684447 0.634168 0.313880 0.000000
C50   C     C_R   0.674694 0.641449 0.353185 0.000000
C51   C     C_R   0.697722 0.645789 0.390893 0.000000
C52   C     C_R   0.729998 0.643203 0.388781 0.000000
C53   C     C_R   0.740374 0.637546 0.348548 0.000000
C54   C     C_R   0.717458 0.633647 0.311633 0.000000
N18   N     N_R   0.724022 0.629967 0.269676 0.000000
H51   H     H_    0.631250 0.534801 0.153946 0.000000
H52   H     H_    0.637825 0.579837 0.137887 0.000000
H53   H     H_    0.673826 0.569253 0.136598 0.000000
H54   H     H_    0.676424 0.565177 0.215420 0.000000
H55   H     H_    0.703301 0.626830 0.180292 0.000000
H56   H     H_    0.660205 0.623465 0.189451 0.000000
H57   H     H_    0.650035 0.644173 0.354633 0.000000
H58   H     H_    0.690639 0.651472 0.422266 0.000000
H59   H     H_    0.747799 0.646902 0.418453 0.000000
H60   H     H_    0.766556 0.637992 0.345726 0.000000
C55   C     C_3   0.725833 0.542635 0.206768 0.000000
N19   N     N_3   0.755747 0.568356 0.180706 0.000000
C56   C     C_3   0.741630 0.589677 0.155931 0.000000
C57   C     C_R   0.770055 0.626915 0.153169 0.000000
N20   N     N_R   0.791190 0.642492 0.191397 0.000000
C58   C     C_R   0.824779 0.663054 0.174637 0.000000
C59   C     C_R   0.858387 0.675037 0.197566 0.000000
C60   C     C_R   0.888964 0.682695 0.174064 0.000000
C61   C     C_R   0.886455 0.682075 0.127978 0.000000
C62   C     C_R   0.853135 0.673182 0.104892 0.000000
C63   C     C_R   0.822372 0.662129 0.129050 0.000000
N21   N     N_R   0.787266 0.641197 0.113849 0.000000
H61   H     H_    0.699238 0.532275 0.187452 0.000000
H62   H     H_    0.729983 0.519310 0.216340 0.000000
H63   H     H_    0.725453 0.556420 0.236585 0.000000
H64   H     H_    0.763015 0.554505 0.159499 0.000000
H65   H     H_    0.730524 0.578264 0.123139 0.000000
H66   H     H_    0.722462 0.590603 0.176540 0.000000
H67   H     H_    0.860097 0.672542 0.232930 0.000000
H68   H     H_    0.915040 0.688912 0.191865 0.000000
H69   H     H_    0.910562 0.687919 0.110054 0.000000
H70   H     H_    0.850776 0.669855 0.069400 0.000000
C64   C     C_3   0.080007 0.105161 0.160828 0.000000
N22   N     N_3   0.096193 0.137475 0.132797 0.000000
C65   C     C_3   0.091171 0.129848 0.086172 0.000000
C66   C     C_R   0.120972 0.156596 0.058530 0.000000
N23   N     N_R   0.124345 0.189629 0.040465 0.000000
C67   C     C_R   0.132562 0.187789 0.998502 0.000000
C68   C     C_R   0.133829 0.210243 0.963169 0.000000
C69   C     C_R   0.139485 0.201581 0.921688 0.000000
C70   C     C_R   0.143495 0.170910 0.916435 0.000000
C71   C     C_R   0.142950 0.149022 0.952829 0.000000
C72   C     C_R   0.137712 0.158463 0.993492 0.000000
N24   N     N_R   0.133981 0.140134 0.032202 0.000000
H71   H     H_    0.098894 0.109185 0.190058 0.000000
H72   H     H_    0.053543 0.101555 0.171858 0.000000
H73   H     H_    0.076856 0.080779 0.145098 0.000000
H74   H     H_    0.123893 0.150741 0.141135 0.000000
H75   H     H_    0.093596 0.105282 0.082289 0.000000
H76   H     H_    0.064184 0.126061 0.071942 0.000000
H77   H     H_    0.129716 0.233340 0.967333 0.000000
H78   H     H_    0.140458 0.218660 0.893097 0.000000
H79   H     H_    0.147471 0.164341 0.883777 0.000000
H80   H     H_    0.146065 0.125167 0.949277 0.000000
C73   C     C_3   0.237624 0.316692 0.891687 0.000000
N25   N     N_3   0.245167 0.325825 0.938478 0.000000
C74   C     C_3   0.210041 0.308627 0.959425 0.000000
C75   C     C_R   0.215985 0.303683 0.007917 0.000000
N26   N     N_R   0.185772 0.281467 0.034387 0.000000
C76   C     C_R   0.204951 0.284315 0.072895 0.000000
C77   C     C_R   0.191069 0.266082 0.110161 0.000000
C78   C     C_R   0.212280 0.273222 0.149129 0.000000
C79   C     C_R   0.249692 0.289936 0.145866 0.000000
C80   C     C_R   0.263333 0.299805 0.104155 0.000000
C81   C     C_R   0.241606 0.302590 0.069999 0.000000
N27   N     N_R   0.251888 0.317434 0.029734 0.000000
H81   H     H_    0.262910 0.333136 0.873342 0.000000
H82   H     H_    0.229435 0.287686 0.887929 0.000000
H83   H     H_    0.215174 0.322366 0.877509 0.000000
H84   H     H_    0.255382 0.353733 0.940416 0.000000
H85   H     H_    0.196281 0.325801 0.954187 0.000000
H86   H     H_    0.192100 0.281776 0.944844 0.000000
H87   H     H_    0.166143 0.242242 0.105643 0.000000
H88   H     H_    0.200059 0.260642 0.180033 0.000000
H89   H     H_    0.267819 0.292720 0.174854 0.000000
H90   H     H_    0.290502 0.305469 0.098547 0.000000
C82   C     C_3   0.052458 0.205335 0.167527 0.000000
N28   N     N_3   0.074145 0.186062 0.173224 0.000000
C83   C     C_3   0.112850 0.205623 0.162068 0.000000
C84   C     C_R   0.124344 0.243093 0.157980 0.000000
N29   N     N_R   0.121679 0.256974 0.116203 0.000000
C85   C     C_R   0.118419 0.285948 0.126241 0.000000
C86   C     C_R   0.111232 0.308131 0.096718 0.000000
C87   C     C_R   0.102808 0.332960 0.114000 0.000000
C88   C     C_R   0.099940 0.333609 0.159564 0.000000
C89   C     C_R   0.107316 0.310828 0.188658 0.000000
C90   C     C_R   0.119331 0.288769 0.171708 0.000000
N30   N     N_R   0.126291 0.263096 0.193407 0.000000
H91   H     H_    0.055887 0.220865 0.136050 0.000000
H92   H     H_    0.023762 0.184304 0.166349 0.000000
H93   H     H_    0.056591 0.222440 0.196232 0.000000
H94   H     H_    0.059639 0.161192 0.158475 0.000000
H95   H     H_    0.131445 0.200102 0.185536 0.000000
H96   H     H_    0.115900 0.199103 0.128871 0.000000
H97   H     H_    0.110945 0.305486 0.061193 0.000000
H98   H     H_    0.096537 0.350658 0.091793 0.000000
H99   H     H_    0.091238 0.351705 0.172437 0.000000
H100  H     H_    0.102881 0.310125 0.223342 0.000000
C91   C     C_3   0.739893 0.210201 0.213494 0.000000
N31   N     N_3   0.716814 0.177801 0.239172 0.000000
C92   C     C_3   0.681683 0.176335 0.241787 0.000000
C93   C     C_R   0.657313 0.146642 0.269462 0.000000
N32   N     N_R   0.656553 0.112835 0.273815 0.000000
C94   C     C_R   0.622584 0.092593 0.289647 0.000000
C95   C     C_R   0.604040 0.055649 0.295423 0.000000
C96   C     C_R   0.569791 0.040395 0.313710 0.000000
C97   C     C_R   0.554890 0.062057 0.325682 0.000000
C98   C     C_R   0.572842 0.098982 0.316843 0.000000
C99   C     C_R   0.605676 0.113417 0.296400 0.000000
N33   N     N_R   0.626024 0.147796 0.281393 0.000000
H101  H     H_    0.769456 0.217959 0.218563 0.000000
H102  H     H_    0.731769 0.205310 0.177702 0.000000
H103  H     H_    0.737984 0.233547 0.224992 0.000000
H104  H     H_    0.727067 0.181525 0.271748 0.000000
H105  H     H_    0.684716 0.201475 0.255120 0.000000
H106  H     H_    0.667059 0.170265 0.209993 0.000000
H107  H     H_    0.615845 0.038978 0.286345 0.000000
H108  H     H_    0.554934 0.011478 0.319754 0.000000
H109  H     H_    0.528854 0.049920 0.341665 0.000000
H110  H     H_    0.562367 0.116057 0.327969 0.000000
C100  C     C_3   0.712266 0.260955 0.158234 0.000000
N34   N     N_3   0.682058 0.229932 0.178035 0.000000
C101  C     C_3   0.658497 0.204926 0.144547 0.000000
C102  C     C_R   0.618945 0.192743 0.151993 0.000000
N35   N     N_R   0.602564 0.191290 0.192032 0.000000
C103  C     C_R   0.568140 0.183811 0.176217 0.000000
C104  C     C_R   0.541614 0.186504 0.197847 0.000000
C105  C     C_R   0.506603 0.173008 0.177964 0.000000
C106  C     C_R   0.499894 0.160702 0.134943 0.000000
C107  C     C_R   0.528914 0.165341 0.110278 0.000000
C108  C     C_R   0.563360 0.178087 0.131591 0.000000
N36   N     N_R   0.595621 0.185646 0.114589 0.000000
H111  H     H_    0.732969 0.276703 0.184735 0.000000
H112  H     H_    0.724238 0.251254 0.134792 0.000000
H113  H     H_    0.703324 0.279298 0.141256 0.000000
H114  H     H_    0.665675 0.238771 0.190475 0.000000
H115  H     H_    0.664716 0.217662 0.111409 0.000000
H116  H     H_    0.663192 0.181669 0.143455 0.000000
H117  H     H_    0.548338 0.201726 0.227244 0.000000
H118  H     H_    0.484947 0.173551 0.195439 0.000000
H119  H     H_    0.472500 0.150528 0.119641 0.000000
H120  H     H_    0.523676 0.157317 0.076360 0.000000
C109  C     C_3   0.610112 0.299284 0.235970 0.000000
N37   N     N_3   0.648375 0.308022 0.248270 0.000000
C110  C     C_3   0.659153 0.284440 0.227654 0.000000
C111  C     C_R   0.679687 0.272421 0.260993 0.000000
N38   N     N_R   0.712207 0.295789 0.284596 0.000000
C112  C     C_R   0.706898 0.278708 0.324812 0.000000
C113  C     C_R   0.727442 0.291397 0.363870 0.000000
C114  C     C_R   0.715445 0.269845 0.402041 0.000000
C115  C     C_R   0.682882 0.236913 0.400791 0.000000
C116  C     C_R   0.662356 0.224555 0.360956 0.000000
C117  C     C_R   0.675604 0.245803 0.323470 0.000000
N39   N     N_R   0.658987 0.239982 0.282610 0.000000
H121  H     H_    0.600494 0.311451 0.259927 0.000000
H122  H     H_    0.608741 0.311668 0.203117 0.000000
H123  H     H_    0.591050 0.269763 0.236722 0.000000
H124  H     H_    0.651499 0.305402 0.282618 0.000000
H125  H     H_    0.633870 0.259928 0.217124 0.000000
H126  H     H_    0.675530 0.297442 0.198704 0.000000
H127  H     H_    0.752383 0.317121 0.364694 0.000000
H128  H     H_    0.731396 0.278878 0.433236 0.000000
H129  H     H_    0.673674 0.220844 0.430996 0.000000
H130  H     H_    0.636901 0.199225 0.359417 0.000000
C118  C     C_3   0.010531 0.050993 0.093869 0.000000
N40   N     N_3   0.039326 0.043259 0.081350 0.000000
C119  C     C_3   0.042670 0.049575 0.034046 0.000000
C120  C     C_R   0.062138 0.031899 0.017705 0.000000
N41   N     N_R   0.100547 0.050059 0.014066 0.000000
C121  C     C_R   0.103638 0.031208 0.981143 0.000000
C122  C     C_R   0.133182 0.042204 0.954938 0.000000
C123  C     C_R   0.129629 0.020977 0.919473 0.000000
C124  C     C_R   0.096319 0.990331 0.909318 0.000000
C125  C     C_R   0.065673 0.981338 0.933430 0.000000
C126  C     C_R   0.069837 0.002301 0.968900 0.000000
N42   N     N_R   0.042216 0.002025 0.990708 0.000000
H131  H     H_    0.021584 0.078904 0.104339 0.000000
H132  H     H_    0.989854 0.046652 0.067129 0.000000
H133  H     H_    0.996475 0.032651 0.120823 0.000000
H134  H     H_    0.030398 0.015775 0.087424 0.000000
H135  H     H_    0.015654 0.036176 0.016720 0.000000
H136  H     H_    0.056196 0.078558 0.024445 0.000000
H137  H     H_    0.157681 0.067803 0.959934 0.000000
H138  H     H_    0.152687 0.028948 0.898652 0.000000
H139  H     H_    0.093819 0.974448 0.881003 0.000000
H140  H     H_    0.039060 0.959070 0.924047 0.000000
C127  C     C_3   0.844551 0.859776 0.903202 0.000000
N43   N     N_3   0.871487 0.857583 0.935199 0.000000
C128  C     C_3   0.886853 0.889277 0.962557 0.000000
C129  C     C_R   0.916569 0.888655 0.991679 0.000000
N44   N     N_R   0.909510 0.860471 0.022554 0.000000
C130  C     C_R   0.944780 0.868992 0.037057 0.000000
C131  C     C_R   0.956292 0.856611 0.074824 0.000000
C132  C     C_R   0.993785 0.870201 0.085286 0.000000
C133  C     C_R   0.019551 0.897327 0.059211 0.000000
C134  C     C_R   0.007852 0.912530 0.024054 0.000000
C135  C     C_R   0.970461 0.898502 0.014223 0.000000
N45   N     N_R   0.953934 0.913689 0.987136 0.000000
H141  H     H_    0.836990 0.839242 0.877435 0.000000
H142  H     H_    0.819708 0.855493 0.920001 0.000000
H143  H     H_    0.856376 0.886819 0.887738 0.000000
H144  H     H_    0.892861 0.858382 0.917937 0.000000
H145  H     H_    0.899029 0.914543 0.942146 0.000000
H146  H     H_    0.864879 0.887728 0.982621 0.000000
H147  H     H_    0.937327 0.840030 0.098555 0.000000
H148  H     H_    0.003011 0.860437 0.114955 0.000000
H149  H     H_    0.048795 0.908086 0.068015 0.000000
H150  H     H_    0.027617 0.935131 0.005485 0.000000
C136  C     C_3   0.007215 0.107005 0.973349 0.000000
N46   N     N_3   0.983085 0.076027 0.999608 0.000000
C137  C     C_3   0.962762 0.045369 0.970554 0.000000
C138  C     C_R   0.940157 0.012334 0.997442 0.000000
N47   N     N_R   0.952908 0.987499 0.001981 0.000000
C139  C     C_R   0.944341 0.974128 0.043282 0.000000
C140  C     C_R   0.961814 0.958046 0.068591 0.000000
C141  C     C_R   0.958201 0.954417 0.113719 0.000000
C142  C     C_R   0.941034 0.970973 0.133064 0.000000
C143  C     C_R   0.925913 0.989220 0.107429 0.000000
C144  C     C_R   0.925311 0.988543 0.062005 0.000000
N48   N     N_R   0.919965 0.011645 0.033128 0.000000
H151  H     H_    0.027680 0.101504 0.958023 0.000000
H152  H     H_    0.990029 0.112531 0.947442 0.000000
H153  H     H_    0.022204 0.130649 0.995134 0.000000
H154  H     H_    0.965029 0.082254 0.014842 0.000000
H155  H     H_    0.948167 0.051094 0.942347 0.000000
H156  H     H_    0.982959 0.039886 0.955044 0.000000
H157  H     H_    0.982958 0.954173 0.055206 0.000000
H158  H     H_    0.973556 0.943663 0.134264 0.000000
H159  H     H_    0.945305 0.975448 0.168283 0.000000
H160  H     H_    0.923877 0.010094 0.123240 0.000000
C145  C     C_3   0.693066 0.376310 0.901213 0.000000
N49   N     N_3   0.699111 0.395220 0.941677 0.000000
C146  C     C_3   0.709900 0.376113 0.975411 0.000000
C147  C     C_R   0.740778 0.402837 0.002048 0.000000
N50   N     N_R   0.750425 0.439730 0.000558 0.000000
C148  C     C_R   0.782082 0.452978 0.026096 0.000000
C149  C     C_R   0.805893 0.488507 0.033528 0.000000
C150  C     C_R   0.835848 0.496859 0.063519 0.000000
C151  C     C_R   0.841039 0.469421 0.085190 0.000000
C152  C     C_R   0.817601 0.433517 0.075202 0.000000
C153  C     C_R   0.789336 0.425947 0.043723 0.000000
N51   N     N_R   0.764169 0.393157 0.028372 0.000000
H161  H     H_    0.678425 0.386602 0.877821 0.000000
H162  H     H_    0.719945 0.382237 0.888112 0.000000
H163  H     H_    0.675864 0.346767 0.906848 0.000000
H164  H     H_    0.674039 0.393499 0.948724 0.000000
H165  H     H_    0.686882 0.358265 0.996085 0.000000
H166  H     H_    0.720262 0.360144 0.959537 0.000000
H167  H     H_    0.801400 0.508897 0.015356 0.000000
H168  H     H_    0.855032 0.524811 0.070589 0.000000
H169  H     H_    0.863959 0.476238 0.109449 0.000000
H170  H     H_    0.821318 0.412116 0.091633 0.000000
C154  C     C_3   0.842915 0.591260 0.042657 0.000000
N52   N     N_3   0.817742 0.582649 0.078286 0.000000
C155  C     C_3   0.780640 0.554040 0.066417 0.000000
C156  C     C_R   0.766698 0.560381 0.021652 0.000000
N53   N     N_R   0.771135 0.595100 0.009650 0.000000
C157  C     C_R   0.768120 0.592826 0.965099 0.000000
C158  C     C_R   0.773407 0.620312 0.935149 0.000000
C159  C     C_R   0.776552 0.615219 0.891082 0.000000
C160  C     C_R   0.774559 0.583056 0.878243 0.000000
C161  C     C_R   0.766749 0.554654 0.908580 0.000000
C162  C     C_R   0.761435 0.559191 0.951714 0.000000
N54   N     N_R   0.755933 0.535612 0.986547 0.000000
H171  H     H_    0.842612 0.613274 0.020906 0.000000
H172  H     H_    0.871445 0.601011 0.057556 0.000000
H173  H     H_    0.835739 0.567383 0.022702 0.000000
H174  H     H_    0.815318 0.605546 0.083212 0.000000
H175  H     H_    0.781017 0.528082 0.069563 0.000000
H176  H     H_    0.761814 0.554397 0.089685 0.000000
H177  H     H_    0.777189 0.645825 0.946207 0.000000
H178  H     H_    0.782066 0.636900 0.866866 0.000000
H179  H     H_    0.778792 0.579994 0.844097 0.000000
H180  H     H_    0.767054 0.530659 0.898800 0.000000
C163  C     C_3   0.687291 0.692970 0.193998 0.000000
N55   N     N_3   0.673397 0.686671 0.147935 0.000000
C164  C     C_3   0.636316 0.682220 0.143318 0.000000
C165  C     C_R   0.609979 0.643858 0.146118 0.000000
N56   N     N_R   0.596101 0.622391 0.108860 0.000000
C166  C     C_R   0.579207 0.588890 0.128470 0.000000
C167  C     C_R   0.564006 0.555622 0.109329 0.000000
C168  C     C_R   0.559984 0.526070 0.134592 0.000000
C169  C     C_R   0.571126 0.530018 0.178830 0.000000
C170  C     C_R   0.581430 0.562020 0.199586 0.000000
C171  C     C_R   0.584768 0.590936 0.173678 0.000000
N57   N     N_R   0.603259 0.625211 0.186451 0.000000
H181  H     H_    0.711888 0.688919 0.199537 0.000000
H182  H     H_    0.695416 0.720636 0.202682 0.000000
H183  H     H_    0.665932 0.674798 0.215942 0.000000
H184  H     H_    0.671883 0.662999 0.136896 0.000000
H185  H     H_    0.631427 0.697100 0.168541 0.000000
H186  H     H_    0.632556 0.691899 0.110243 0.000000
H187  H     H_    0.557963 0.551661 0.075060 0.000000
H188  H     H_    0.551460 0.500608 0.118825 0.000000
H189  H     H_    0.574515 0.508730 0.195721 0.000000
H190  H     H_    0.592211 0.565728 0.233559 0.000000
C172  C     C_3   0.739237 0.684303 0.922041 0.000000
N58   N     N_3   0.745048 0.688155 0.970104 0.000000
C173  C     C_3   0.711564 0.684844 0.987389 0.000000
C174  C     C_R   0.698120 0.656096 0.022329 0.000000
N59   N     N_R   0.661070 0.638099 0.033840 0.000000
C175  C     C_R   0.659523 0.607601 0.050212 0.000000
C176  C     C_R   0.627950 0.576897 0.051872 0.000000
C177  C     C_R   0.629335 0.545364 0.056277 0.000000
C178  C     C_R   0.661808 0.546003 0.048331 0.000000
C179  C     C_R   0.694127 0.576829 0.051182 0.000000
C180  C     C_R   0.692653 0.607914 0.052144 0.000000
N60   N     N_R   0.719007 0.638931 0.037057 0.000000
H191  H     H_    0.765981 0.691576 0.907578 0.000000
H192  H     H_    0.719227 0.655849 0.913926 0.000000
H193  H     H_    0.728991 0.702838 0.907137 0.000000
H194  H     H_    0.765667 0.714553 0.975886 0.000000
H195  H     H_    0.717422 0.710909 0.001345 0.000000
H196  H     H_    0.689925 0.676086 0.960208 0.000000
H197  H     H_    0.603653 0.577815 0.041415 0.000000
H198  H     H_    0.604767 0.520586 0.060774 0.000000
H199  H     H_    0.662119 0.523429 0.035858 0.000000
H200  H     H_    0.718973 0.576189 0.047925 0.000000
C181  C     C_3   0.640947 0.718064 0.887900 0.000000
N61   N     N_3   0.639677 0.732459 0.930105 0.000000
C182  C     C_3   0.657503 0.719405 0.964264 0.000000
C183  C     C_R   0.646426 0.722471 0.008573 0.000000
N62   N     N_R   0.650765 0.755728 0.022607 0.000000
C184  C     C_R   0.619432 0.744039 0.044474 0.000000
C185  C     C_R   0.608223 0.764939 0.065474 0.000000
C186  C     C_R   0.575660 0.747501 0.087490 0.000000
C187  C     C_R   0.555956 0.709874 0.089876 0.000000
C188  C     C_R   0.568284 0.688996 0.069838 0.000000
C189  C     C_R   0.599772 0.706723 0.046575 0.000000
N63   N     N_R   0.617230 0.691631 0.026601 0.000000
H201  H     H_    0.634141 0.732854 0.860305 0.000000
H202  H     H_    0.669045 0.721444 0.884148 0.000000
H203  H     H_    0.620368 0.688935 0.886445 0.000000
H204  H     H_    0.611834 0.721468 0.937081 0.000000
H205  H     H_    0.647015 0.690535 0.959040 0.000000
H206  H     H_    0.687489 0.734349 0.962384 0.000000
H207  H     H_    0.624191 0.793975 0.064648 0.000000
H208  H     H_    0.565649 0.763362 0.103336 0.000000
H209  H     H_    0.530907 0.696799 0.107854 0.000000
H210  H     H_    0.553507 0.659773 0.072188 0.000000
C190  C     C_3   0.788344 0.278017 0.911046 0.000000
N64   N     N_3   0.790125 0.297136 0.950623 0.000000
C191  C     C_3   0.778223 0.271423 0.988126 0.000000
C192  C     C_R   0.798439 0.289867 0.029391 0.000000
N65   N     N_R   0.830796 0.287313 0.038176 0.000000
C193  C     C_R   0.855873 0.322329 0.043339 0.000000
C194  C     C_R   0.893413 0.336155 0.050836 0.000000
C195  C     C_R   0.914329 0.373197 0.055614 0.000000
C196  C     C_R   0.897530 0.395282 0.052265 0.000000
C197  C     C_R   0.859446 0.380631 0.045653 0.000000
C198  C     C_R   0.838842 0.343839 0.042831 0.000000
N66   N     N_R   0.801506 0.323844 0.037948 0.000000
H211  H     H_    0.789177 0.294963 0.881165 0.000000
H212  H     H_    0.812549 0.273093 0.911694 0.000000
H213  H     H_    0.762250 0.252071 0.909146 0.000000
H214  H     H_    0.817957 0.315826 0.956511 0.000000
H215  H     H_    0.748114 0.256891 0.990805 0.000000
H216  H     H_    0.787091 0.251248 0.983207 0.000000
H217  H     H_    0.906182 0.318756 0.052657 0.000000
H218  H     H_    0.944055 0.385148 0.061098 0.000000
H219  H     H_    0.914420 0.424277 0.054582 0.000000
H220  H     H_    0.846748 0.397738 0.040301 0.000000
C199  C     C_3   0.611383 0.279739 0.126078 0.000000
N67   N     N_3   0.646680 0.281603 0.119592 0.000000
C200  C     C_3   0.652606 0.286825 0.072792 0.000000
C201  C     C_R   0.675748 0.272146 0.057428 0.000000
N68   N     N_R   0.707621 0.296687 0.036586 0.000000
C202  C     C_R   0.702169 0.281435 0.996740 0.000000
C203  C     C_R   0.720585 0.296948 0.958871 0.000000
C204  C     C_R   0.709934 0.276036 0.921218 0.000000
C205  C     C_R   0.683377 0.239803 0.923082 0.000000
C206  C     C_R   0.663404 0.225428 0.960712 0.000000
C207  C     C_R   0.672621 0.247592 0.996453 0.000000
N69   N     N_R   0.655679 0.239957 0.035052 0.000000
H221  H     H_    0.614608 0.307433 0.124869 0.000000
H222  H     H_    0.589598 0.262003 0.101775 0.000000
H223  H     H_    0.601544 0.266386 0.158357 0.000000
H224  H     H_    0.642199 0.255876 0.126787 0.000000
H225  H     H_    0.626085 0.272396 0.054409 0.000000
H226  H     H_    0.664861 0.315206 0.062989 0.000000
H227  H     H_    0.743745 0.323899 0.958772 0.000000
H228  H     H_    0.723776 0.287466 0.890739 0.000000
H229  H     H_    0.676576 0.223428 0.893965 0.000000
H230  H     H_    0.640701 0.198144 0.961414 0.000000
C208  C     C_3   0.879475 0.420570 0.170963 0.000000
N70   N     N_3   0.841046 0.402571 0.182783 0.000000
C209  C     C_3   0.823519 0.366253 0.165769 0.000000
C210  C     C_R   0.782544 0.350332 0.164492 0.000000
N71   N     N_R   0.762879 0.348560 0.124147 0.000000
C211  C     C_R   0.736634 0.355598 0.137334 0.000000
C212  C     C_R   0.713202 0.364009 0.111122 0.000000
C213  C     C_R   0.687372 0.369157 0.131484 0.000000
C214  C     C_R   0.687591 0.368377 0.177266 0.000000
C215  C     C_R   0.715407 0.365676 0.202927 0.000000
C216  C     C_R   0.737960 0.357161 0.182173 0.000000
N72   N     N_R   0.764821 0.351196 0.201543 0.000000
H231  H     H_    0.881200 0.427369 0.134860 0.000000
H232  H     H_    0.894946 0.445879 0.189872 0.000000
H233  H     H_    0.892098 0.402658 0.179305 0.000000
H234  H     H_    0.827998 0.416682 0.167479 0.000000
H235  H     H_    0.831139 0.368488 0.131076 0.000000
H236  H     H_    0.833078 0.349902 0.187225 0.000000
H237  H     H_    0.713247 0.364743 0.075772 0.000000
H238  H     H_    0.666541 0.373126 0.111792 0.000000
H239  H     H_    0.665728 0.369789 0.192481 0.000000
H240  H     H_    0.718638 0.367275 0.238224 0.000000
C217  C     C_3   0.610690 0.579839 0.420428 0.000000
N73   N     N_3   0.577070 0.563884 0.391810 0.000000
C218  C     C_3   0.586232 0.561928 0.346636 0.000000
C219  C     C_R   0.556418 0.560921 0.315823 0.000000
N74   N     N_R   0.564259 0.589110 0.284215 0.000000
C220  C     C_R   0.529358 0.579331 0.267039 0.000000
C221  C     C_R   0.518889 0.593227 0.229664 0.000000
C222  C     C_R   0.481498 0.580047 0.218798 0.000000
C223  C     C_R   0.455233 0.552585 0.244193 0.000000
C224  C     C_R   0.465961 0.535713 0.278461 0.000000
C225  C     C_R   0.503105 0.548820 0.288360 0.000000
N75   N     N_R   0.518731 0.534395 0.318084 0.000000
H241  H     H_    0.604286 0.568290 0.454624 0.000000
H242  H     H_    0.631961 0.573945 0.408061 0.000000
H243  H     H_    0.621103 0.609429 0.421602 0.000000
H244  H     H_    0.565476 0.581286 0.391083 0.000000
H245  H     H_    0.611466 0.586326 0.338037 0.000000
H246  H     H_    0.590716 0.538597 0.341680 0.000000
H247  H     H_    0.538761 0.613058 0.208219 0.000000
H248  H     H_    0.472662 0.591427 0.190350 0.000000
H249  H     H_    0.426240 0.543759 0.236234 0.000000
H250  H     H_    0.445795 0.513418 0.297472 0.000000
C226  C     C_3   0.366647 0.466652 0.229096 0.000000
N76   N     N_3   0.369815 0.434509 0.220957 0.000000
C227  C     C_3   0.406132 0.440164 0.237864 0.000000
C228  C     C_R   0.403366 0.421388 0.281570 0.000000
N77   N     N_R   0.369013 0.391897 0.290201 0.000000
C229  C     C_R   0.367388 0.395541 0.333758 0.000000
C230  C     C_R   0.337687 0.375514 0.359160 0.000000
C231  C     C_R   0.339659 0.386188 0.402315 0.000000
C232  C     C_R   0.370257 0.417147 0.418232 0.000000
C233  C     C_R   0.400038 0.436849 0.392051 0.000000
C234  C     C_R   0.399008 0.424624 0.350422 0.000000
N78   N     N_R   0.424783 0.440553 0.319495 0.000000
H251  H     H_    0.384996 0.489118 0.207131 0.000000
H252  H     H_    0.337862 0.461340 0.220494 0.000000
H253  H     H_    0.373558 0.473895 0.264691 0.000000
H254  H     H_    0.369287 0.433102 0.186428 0.000000
H255  H     H_    0.417057 0.429621 0.213372 0.000000
H256  H     H_    0.423809 0.469163 0.243401 0.000000
H257  H     H_    0.313221 0.352873 0.345433 0.000000
H258  H     H_    0.316661 0.371344 0.423234 0.000000
H259  H     H_    0.370584 0.426314 0.451162 0.000000
H260  H     H_    0.421788 0.462423 0.402966 0.000000
C235  C     C_3   0.468275 0.512512 0.099462 0.000000
N79   N     N_3   0.489517 0.515068 0.061711 0.000000
C236  C     C_3   0.500159 0.549929 0.039207 0.000000
C237  C     C_R   0.525172 0.555497 0.002728 0.000000
N80   N     N_R   0.559392 0.588078 0.998941 0.000000
C238  C     C_R   0.566202 0.585431 0.956878 0.000000
C239  C     C_R   0.596953 0.609598 0.935448 0.000000
C240  C     C_R   0.600097 0.603190 0.891986 0.000000
C241  C     C_R   0.572844 0.572503 0.871249 0.000000
C242  C     C_R   0.542817 0.547414 0.894060 0.000000
C243  C     C_R   0.539605 0.553709 0.937467 0.000000
N81   N     N_R   0.513496 0.531628 0.966340 0.000000
H261  H     H_    0.453038 0.483870 0.110918 0.000000
H262  H     H_    0.487229 0.529145 0.126866 0.000000
H263  H     H_    0.448320 0.522707 0.090121 0.000000
H264  H     H_    0.473074 0.494360 0.039867 0.000000
H265  H     H_    0.475588 0.551797 0.025058 0.000000
H266  H     H_    0.514301 0.572148 0.063205 0.000000
H267  H     H_    0.618326 0.632597 0.952514 0.000000
H268  H     H_    0.624011 0.621973 0.874257 0.000000
H269  H     H_    0.575627 0.567501 0.837291 0.000000
H270  H     H_    0.523436 0.523512 0.877793 0.000000
C244  C     C_3   0.337477 0.392352 0.855953 0.000000
N82   N     N_3   0.341385 0.396792 0.903874 0.000000
C245  C     C_3   0.372026 0.390746 0.921028 0.000000
C246  C     C_R   0.383714 0.404919 0.967167 0.000000
N83   N     N_R   0.413394 0.440512 0.970615 0.000000
C247  C     C_R   0.399595 0.454114 0.998699 0.000000
C248  C     C_R   0.410274 0.489982 0.002932 0.000000
C249  C     C_R   0.389989 0.499318 0.029034 0.000000
C250  C     C_R   0.359209 0.472686 0.049482 0.000000
C251  C     C_R   0.347211 0.436442 0.042114 0.000000
C252  C     C_R   0.367316 0.427617 0.015933 0.000000
N84   N     N_R   0.356567 0.394734 0.998923 0.000000
H271  H     H_    0.311654 0.392557 0.842811 0.000000
H272  H     H_    0.361276 0.415020 0.839901 0.000000
H273  H     H_    0.336063 0.366223 0.848088 0.000000
H274  H     H_    0.317267 0.376894 0.917367 0.000000
H275  H     H_    0.364771 0.361970 0.919729 0.000000
H276  H     H_    0.395337 0.406622 0.899365 0.000000
H277  H     H_    0.432307 0.509958 0.983734 0.000000
H278  H     H_    0.397751 0.527515 0.032871 0.000000
H279  H     H_    0.343332 0.480490 0.069110 0.000000
H280  H     H_    0.321376 0.415876 0.053422 0.000000
C253  C     C_3   0.614978 0.255587 0.909631 0.000000
N85   N     N_3   0.579997 0.233372 0.929779 0.000000
C254  C     C_3   0.581194 0.245037 0.974890 0.000000
C255  C     C_R   0.552226 0.215334 0.998693 0.000000
N86   N     N_R   0.515990 0.204749 0.982249 0.000000
C256  C     C_R   0.503938 0.169337 0.975337 0.000000
C257  C     C_R   0.471701 0.145938 0.952874 0.000000
C258  C     C_R   0.465942 0.111324 0.945990 0.000000
C259  C     C_R   0.492977 0.101434 0.959723 0.000000
C260  C     C_R   0.525592 0.125621 0.981755 0.000000
C261  C     C_R   0.529845 0.159020 0.991046 0.000000
N87   N     N_R   0.560053 0.187212 0.009620 0.000000
H281  H     H_    0.611995 0.274021 0.885331 0.000000
H282  H     H_    0.637288 0.272628 0.933809 0.000000
H283  H     H_    0.621973 0.237911 0.891062 0.000000
H284  H     H_    0.576705 0.207174 0.931048 0.000000
H285  H     H_    0.607706 0.251167 0.991732 0.000000
H286  H     H_    0.574791 0.267171 0.974702 0.000000
H287  H     H_    0.451531 0.154276 0.940972 0.000000
H288  H     H_    0.440791 0.092248 0.928425 0.000000
H289  H     H_    0.488935 0.074913 0.952083 0.000000
H290  H     H_    0.547809 0.119139 0.988240 0.000000
C262  C     C_3   0.369742 0.229709 0.881234 0.000000
N88   N     N_3   0.365525 0.211541 0.924279 0.000000
C263  C     C_3   0.395532 0.235234 0.954488 0.000000
C264  C     C_R   0.399157 0.212932 0.991600 0.000000
N89   N     N_R   0.370134 0.191690 0.019133 0.000000
C265  C     C_R   0.380990 0.167558 0.035586 0.000000
C266  C     C_R   0.361958 0.138745 0.063613 0.000000
C267  C     C_R   0.377307 0.116740 0.077298 0.000000
C268  C     C_R   0.412051 0.124917 0.064403 0.000000
C269  C     C_R   0.431829 0.155226 0.038011 0.000000
C270  C     C_R   0.415175 0.175482 0.021869 0.000000
N90   N     N_R   0.428224 0.204567 0.993514 0.000000
H291  H     H_    0.344817 0.213939 0.859251 0.000000
H292  H     H_    0.373094 0.257144 0.885492 0.000000
H293  H     H_    0.394300 0.231954 0.865768 0.000000
H294  H     H_    0.367709 0.188106 0.920729 0.000000
H295  H     H_    0.421685 0.246663 0.937434 0.000000
H296  H     H_    0.390334 0.256727 0.966543 0.000000
H297  H     H_    0.335032 0.132437 0.073085 0.000000
H298  H     H_    0.362349 0.093325 0.098515 0.000000
H299  H     H_    0.424089 0.107771 0.075799 0.000000
H300  H     H_    0.459686 0.162598 0.031798 0.000000
C271  C     C_3   0.994421 0.266551 0.101702 0.000000
N91   N     N_3   0.973598 0.262820 0.059403 0.000000
C272  C     C_3   0.935184 0.236240 0.065494 0.000000
C273  C     C_R   0.913024 0.229450 0.022091 0.000000
N92   N     N_R   0.928560 0.226829 0.983545 0.000000
C274  C     C_R   0.919798 0.247785 0.955151 0.000000
C275  C     C_R   0.937075 0.264210 0.917029 0.000000
C276  C     C_R   0.927105 0.288195 0.894505 0.000000
C277  C     C_R   0.901282 0.296201 0.911299 0.000000
C278  C     C_R   0.886085 0.281377 0.951654 0.000000
C279  C     C_R   0.895961 0.257333 0.973214 0.000000
N93   N     N_R   0.888636 0.244048 0.015159 0.000000
H301  H     H_    0.023320 0.288105 0.098300 0.000000
H302  H     H_    0.981896 0.274002 0.127944 0.000000
H303  H     H_    0.994697 0.240807 0.111241 0.000000
H304  H     H_    0.984634 0.253245 0.036851 0.000000
H305  H     H_    0.933399 0.211065 0.080775 0.000000
H306  H     H_    0.924390 0.248550 0.087823 0.000000
H307  H     H_    0.959038 0.259800 0.906204 0.000000
H308  H     H_    0.940030 0.301319 0.864023 0.000000
H309  H     H_    0.894147 0.315318 0.893602 0.000000
H310  H     H_    0.867887 0.289295 0.966155 0.000000
C280  C     C_3   0.115962 0.290345 0.901178 0.000000
N94   N     N_3   0.106859 0.280816 0.947384 0.000000
C281  C     C_3   0.067667 0.269246 0.949792 0.000000
C282  C     C_R   0.052540 0.243345 0.987893 0.000000
N95   N     N_R   0.074603 0.234947 0.019162 0.000000
C283  C     C_R   0.047650 0.208897 0.043037 0.000000
C284  C     C_R   0.049492 0.182733 0.069927 0.000000
C285  C     C_R   0.017204 0.154756 0.085491 0.000000
C286  C     C_R   0.984817 0.156559 0.079064 0.000000
C287  C     C_R   0.983667 0.183038 0.051870 0.000000
C288  C     C_R   0.014133 0.205252 0.030698 0.000000
N96   N     N_R   0.014359 0.223425 0.993635 0.000000
H311  H     H_    0.146411 0.304764 0.898997 0.000000
H312  H     H_    0.104430 0.265442 0.881356 0.000000
H313  H     H_    0.104543 0.308292 0.887570 0.000000
H314  H     H_    0.121440 0.304261 0.965916 0.000000
H315  H     H_    0.063575 0.293104 0.954283 0.000000
H316  H     H_    0.052552 0.255911 0.918569 0.000000
H317  H     H_    0.074885 0.183579 0.078473 0.000000
H318  H     H_    0.017371 0.132751 0.105453 0.000000
H319  H     H_    0.960295 0.136827 0.093770 0.000000
H320  H     H_    0.959394 0.185796 0.044659 0.000000
C289  C     C_3   0.843922 0.122397 0.985423 0.000000
N97   N     N_3   0.875114 0.148598 0.012234 0.000000
C290  C     C_3   0.888881 0.130269 0.044692 0.000000
C291  C     C_R   0.912178 0.119659 0.021990 0.000000
N98   N     N_R   0.902359 0.083140 0.018684 0.000000
C292  C     C_R   0.906521 0.082107 0.975420 0.000000
C293  C     C_R   0.890957 0.051724 0.950762 0.000000
C294  C     C_R   0.891542 0.056032 0.905521 0.000000
C295  C     C_R   0.899925 0.089744 0.886751 0.000000
C296  C     C_R   0.912858 0.118871 0.912816 0.000000
C297  C     C_R   0.921199 0.115655 0.956027 0.000000
N99   N     N_R   0.928747 0.141165 0.985312 0.000000
H321  H     H_    0.847876 0.099158 0.978005 0.000000
H322  H     H_    0.818513 0.112520 0.003629 0.000000
H323  H     H_    0.840720 0.135661 0.953770 0.000000
H324  H     H_    0.864220 0.161432 0.029805 0.000000
H325  H     H_    0.906608 0.149107 0.070538 0.000000
H326  H     H_    0.865511 0.106868 0.058922 0.000000
H327  H     H_    0.881506 0.025544 0.965709 0.000000
H328  H     H_    0.882102 0.032490 0.885376 0.000000
H329  H     H_    0.895219 0.093891 0.851784 0.000000
H330  H     H_    0.909056 0.141057 0.901920 0.000000
C298  C     C_3   0.848076 0.077752 0.143899 0.000000
N100  N     N_3   0.887780 0.098539 0.155733 0.000000
C299  C     C_3   0.905940 0.081440 0.136003 0.000000
C300  C     C_R   0.889231 0.045108 0.151100 0.000000
N101  N     N_R   0.883315 0.031813 0.195114 0.000000
C301  C     C_R   0.862647 0.996260 0.187380 0.000000
C302  C     C_R   0.851868 0.968749 0.218507 0.000000
C303  C     C_R   0.833831 0.933767 0.203418 0.000000
C304  C     C_R   0.827582 0.927149 0.158354 0.000000
C305  C     C_R   0.839375 0.955330 0.127148 0.000000
C306  C     C_R   0.856354 0.989651 0.142555 0.000000
N102  N     N_R   0.873178 0.020525 0.118352 0.000000
H331  H     H_    0.842996 0.065950 0.110932 0.000000
H332  H     H_    0.834248 0.055673 0.168589 0.000000
H333  H     H_    0.834603 0.095041 0.143377 0.000000
H334  H     H_    0.898773 0.123396 0.139650 0.000000
H335  H     H_    0.900569 0.081083 0.099960 0.000000
H336  H     H_    0.935959 0.093379 0.140416 0.000000
H337  H     H_    0.858405 0.974225 0.253372 0.000000
H338  H     H_    0.825444 0.911106 0.226442 0.000000
H339  H     H_    0.813018 0.899484 0.148118 0.000000
H340  H     H_    0.835436 0.950827 0.091825 0.000000
C307  C     C_3   0.884954 0.916269 0.395302 0.000000
N103  N     N_3   0.913170 0.950810 0.378918 0.000000
C308  C     C_3   0.904136 0.957882 0.333222 0.000000
C309  C     C_R   0.933299 0.993597 0.317684 0.000000
N104  N     N_R   0.927384 0.018548 0.289990 0.000000
C310  C     C_R   0.956537 0.031346 0.265319 0.000000
C311  C     C_R   0.960924 0.051888 0.227763 0.000000
C312  C     C_R   0.985809 0.053969 0.198913 0.000000
C313  C     C_R   0.004829 0.034501 0.208493 0.000000
C314  C     C_R   0.000930 0.015349 0.248164 0.000000
C315  C     C_R   0.978783 0.016754 0.277894 0.000000
N105  N     N_R   0.967068 0.995731 0.314246 0.000000
H341  H     H_    0.862810 0.918336 0.410562 0.000000
H342  H     H_    0.872823 0.897272 0.367658 0.000000
H343  H     H_    0.897647 0.906118 0.422257 0.000000
H344  H     H_    0.934794 0.945325 0.375440 0.000000
H345  H     H_    0.903953 0.937172 0.312227 0.000000
H346  H     H_    0.877257 0.955812 0.328326 0.000000
H347  H     H_    0.945402 0.065765 0.220975 0.000000
H348  H     H_    0.989051 0.069779 0.168608 0.000000
H349  H     H_    0.022097 0.033609 0.184361 0.000000
H350  H     H_    0.010141 0.995811 0.253372 0.000000
C316  C     C_3   0.997188 0.106680 0.355063 0.000000
N106  N     N_3   0.960496 0.082954 0.369586 0.000000
C317  C     C_3   0.937791 0.101071 0.365135 0.000000
C318  C     C_R   0.943262 0.121423 0.323393 0.000000
N107  N     N_R   0.961575 0.159104 0.321673 0.000000
C319  C     C_R   0.960962 0.165645 0.278214 0.000000
C320  C     C_R   0.975614 0.199317 0.257900 0.000000
C321  C     C_R   0.974038 0.201247 0.212374 0.000000
C322  C     C_R   0.962487 0.169967 0.189343 0.000000
C323  C     C_R   0.951539 0.137216 0.211879 0.000000
C324  C     C_R   0.945258 0.134415 0.255337 0.000000
N108  N     N_R   0.931643 0.104451 0.282541 0.000000
H351  H     H_    0.996074 0.110143 0.318921 0.000000
H352  H     H_    0.008748 0.132575 0.371903 0.000000
H353  H     H_    0.015149 0.093978 0.362309 0.000000
H354  H     H_    0.949262 0.062020 0.347553 0.000000
H355  H     H_    0.908165 0.080784 0.363257 0.000000
H356  H     H_    0.944802 0.119479 0.393215 0.000000
H357  H     H_    0.987957 0.223771 0.276406 0.000000
H358  H     H_    0.984326 0.227135 0.195042 0.000000
H359  H     H_    0.964144 0.171712 0.153791 0.000000
H360  H     H_    0.953094 0.115912 0.198175 0.000000
C325  C     C_3   0.851063 0.109378 0.251243 0.000000
N109  N     N_3   0.850015 0.077536 0.272335 0.000000
C326  C     C_3   0.812424 0.048397 0.267468 0.000000
C327  C     C_R   0.813586 0.017338 0.289915 0.000000
N110  N     N_R   0.848154 0.020408 0.298762 0.000000
C328  C     C_R   0.842632 0.998909 0.334764 0.000000
C329  C     C_R   0.868161 0.998884 0.365209 0.000000
C330  C     C_R   0.856207 0.974741 0.400676 0.000000
C331  C     C_R   0.819176 0.950558 0.403329 0.000000
C332  C     C_R   0.793710 0.953965 0.374864 0.000000
C333  C     C_R   0.806658 0.980835 0.343392 0.000000
N111  N     N_R   0.786705 0.992353 0.317301 0.000000
H361  H     H_    0.826993 0.111648 0.260089 0.000000
H362  H     H_    0.877086 0.133354 0.261934 0.000000
H363  H     H_    0.849019 0.106756 0.215440 0.000000
H364  H     H_    0.856140 0.082907 0.306168 0.000000
H365  H     H_    0.793582 0.055235 0.284224 0.000000
H366  H     H_    0.804034 0.042579 0.231914 0.000000
H367  H     H_    0.896694 0.016471 0.361077 0.000000
H368  H     H_    0.876204 0.974383 0.425728 0.000000
H369  H     H_    0.809860 0.928473 0.426501 0.000000
H370  H     H_    0.764790 0.934956 0.376514 0.000000
C334  C     C_3   0.613238 0.327088 0.019123 0.000000
N112  N     N_3   0.618909 0.359248 0.994180 0.000000
C335  C     C_3   0.639762 0.389163 0.022518 0.000000
C336  C     C_R   0.638034 0.421006 0.003707 0.000000
N113  N     N_R   0.672487 0.451362 0.000968 0.000000
C337  C     C_R   0.671151 0.469862 0.034473 0.000000
C338  C     C_R   0.700158 0.487134 0.063750 0.000000
C339  C     C_R   0.693644 0.496804 0.103588 0.000000
C340  C     C_R   0.658157 0.488645 0.113624 0.000000
C341  C     C_R   0.628516 0.467562 0.085699 0.000000
C342  C     C_R   0.635911 0.456781 0.047496 0.000000
N114  N     N_R   0.613147 0.426802 0.025810 0.000000
H371  H     H_    0.583743 0.308067 0.018583 0.000000
H372  H     H_    0.627952 0.315102 0.003041 0.000000
H373  H     H_    0.623134 0.333101 0.054101 0.000000
H374  H     H_    0.593479 0.358344 0.987011 0.000000
H375  H     H_    0.626550 0.383995 0.054731 0.000000
H376  H     H_    0.668811 0.394704 0.028442 0.000000
H377  H     H_    0.725762 0.487638 0.057996 0.000000
H378  H     H_    0.716077 0.508810 0.127880 0.000000
H379  H     H_    0.653100 0.496695 0.144378 0.000000
H380  H     H_    0.600881 0.460613 0.093578 0.000000
C343  C     C_3   0.601834 0.524278 0.954990 0.000000
N115  N     N_3   0.567253 0.491319 0.956973 0.000000
C344  C     C_3   0.559522 0.478805 0.002242 0.000000
C345  C     C_R   0.526256 0.443643 0.001750 0.000000
N116  N     N_R   0.493379 0.438857 0.981427 0.000000
C346  C     C_R   0.471420 0.403210 0.988404 0.000000
C347  C     C_R   0.439673 0.381360 0.965128 0.000000
C348  C     C_R   0.420051 0.345689 0.978681 0.000000
C349  C     C_R   0.434405 0.332358 0.013345 0.000000
C350  C     C_R   0.470462 0.353252 0.029898 0.000000
C351  C     C_R   0.489172 0.388261 0.013925 0.000000
N117  N     N_R   0.525156 0.412284 0.020142 0.000000
H381  H     H_    0.624466 0.518612 0.967753 0.000000
H382  H     H_    0.605782 0.533958 0.920019 0.000000
H383  H     H_    0.600950 0.545176 0.974348 0.000000
H384  H     H_    0.545797 0.495624 0.943270 0.000000
H385  H     H_    0.582432 0.474830 0.017745 0.000000
H386  H     H_    0.553663 0.497724 0.020073 0.000000
H387  H     H_    0.433026 0.391229 0.934379 0.000000
H388  H     H_    0.394364 0.327838 0.961163 0.000000
H389  H     H_    0.418341 0.304738 0.024639 0.000000
H390  H     H_    0.482577 0.342633 0.055544 0.000000
C352  C     C_3   0.460394 0.315841 0.911528 0.000000
N118  N     N_3   0.495607 0.315906 0.913182 0.000000
C353  C     C_3   0.519115 0.339958 0.948026 0.000000
C354  C     C_R   0.520660 0.320595 0.990282 0.000000
N119  N     N_R   0.536973 0.339903 0.029039 0.000000
C355  C     C_R   0.532760 0.313250 0.058295 0.000000
C356  C     C_R   0.547541 0.316968 0.100637 0.000000
C357  C     C_R   0.541953 0.286093 0.124317 0.000000
C358  C     C_R   0.520716 0.252392 0.106157 0.000000
C359  C     C_R   0.507722 0.249171 0.062425 0.000000
C360  C     C_R   0.514965 0.280295 0.038839 0.000000
N120  N     N_R   0.507684 0.283292 0.995130 0.000000
H391  H     H_    0.441318 0.295640 0.887451 0.000000
H392  H     H_    0.448986 0.308054 0.944519 0.000000
H393  H     H_    0.463607 0.342744 0.900526 0.000000
H394  H     H_    0.506992 0.328401 0.883189 0.000000
H395  H     H_    0.547556 0.355569 0.937032 0.000000
H396  H     H_    0.508754 0.358862 0.954472 0.000000
H397  H     H_    0.564597 0.342974 0.114072 0.000000
H398  H     H_    0.554130 0.288152 0.157660 0.000000
H399  H     H_    0.515851 0.228830 0.125965 0.000000
H400  H     H_    0.492785 0.223148 0.047635 0.000000
C361  C     C_3   0.668714 0.382471 0.282397 0.000000
N121  N     N_3   0.649516 0.370624 0.323101 0.000000
C362  C     C_3   0.646532 0.400064 0.340889 0.000000
C363  C     C_R   0.654129 0.428702 0.307579 0.000000
N122  N     N_R   0.684849 0.461889 0.313668 0.000000
C364  C     C_R   0.673238 0.484023 0.291337 0.000000
C365  C     C_R   0.684438 0.519639 0.299043 0.000000
C366  C     C_R   0.660151 0.533213 0.290940 0.000000
C367  C     C_R   0.627354 0.513660 0.267300 0.000000
C368  C     C_R   0.618140 0.479758 0.253379 0.000000
C369  C     C_R   0.639503 0.464468 0.270196 0.000000
N123  N     N_R   0.626193 0.429261 0.279942 0.000000
H401  H     H_    0.648862 0.380036 0.254238 0.000000
H402  H     H_    0.694488 0.408713 0.283868 0.000000
H403  H     H_    0.680018 0.364534 0.278735 0.000000
H404  H     H_    0.622648 0.350479 0.315407 0.000000
H405  H     H_    0.618081 0.389586 0.351311 0.000000
H406  H     H_    0.666892 0.411999 0.369295 0.000000
H407  H     H_    0.710604 0.537615 0.311808 0.000000
H408  H     H_    0.667723 0.560125 0.301075 0.000000
H409  H     H_    0.609341 0.525265 0.260369 0.000000
H410  H     H_    0.592145 0.464055 0.235405 0.000000
C370  C     C_3   0.499497 0.368147 0.349160 0.000000
N124  N     N_3   0.499115 0.335116 0.362502 0.000000
C371  C     C_3   0.536362 0.340214 0.365786 0.000000
C372  C     C_R   0.540266 0.323833 0.326721 0.000000
N125  N     N_R   0.522944 0.286260 0.322639 0.000000
C373  C     C_R   0.519360 0.283131 0.278472 0.000000
C374  C     C_R   0.499706 0.251244 0.256201 0.000000
C375  C     C_R   0.489676 0.253247 0.212045 0.000000
C376  C     C_R   0.496971 0.286362 0.193187 0.000000
C377  C     C_R   0.519634 0.317792 0.214596 0.000000
C378  C     C_R   0.532019 0.316248 0.257450 0.000000
N126  N     N_R   0.547298 0.343523 0.286766 0.000000
H411  H     H_    0.470769 0.363655 0.345742 0.000000
H412  H     H_    0.515965 0.388642 0.373444 0.000000
H413  H     H_    0.510555 0.374577 0.316237 0.000000
H414  H     H_    0.487362 0.320430 0.333688 0.000000
H415  H     H_    0.556412 0.369114 0.363713 0.000000
H416  H     H_    0.540055 0.326469 0.396323 0.000000
H417  H     H_    0.490083 0.225327 0.272891 0.000000
H418  H     H_    0.474182 0.229188 0.192782 0.000000
H419  H     H_    0.486175 0.288578 0.160531 0.000000
H420  H     H_    0.522100 0.341462 0.198763 0.000000
C379  C     C_3   0.679137 0.438650 0.182331 0.000000
N127  N     N_3   0.640486 0.425361 0.191249 0.000000
C380  C     C_3   0.614966 0.398268 0.160209 0.000000
C381  C     C_R   0.579500 0.399874 0.158434 0.000000
N128  N     N_R   0.563855 0.401897 0.196721 0.000000
C382  C     C_R   0.533962 0.403836 0.179890 0.000000
C383  C     C_R   0.504968 0.399161 0.202811 0.000000
C384  C     C_R   0.479765 0.408043 0.181302 0.000000
C385  C     C_R   0.483655 0.419852 0.137550 0.000000
C386  C     C_R   0.510479 0.418958 0.114018 0.000000
C387  C     C_R   0.533013 0.406329 0.135032 0.000000
N129  N     N_R   0.559957 0.401055 0.119034 0.000000
H421  H     H_    0.692785 0.428942 0.208404 0.000000
H422  H     H_    0.682673 0.431745 0.148790 0.000000
H423  H     H_    0.693410 0.468075 0.185409 0.000000
H424  H     H_    0.635208 0.447185 0.186837 0.000000
H425  H     H_    0.625286 0.403461 0.126351 0.000000
H426  H     H_    0.610084 0.371148 0.172725 0.000000
H427  H     H_    0.503975 0.391934 0.237370 0.000000
H428  H     H_    0.458126 0.407605 0.199296 0.000000
H429  H     H_    0.465832 0.430051 0.121874 0.000000
H430  H     H_    0.516485 0.433694 0.083652 0.000000
C388  C     C_3   0.491917 0.490594 0.207171 0.000000
N130  N     N_3   0.492256 0.472234 0.249614 0.000000
C389  C     C_3   0.525903 0.469225 0.255112 0.000000
C390  C     C_R   0.523157 0.444067 0.292581 0.000000
N131  N     N_R   0.516605 0.455665 0.330798 0.000000
C391  C     C_R   0.546788 0.462174 0.356644 0.000000
C392  C     C_R   0.560726 0.484353 0.392733 0.000000
C393  C     C_R   0.596065 0.494084 0.409121 0.000000
C394  C     C_R   0.616115 0.480832 0.389742 0.000000
C395  C     C_R   0.600528 0.456519 0.356364 0.000000
C396  C     C_R   0.566556 0.448825 0.338170 0.000000
N132  N     N_R   0.550535 0.433276 0.298764 0.000000
H431  H     H_    0.464282 0.486742 0.196131 0.000000
H432  H     H_    0.509494 0.519949 0.210662 0.000000
H433  H     H_    0.500756 0.480199 0.180437 0.000000
H434  H     H_    0.471096 0.445894 0.249666 0.000000
H435  H     H_    0.532871 0.461582 0.224820 0.000000
H436  H     H_    0.548430 0.496074 0.264672 0.000000
H437  H     H_    0.547157 0.497733 0.405287 0.000000
H438  H     H_    0.607843 0.511405 0.437476 0.000000
H439  H     H_    0.642145 0.485309 0.404566 0.000000
H440  H     H_    0.613741 0.441825 0.349046 0.000000
C397  C     C_3   0.781547 0.055400 0.376021 0.000000
N133  N     N_3   0.786017 0.052252 0.423584 0.000000
C398  C     C_3   0.799644 0.026344 0.432072 0.000000
C399  C     C_R   0.769219 0.991944 0.444879 0.000000
N134  N     N_R   0.763915 0.983557 0.489728 0.000000
C400  C     C_R   0.730830 0.953393 0.487839 0.000000
C401  C     C_R   0.709146 0.935053 0.522545 0.000000
C402  C     C_R   0.676652 0.903601 0.513298 0.000000
C403  C     C_R   0.666453 0.891350 0.469976 0.000000
C404  C     C_R   0.687629 0.911318 0.435020 0.000000
C405  C     C_R   0.719069 0.943047 0.444463 0.000000
N135  N     N_R   0.742042 0.967727 0.415260 0.000000
H441  H     H_    0.764836 0.028379 0.362722 0.000000
H442  H     H_    0.767886 0.072325 0.367474 0.000000
H443  H     H_    0.808817 0.066719 0.361749 0.000000
H444  H     H_    0.759820 0.041294 0.436339 0.000000
H445  H     H_    0.813846 0.024498 0.403702 0.000000
H446  H     H_    0.818639 0.033824 0.461754 0.000000
H447  H     H_    0.716329 0.945504 0.555715 0.000000
H448  H     H_    0.659101 0.888407 0.540023 0.000000
H449  H     H_    0.641269 0.866442 0.463354 0.000000
H450  H     H_    0.679658 0.902200 0.401554 0.000000
C406  C     C_3   0.697369 0.985017 0.632715 0.000000
N136  N     N_3   0.729830 0.014051 0.612871 0.000000
C407  C     C_3   0.759186 0.030688 0.647446 0.000000
C408  C     C_R   0.783396 0.012952 0.650345 0.000000
N137  N     N_R   0.782000 0.993693 0.613107 0.000000
C409  C     C_R   0.771206 0.960268 0.631505 0.000000
C410  C     C_R   0.760108 0.928319 0.610480 0.000000
C411  C     C_R   0.747479 0.896647 0.635941 0.000000
C412  C     C_R   0.746926 0.897399 0.681889 0.000000
C413  C     C_R   0.758951 0.929891 0.702763 0.000000
C414  C     C_R   0.770857 0.960734 0.676710 0.000000
N138  N     N_R   0.781483 0.994183 0.690476 0.000000
H451  H     H_    0.676341 0.970140 0.605868 0.000000
H452  H     H_    0.704693 0.965801 0.651781 0.000000
H453  H     H_    0.685326 0.996435 0.654855 0.000000
H454  H     H_    0.722235 0.033560 0.601096 0.000000
H455  H     H_    0.773982 0.059837 0.641300 0.000000
H456  H     H_    0.746853 0.026971 0.679933 0.000000
H457  H     H_    0.760583 0.927609 0.575312 0.000000
H458  H     H_    0.738187 0.871142 0.619893 0.000000
H459  H     H_    0.736914 0.872488 0.701391 0.000000
H460  H     H_    0.757355 0.930778 0.738096 0.000000
C415  C     C_3   0.850403 0.153689 0.452012 0.000000
N139  N     N_3   0.842149 0.122652 0.481162 0.000000
C416  C     C_3   0.866550 0.106591 0.477416 0.000000
C417  C     C_R   0.868538 0.088707 0.521541 0.000000
N140  N     N_R   0.888839 0.115563 0.550853 0.000000
C418  C     C_R   0.861247 0.116583 0.571482 0.000000
C419  C     C_R   0.860629 0.147109 0.584785 0.000000
C420  C     C_R   0.826816 0.146189 0.588475 0.000000
C421  C     C_R   0.794052 0.115436 0.577339 0.000000
C422  C     C_R   0.794857 0.084977 0.563607 0.000000
C423  C     C_R   0.828483 0.085563 0.562911 0.000000
N141  N     N_R   0.834215 0.064375 0.536845 0.000000
H461  H     H_    0.879292 0.167082 0.442543 0.000000
H462  H     H_    0.831280 0.144548 0.422345 0.000000
H463  H     H_    0.845545 0.173375 0.469602 0.000000
H464  H     H_    0.814780 0.103574 0.473873 0.000000
H465  H     H_    0.856589 0.088395 0.449459 0.000000
H466  H     H_    0.894747 0.127969 0.470665 0.000000
H467  H     H_    0.885119 0.171928 0.589430 0.000000
H468  H     H_    0.826051 0.170216 0.598109 0.000000
H469  H     H_    0.767914 0.115668 0.577971 0.000000
H470  H     H_    0.770069 0.062360 0.550177 0.000000
C424  C     C_3   0.041789 0.096998 0.449336 0.000000
N142  N     N_3   0.028764 0.058176 0.451759 0.000000
C425  C     C_3   0.990199 0.037796 0.435294 0.000000
C426  C     C_R   0.977278 0.999689 0.448936 0.000000
N143  N     N_R   0.985265 0.977420 0.423605 0.000000
C427  C     C_R   0.985554 0.953620 0.455339 0.000000
C428  C     C_R   0.996870 0.928153 0.450872 0.000000
C429  C     C_R   0.999392 0.909013 0.488699 0.000000
C430  C     C_R   0.991699 0.916329 0.529957 0.000000
C431  C     C_R   0.981096 0.942713 0.534075 0.000000
C432  C     C_R   0.977248 0.960496 0.496171 0.000000
N144  N     N_R   0.970072 0.988786 0.493678 0.000000
H471  H     H_    0.058771 0.108827 0.420026 0.000000
H472  H     H_    0.018469 0.103141 0.447458 0.000000
H473  H     H_    0.059707 0.109546 0.479425 0.000000
H474  H     H_    0.030503 0.050985 0.485134 0.000000
H475  H     H_    0.972649 0.046936 0.450326 0.000000
H476  H     H_    0.988211 0.039394 0.398558 0.000000
H477  H     H_    0.004603 0.923956 0.419073 0.000000
H478  H     H_    0.008551 0.888964 0.486388 0.000000
H479  H     H_    0.995091 0.902004 0.559352 0.000000
H480  H     H_    0.978079 0.950375 0.566382 0.000000
C433  C     C_3   0.066584 0.036971 0.646159 0.000000
N145  N     N_3   0.027408 0.019123 0.632449 0.000000
C434  C     C_3   0.008819 0.030749 0.661841 0.000000
C435  C     C_R   0.968598 0.007031 0.657456 0.000000
N146  N     N_R   0.954723 0.988444 0.617901 0.000000
C436  C     C_R   0.933355 0.954395 0.633424 0.000000
C437  C     C_R   0.913933 0.923323 0.609569 0.000000
C438  C     C_R   0.894470 0.890995 0.632775 0.000000
C439  C     C_R   0.894616 0.890177 0.678968 0.000000
C440  C     C_R   0.913824 0.921791 0.702516 0.000000
C441  C     C_R   0.932454 0.953511 0.678945 0.000000
N147  N     N_R   0.952432 0.986807 0.695496 0.000000
H481  H     H_    0.082576 0.035240 0.619192 0.000000
H482  H     H_    0.076099 0.065823 0.653004 0.000000
H483  H     H_    0.071355 0.023366 0.676645 0.000000
H484  H     H_    0.018050 0.991465 0.638247 0.000000
H485  H     H_    0.016813 0.025360 0.695915 0.000000
H486  H     H_    0.015725 0.059349 0.655030 0.000000
H487  H     H_    0.914531 0.923608 0.574107 0.000000
H488  H     H_    0.879338 0.866100 0.614779 0.000000
H489  H     H_    0.879733 0.864666 0.696638 0.000000
H490  H     H_    0.915177 0.921447 0.738253 0.000000
C442  C     C_3   0.936394 0.067179 0.641390 0.000000
N148  N     N_3   0.908825 0.058162 0.604311 0.000000
C443  C     C_3   0.885587 0.019521 0.604376 0.000000
C444  C     C_R   0.875852 0.003698 0.560002 0.000000
N149  N     N_R   0.839666 0.987989 0.544079 0.000000
C445  C     C_R   0.836135 0.958836 0.523088 0.000000
C446  C     C_R   0.804128 0.928238 0.511073 0.000000
C447  C     C_R   0.806884 0.897952 0.500445 0.000000
C448  C     C_R   0.841312 0.899990 0.496996 0.000000
C449  C     C_R   0.873355 0.931772 0.506452 0.000000
C450  C     C_R   0.869756 0.959938 0.522011 0.000000
N150  N     N_R   0.895965 0.989195 0.543171 0.000000
H491  H     H_    0.943977 0.094236 0.653155 0.000000
H492  H     H_    0.926216 0.047837 0.669416 0.000000
H493  H     H_    0.961396 0.067058 0.631162 0.000000
H494  H     H_    0.891863 0.069320 0.610360 0.000000
H495  H     H_    0.900014 0.005936 0.622108 0.000000
H496  H     H_    0.859237 0.013763 0.617951 0.000000
H497  H     H_    0.777446 0.926877 0.510697 0.000000
H498  H     H_    0.782052 0.873168 0.492138 0.000000
H499  H     H_    0.843081 0.876670 0.486582 0.000000
H500  H     H_    0.900084 0.933381 0.503955 0.000000
C451  C     C_3   0.897113 0.048874 0.442010 0.000000
N151  N     N_3   0.909199 0.048039 0.486701 0.000000
C452  C     C_3   0.939773 0.082928 0.494419 0.000000
C453  C     C_R   0.955800 0.083579 0.538925 0.000000
N152  N     N_R   0.973545 0.117058 0.557012 0.000000
C454  C     C_R   0.007399 0.119678 0.568730 0.000000
C455  C     C_R   0.041174 0.150356 0.573404 0.000000
C456  C     C_R   0.072898 0.146626 0.579634 0.000000
C457  C     C_R   0.071084 0.112909 0.578141 0.000000
C458  C     C_R   0.037535 0.082723 0.569017 0.000000
C459  C     C_R   0.006423 0.086943 0.564597 0.000000
N153  N     N_R   0.972959 0.062616 0.548543 0.000000
H501  H     H_    0.867599 0.029626 0.439160 0.000000
H502  H     H_    0.899700 0.075586 0.433713 0.000000
H503  H     H_    0.914665 0.042599 0.422659 0.000000
H504  H     H_    0.887778 0.047117 0.502746 0.000000
H505  H     H_    0.960815 0.089355 0.470059 0.000000
H506  H     H_    0.931881 0.104489 0.491687 0.000000
H507  H     H_    0.043854 0.176981 0.569268 0.000000
H508  H     H_    0.099556 0.170461 0.583656 0.000000
H509  H     H_    0.096247 0.110601 0.581226 0.000000
H510  H     H_    0.036184 0.057137 0.562542 0.000000
C460  C     C_3   0.581330 0.428398 0.645338 0.000000
N154  N     N_3   0.545001 0.403851 0.626990 0.000000
C461  C     C_3   0.547139 0.377805 0.599874 0.000000
C462  C     C_R   0.516099 0.364265 0.564663 0.000000
N155  N     N_R   0.496738 0.382735 0.550476 0.000000
C463  C     C_R   0.462903 0.355610 0.539746 0.000000
C464  C     C_R   0.430990 0.357941 0.530278 0.000000
C465  C     C_R   0.397935 0.326068 0.527130 0.000000
C466  C     C_R   0.397488 0.292947 0.534506 0.000000
C467  C     C_R   0.430161 0.291314 0.543783 0.000000
C468  C     C_R   0.462845 0.323155 0.544666 0.000000
N156  N     N_R   0.497363 0.328030 0.556172 0.000000
H511  H     H_    0.600145 0.416745 0.646461 0.000000
H512  H     H_    0.593422 0.452762 0.624410 0.000000
H513  H     H_    0.578788 0.436326 0.678684 0.000000
H514  H     H_    0.538036 0.420102 0.606366 0.000000
H515  H     H_    0.574194 0.390433 0.586331 0.000000
H516  H     H_    0.545015 0.354556 0.620935 0.000000
H517  H     H_    0.431650 0.383741 0.525020 0.000000
H518  H     H_    0.372265 0.326998 0.519672 0.000000
H519  H     H_    0.371409 0.268236 0.533300 0.000000
H520  H     H_    0.429756 0.265849 0.551515 0.000000
C469  C     C_3   0.672592 0.337376 0.558010 0.000000
N157  N     N_3   0.635318 0.318258 0.573639 0.000000
C470  C     C_3   0.625210 0.342582 0.595193 0.000000
C471  C     C_R   0.605993 0.357853 0.565630 0.000000
N158  N     N_R   0.576058 0.331615 0.542974 0.000000
C472  C     C_R   0.587594 0.337955 0.501632 0.000000
C473  C     C_R   0.578032 0.312946 0.469864 0.000000
C474  C     C_R   0.596432 0.322273 0.431981 0.000000
C475  C     C_R   0.628775 0.353918 0.430070 0.000000
C476  C     C_R   0.639644 0.378413 0.463139 0.000000
C477  C     C_R   0.618904 0.369984 0.499111 0.000000
N159  N     N_R   0.628702 0.386130 0.538773 0.000000
H521  H     H_    0.675137 0.321608 0.531405 0.000000
H522  H     H_    0.678738 0.364424 0.544251 0.000000
H523  H     H_    0.692692 0.339768 0.585877 0.000000
H524  H     H_    0.616906 0.303668 0.547748 0.000000
H525  H     H_    0.604478 0.326003 0.619095 0.000000
H526  H     H_    0.650400 0.365345 0.609160 0.000000
H527  H     H_    0.563549 0.285205 0.477291 0.000000
H528  H     H_    0.586642 0.303143 0.405754 0.000000
H529  H     H_    0.647021 0.358227 0.404556 0.000000
H530  H     H_    0.663854 0.402565 0.460485 0.000000
C478  C     C_3   0.422567 0.216674 0.483794 0.000000
N160  N     N_3   0.431284 0.249087 0.456272 0.000000
C479  C     C_3   0.470436 0.276547 0.459939 0.000000
C480  C     C_R   0.494436 0.260117 0.462550 0.000000
N161  N     N_R   0.505455 0.255237 0.505638 0.000000
C481  C     C_R   0.511253 0.226595 0.500790 0.000000
C482  C     C_R   0.518080 0.206452 0.533801 0.000000
C483  C     C_R   0.523163 0.177950 0.521505 0.000000
C484  C     C_R   0.520677 0.169756 0.476923 0.000000
C485  C     C_R   0.512439 0.189508 0.443950 0.000000
C486  C     C_R   0.507827 0.217961 0.456388 0.000000
N162  N     N_R   0.498214 0.239552 0.429653 0.000000
H531  H     H_    0.436472 0.223376 0.517393 0.000000
H532  H     H_    0.392279 0.202111 0.487824 0.000000
H533  H     H_    0.429791 0.198188 0.467092 0.000000
H534  H     H_    0.415262 0.260419 0.465806 0.000000
H535  H     H_    0.478857 0.299102 0.435713 0.000000
H536  H     H_    0.476025 0.288938 0.491818 0.000000
H537  H     H_    0.517022 0.211022 0.568267 0.000000
H538  H     H_    0.528290 0.161401 0.546875 0.000000
H539  H     H_    0.524166 0.147045 0.467949 0.000000
H540  H     H_    0.508748 0.181856 0.409884 0.000000
C487  C     C_3   0.403174 0.231116 0.649507 0.000000
N163  N     N_3   0.440877 0.237888 0.644941 0.000000
C488  C     C_3   0.465774 0.275704 0.654352 0.000000
C489  C     C_R   0.503731 0.280871 0.660889 0.000000
N164  N     N_R   0.514716 0.271934 0.701951 0.000000
C490  C     C_R   0.536827 0.258637 0.690591 0.000000
C491  C     C_R   0.551297 0.240827 0.717704 0.000000
C492  C     C_R   0.574739 0.230531 0.699565 0.000000
C493  C     C_R   0.582655 0.237849 0.654920 0.000000
C494  C     C_R   0.565791 0.253896 0.627437 0.000000
C495  C     C_R   0.541981 0.263043 0.645935 0.000000
N165  N     N_R   0.521478 0.277354 0.625492 0.000000
H541  H     H_    0.383577 0.203923 0.636714 0.000000
H542  H     H_    0.398486 0.231970 0.685113 0.000000
H543  H     H_    0.398197 0.251727 0.630113 0.000000
H544  H     H_    0.443425 0.233649 0.611860 0.000000
H545  H     H_    0.464918 0.292754 0.626074 0.000000
H546  H     H_    0.458082 0.282500 0.685453 0.000000
H547  H     H_    0.542509 0.233022 0.751132 0.000000
H548  H     H_    0.586757 0.216489 0.720173 0.000000
H549  H     H_    0.601276 0.229982 0.641231 0.000000
H550  H     H_    0.571134 0.258894 0.592595 0.000000
C496  C     C_3   0.065367 0.217072 0.649375 0.000000
N166  N     N_3   0.030124 0.203627 0.669698 0.000000
C497  C     C_3   0.003273 0.169598 0.649298 0.000000
C498  C     C_R   0.965290 0.162692 0.655181 0.000000
N167  N     N_R   0.953467 0.174755 0.617483 0.000000
C499  C     C_R   0.945870 0.199607 0.634558 0.000000
C500  C     C_R   0.944500 0.228854 0.613492 0.000000
C501  C     C_R   0.937584 0.251491 0.638435 0.000000
C502  C     C_R   0.934189 0.245950 0.684085 0.000000
C503  C     C_R   0.939494 0.218725 0.705551 0.000000
C504  C     C_R   0.945885 0.196520 0.680043 0.000000
N168  N     N_R   0.956560 0.172084 0.694849 0.000000
H551  H     H_    0.063654 0.227996 0.615429 0.000000
H552  H     H_    0.087102 0.239224 0.669691 0.000000
H553  H     H_    0.072908 0.195126 0.648071 0.000000
H554  H     H_    0.021250 0.222913 0.662311 0.000000
H555  H     H_    0.004893 0.174572 0.613319 0.000000
H556  H     H_    0.008204 0.146312 0.657854 0.000000
H557  H     H_    0.951429 0.235988 0.579611 0.000000
H558  H     H_    0.936090 0.274466 0.622427 0.000000
H559  H     H_    0.929671 0.264366 0.703248 0.000000
H560  H     H_    0.940776 0.216379 0.741311 0.000000
C505  C     C_3   0.052782 0.225898 0.490855 0.000000
N169  N     N_3   0.046255 0.196786 0.461482 0.000000
C506  C     C_3   0.008029 0.168101 0.461895 0.000000
C507  C     C_R   0.981939 0.183080 0.459204 0.000000
N170  N     N_R   0.981193 0.205466 0.424080 0.000000
C508  C     C_R   0.963574 0.221529 0.441549 0.000000
C509  C     C_R   0.958521 0.249789 0.423733 0.000000
C510  C     C_R   0.936201 0.259617 0.445228 0.000000
C511  C     C_R   0.919293 0.240965 0.483422 0.000000
C512  C     C_R   0.926482 0.213919 0.501889 0.000000
C513  C     C_R   0.950576 0.206274 0.481897 0.000000
N171  N     N_R   0.961950 0.181861 0.495146 0.000000
H561  H     H_    0.035912 0.215448 0.520384 0.000000
H562  H     H_    0.082404 0.239500 0.502528 0.000000
H563  H     H_    0.046788 0.246290 0.472420 0.000000
H564  H     H_    0.062698 0.185298 0.474310 0.000000
H565  H     H_    0.001888 0.150385 0.433716 0.000000
H566  H     H_    0.004727 0.152204 0.492502 0.000000
H567  H     H_    0.972444 0.264894 0.394810 0.000000
H568  H     H_    0.931316 0.281436 0.431681 0.000000
H569  H     H_    0.900564 0.247695 0.498980 0.000000
H570  H     H_    0.912378 0.198208 0.530005 0.000000
C514  C     C_3   0.523260 0.526926 0.667261 0.000000
N172  N     N_3   0.548108 0.522052 0.639740 0.000000
C515  C     C_3   0.553993 0.491934 0.656881 0.000000
C516  C     C_R   0.518897 0.457397 0.653941 0.000000
N173  N     N_R   0.498161 0.443262 0.691265 0.000000
C517  C     C_R   0.463405 0.428085 0.672840 0.000000
C518  C     C_R   0.431034 0.412409 0.694566 0.000000
C519  C     C_R   0.398211 0.401043 0.668873 0.000000
C520  C     C_R   0.398450 0.405266 0.622690 0.000000
C521  C     C_R   0.431431 0.420241 0.601353 0.000000
C522  C     C_R   0.463586 0.430938 0.627228 0.000000
N174  N     N_R   0.498481 0.447165 0.613594 0.000000
H571  H     H_    0.494070 0.507428 0.658059 0.000000
H572  H     H_    0.529877 0.523856 0.703035 0.000000
H573  H     H_    0.526747 0.554622 0.661237 0.000000
H574  H     H_    0.573661 0.545374 0.642977 0.000000
H575  H     H_    0.575405 0.491139 0.638196 0.000000
H576  H     H_    0.563850 0.496443 0.691494 0.000000
H577  H     H_    0.431157 0.409778 0.730435 0.000000
H578  H     H_    0.372195 0.389137 0.684874 0.000000
H579  H     H_    0.372632 0.396956 0.603260 0.000000
H580  H     H_    0.431947 0.425447 0.565916 0.000000
C523  C     C_3   0.422577 0.369070 0.421522 0.000000
N175  N     N_3   0.457144 0.393526 0.401634 0.000000
C524  C     C_3   0.485832 0.412273 0.435997 0.000000
C525  C     C_R   0.486730 0.446251 0.448129 0.000000
N176  N     N_R   0.485019 0.471742 0.417494 0.000000
C526  C     C_R   0.487259 0.497080 0.444912 0.000000
C527  C     C_R   0.486860 0.528858 0.432918 0.000000
C528  C     C_R   0.489109 0.550955 0.466755 0.000000
C529  C     C_R   0.491487 0.540897 0.511213 0.000000
C530  C     C_R   0.492197 0.508820 0.522653 0.000000
C531  C     C_R   0.490649 0.487567 0.488754 0.000000
N177  N     N_R   0.492082 0.456084 0.492231 0.000000
H581  H     H_    0.400234 0.357777 0.394927 0.000000
H582  H     H_    0.425124 0.346280 0.438648 0.000000
H583  H     H_    0.415459 0.383719 0.445203 0.000000
H584  H     H_    0.453530 0.412103 0.380616 0.000000
H585  H     H_    0.481631 0.394561 0.465534 0.000000
H586  H     H_    0.512989 0.419245 0.424612 0.000000
H587  H     H_    0.484573 0.536242 0.398337 0.000000
H588  H     H_    0.488709 0.576147 0.458554 0.000000
H589  H     H_    0.492873 0.558356 0.537140 0.000000
H590  H     H_    0.493832 0.500855 0.557114 0.000000
C532  C     C_3   0.582800 0.404827 0.435140 0.000000
N178  N     N_3   0.602750 0.426284 0.473080 0.000000
C533  C     C_3   0.575058 0.417007 0.504182 0.000000
C534  C     C_R   0.588844 0.445321 0.537231 0.000000
N179  N     N_R   0.626082 0.466213 0.547772 0.000000
C535  C     C_R   0.627429 0.498887 0.556254 0.000000
C536  C     C_R   0.656201 0.532014 0.570707 0.000000
C537  C     C_R   0.649493 0.560990 0.574643 0.000000
C538  C     C_R   0.614499 0.557352 0.565735 0.000000
C539  C     C_R   0.585476 0.523948 0.555427 0.000000
C540  C     C_R   0.592663 0.495567 0.552083 0.000000
N180  N     N_R   0.567695 0.461462 0.543913 0.000000
H591  H     H_    0.564495 0.414856 0.419543 0.000000
H592  H     H_    0.602892 0.406146 0.412099 0.000000
H593  H     H_    0.564911 0.376464 0.445527 0.000000
H594  H     H_    0.613112 0.453539 0.465494 0.000000
H595  H     H_    0.549834 0.416135 0.487445 0.000000
H596  H     H_    0.568351 0.390188 0.517133 0.000000
H597  H     H_    0.683507 0.536486 0.581301 0.000000
H598  H     H_    0.671907 0.586735 0.585300 0.000000
H599  H     H_    0.609607 0.580217 0.568848 0.000000
H600  H     H_    0.557848 0.520220 0.550458 0.000000
C541  C     C_3   0.786749 0.429972 0.515431 0.000000
N181  N     N_3   0.769525 0.452897 0.504830 0.000000
C542  C     C_3   0.737605 0.433691 0.474367 0.000000
C543  C     C_R   0.719443 0.456571 0.463693 0.000000
N182  N     N_R   0.700743 0.464133 0.495535 0.000000
C544  C     C_R   0.699107 0.492251 0.475214 0.000000
C545  C     C_R   0.694728 0.517263 0.495910 0.000000
C546  C     C_R   0.694608 0.546000 0.471586 0.000000
C547  C     C_R   0.701018 0.549210 0.426817 0.000000
C548  C     C_R   0.710744 0.525706 0.408401 0.000000
C549  C     C_R   0.710381 0.497864 0.433213 0.000000
N183  N     N_R   0.722576 0.474910 0.422460 0.000000
H601  H     H_    0.811120 0.444161 0.538842 0.000000
H602  H     H_    0.766804 0.404255 0.531399 0.000000
H603  H     H_    0.796005 0.424180 0.484662 0.000000
H604  H     H_    0.788479 0.475941 0.487948 0.000000
H605  H     H_    0.746852 0.428881 0.443091 0.000000
H606  H     H_    0.718102 0.408002 0.490430 0.000000
H607  H     H_    0.695968 0.515010 0.530991 0.000000
H608  H     H_    0.690715 0.566322 0.487392 0.000000
H609  H     H_    0.700555 0.571114 0.406934 0.000000
H610  H     H_    0.719338 0.528921 0.376158 0.000000
C550  C     C_3   0.730765 0.525176 0.653981 0.000000
N184  N     N_3   0.698481 0.517959 0.678167 0.000000
C551  C     C_3   0.665862 0.485548 0.662024 0.000000
C552  C     C_R   0.673561 0.455013 0.660668 0.000000
N185  N     N_R   0.682371 0.445636 0.621107 0.000000
C553  C     C_R   0.702180 0.429388 0.637266 0.000000
C554  C     C_R   0.720882 0.417417 0.612904 0.000000
C555  C     C_R   0.738756 0.400142 0.635543 0.000000
C556  C     C_R   0.736149 0.393917 0.681182 0.000000
C557  C     C_R   0.717247 0.406416 0.705180 0.000000
C558  C     C_R   0.701720 0.425768 0.683019 0.000000
N186  N     N_R   0.682809 0.441228 0.699668 0.000000
H611  H     H_    0.744449 0.509718 0.669484 0.000000
H612  H     H_    0.723089 0.518354 0.618434 0.000000
H613  H     H_    0.750852 0.554403 0.655954 0.000000
H614  H     H_    0.693037 0.539693 0.671621 0.000000
H615  H     H_    0.642880 0.478934 0.683094 0.000000
H616  H     H_    0.657736 0.489833 0.628549 0.000000
H617  H     H_    0.721702 0.421564 0.577242 0.000000
H618  H     H_    0.753924 0.390469 0.617439 0.000000
H619  H     H_    0.749072 0.379153 0.698239 0.000000
H620  H     H_    0.714854 0.400632 0.740049 0.000000
C559  C     C_3   0.226427 0.224285 0.961376 0.000000
N187  N     N_3   0.225157 0.189371 0.970291 0.000000
C560  C     C_3   0.229807 0.185305 0.018069 0.000000
C561  C     C_R   0.234048 0.152550 0.028708 0.000000
N188  N     N_R   0.203424 0.117880 0.028644 0.000000
C562  C     C_R   0.219690 0.097756 0.019193 0.000000
C563  C     C_R   0.204380 0.060722 0.019296 0.000000
C564  C     C_R   0.226396 0.045765 0.008883 0.000000
C565  C     C_R   0.263250 0.067694 0.999527 0.000000
C566  C     C_R   0.279054 0.104901 0.002278 0.000000
C567  C     C_R   0.256936 0.119219 0.013221 0.000000
N189  N     N_R   0.267985 0.153640 0.024270 0.000000
H621  H     H_    0.224167 0.228987 0.924984 0.000000
H622  H     H_    0.204091 0.225504 0.977825 0.000000
H623  H     H_    0.251932 0.245952 0.976060 0.000000
H624  H     H_    0.246271 0.188238 0.954703 0.000000
H625  H     H_    0.253720 0.209419 0.032393 0.000000
H626  H     H_    0.204606 0.181746 0.031323 0.000000
H627  H     H_    0.176076 0.043559 0.027045 0.000000
H628  H     H_    0.214730 0.016679 0.007908 0.000000
H629  H     H_    0.279958 0.055554 0.991178 0.000000
H630  H     H_    0.307806 0.122088 0.995949 0.000000
C568  C     C_3   0.283699 0.213742 0.132606 0.000000
N190  N     N_3   0.291532 0.250558 0.125471 0.000000
C569  C     C_3   0.327927 0.269830 0.108746 0.000000
C570  C     C_R   0.326582 0.272015 0.059758 0.000000
N191  N     N_R   0.326286 0.244557 0.035897 0.000000
C571  C     C_R   0.323131 0.255765 0.993832 0.000000
C572  C     C_R   0.315137 0.236099 0.956232 0.000000
C573  C     C_R   0.308305 0.250654 0.916420 0.000000
C574  C     C_R   0.308467 0.283815 0.915252 0.000000
C575  C     C_R   0.314210 0.302129 0.954199 0.000000
C576  C     C_R   0.322160 0.287915 0.992752 0.000000
N192  N     N_R   0.323945 0.299522 0.033830 0.000000
H631  H     H_    0.255486 0.196079 0.140773 0.000000
H632  H     H_    0.287349 0.203348 0.101724 0.000000
H633  H     H_    0.299086 0.213139 0.163469 0.000000
H634  H     H_    0.295511 0.260566 0.157385 0.000000
H635  H     H_    0.341852 0.296029 0.124075 0.000000
H636  H     H_    0.343194 0.255376 0.118484 0.000000
H637  H     H_    0.311676 0.208966 0.958355 0.000000
H638  H     H_    0.301188 0.235378 0.886302 0.000000
H639  H     H_    0.301922 0.294285 0.884247 0.000000
H640  H     H_    0.310819 0.325927 0.954938 0.000000
C577  C     C_3   0.430317 0.261384 0.099383 0.000000
N193  N     N_3   0.392837 0.233340 0.105270 0.000000
C578  C     C_3   0.384756 0.230187 0.151780 0.000000
C579  C     C_R   0.347847 0.197698 0.156826 0.000000
N194  N     N_R   0.326848 0.178116 0.119956 0.000000
C580  C     C_R   0.302432 0.146676 0.140113 0.000000
C581  C     C_R   0.276787 0.114559 0.121745 0.000000
C582  C     C_R   0.255942 0.085317 0.148994 0.000000
C583  C     C_R   0.262539 0.087466 0.194610 0.000000
C584  C     C_R   0.289405 0.119286 0.212853 0.000000
C585  C     C_R   0.307196 0.148801 0.185183 0.000000
N195  N     N_R   0.333296 0.181651 0.197554 0.000000
H641  H     H_    0.434607 0.267079 0.063436 0.000000
H642  H     H_    0.435702 0.286346 0.116270 0.000000
H643  H     H_    0.449240 0.250741 0.112106 0.000000
H644  H     H_    0.393881 0.209707 0.099692 0.000000
H645  H     H_    0.406140 0.226043 0.171520 0.000000
H646  H     H_    0.385410 0.255116 0.162837 0.000000
H647  H     H_    0.274815 0.110451 0.087578 0.000000
H648  H     H_    0.236025 0.059934 0.134381 0.000000
H649  H     H_    0.247857 0.063878 0.215693 0.000000
H650  H     H_    0.297954 0.120080 0.247504 0.000000
C586  C     C_3   0.630251 0.341262 0.697456 0.000000
N196  N     N_3   0.621817 0.371636 0.691171 0.000000
C587  C     C_3   0.587918 0.364181 0.711951 0.000000
C588  C     C_R   0.593821 0.359767 0.759108 0.000000
N197  N     N_R   0.576208 0.325415 0.775879 0.000000
C589  C     C_R   0.604869 0.321619 0.795204 0.000000
C590  C     C_R   0.607145 0.290106 0.801618 0.000000
C591  C     C_R   0.641782 0.292353 0.809415 0.000000
C592  C     C_R   0.673244 0.325675 0.812379 0.000000
C593  C     C_R   0.670561 0.357161 0.805864 0.000000
C594  C     C_R   0.636156 0.354628 0.797226 0.000000
N198  N     N_R   0.629054 0.380112 0.776578 0.000000
H651  H     H_    0.647768 0.340804 0.672269 0.000000
H652  H     H_    0.650232 0.345311 0.724909 0.000000
H653  H     H_    0.605031 0.315001 0.699867 0.000000
H654  H     H_    0.617488 0.375764 0.657598 0.000000
H655  H     H_    0.582006 0.386850 0.708107 0.000000
H656  H     H_    0.564416 0.339596 0.698189 0.000000
H657  H     H_    0.583025 0.264140 0.800444 0.000000
H658  H     H_    0.644243 0.267868 0.813926 0.000000
H659  H     H_    0.700107 0.327061 0.818771 0.000000
H660  H     H_    0.695087 0.382918 0.805957 0.000000
C595  C     C_3   0.599815 0.328439 0.903372 0.000000
N199  N     N_3   0.562042 0.316968 0.886540 0.000000
C596  C     C_3   0.544397 0.278296 0.884519 0.000000
C597  C     C_R   0.506485 0.262839 0.866735 0.000000
N200  N     N_R   0.479899 0.238026 0.893803 0.000000
C598  C     C_R   0.454198 0.216165 0.863510 0.000000
C599  C     C_R   0.422508 0.184619 0.871322 0.000000
C600  C     C_R   0.400595 0.165789 0.834772 0.000000
C601  C     C_R   0.410937 0.178297 0.791656 0.000000
C602  C     C_R   0.443496 0.209787 0.784301 0.000000
C603  C     C_R   0.464603 0.228288 0.820903 0.000000
N201  N     N_R   0.497454 0.258731 0.821331 0.000000
H661  H     H_    0.612262 0.355470 0.916485 0.000000
H662  H     H_    0.600935 0.310731 0.930365 0.000000
H663  H     H_    0.616875 0.328676 0.877421 0.000000
H664  H     H_    0.561995 0.327018 0.854305 0.000000
H665  H     H_    0.559069 0.269329 0.863834 0.000000
H666  H     H_    0.541776 0.266871 0.918283 0.000000
H667  H     H_    0.414573 0.174981 0.904733 0.000000
H668  H     H_    0.375189 0.141044 0.839818 0.000000
H669  H     H_    0.393507 0.163132 0.763605 0.000000
H670  H     H_    0.451949 0.219457 0.750949 0.000000
C604  C     C_3   0.444691 0.345075 0.646277 0.000000
N202  N     N_3   0.456723 0.341101 0.691638 0.000000
C605  C     C_3   0.497226 0.361097 0.697779 0.000000
C606  C     C_R   0.507359 0.361255 0.745613 0.000000
N203  N     N_R   0.496329 0.381326 0.768549 0.000000
C607  C     C_R   0.470142 0.356318 0.793821 0.000000
C608  C     C_R   0.440502 0.358958 0.807960 0.000000
C609  C     C_R   0.408397 0.327345 0.815264 0.000000
C610  C     C_R   0.406325 0.294401 0.806529 0.000000
C611  C     C_R   0.437241 0.292260 0.795311 0.000000
C612  C     C_R   0.469688 0.323756 0.790466 0.000000
N204  N     N_R   0.496562 0.327551 0.764252 0.000000
H671  H     H_    0.423233 0.353654 0.646629 0.000000
H672  H     H_    0.468289 0.365182 0.627987 0.000000
H673  H     H_    0.430942 0.318703 0.629976 0.000000
H674  H     H_    0.445065 0.352542 0.710722 0.000000
H675  H     H_    0.509820 0.347992 0.679828 0.000000
H676  H     H_    0.506886 0.389409 0.687827 0.000000
H677  H     H_    0.440316 0.384501 0.807938 0.000000
H678  H     H_    0.383845 0.328464 0.823622 0.000000
H679  H     H_    0.379803 0.270320 0.806326 0.000000
H680  H     H_    0.434052 0.267205 0.783848 0.000000
C613  C     C_3   0.613497 0.405388 0.869525 0.000000
N205  N     N_3   0.610583 0.430211 0.837168 0.000000
C614  C     C_3   0.577336 0.412678 0.808879 0.000000
C615  C     C_R   0.586083 0.435403 0.768951 0.000000
N206  N     N_R   0.568323 0.455971 0.763974 0.000000
C616  C     C_R   0.596494 0.489951 0.762644 0.000000
C617  C     C_R   0.595107 0.521650 0.766891 0.000000
C618  C     C_R   0.628319 0.553534 0.767650 0.000000
C619  C     C_R   0.661740 0.552965 0.765341 0.000000
C620  C     C_R   0.662462 0.520508 0.762477 0.000000
C621  C     C_R   0.629204 0.489321 0.761002 0.000000
N207  N     N_R   0.623366 0.454844 0.762758 0.000000
H681  H     H_    0.626570 0.419342 0.901154 0.000000
H682  H     H_    0.585928 0.383274 0.875208 0.000000
H683  H     H_    0.630985 0.395162 0.857086 0.000000
H684  H     H_    0.607891 0.449641 0.853844 0.000000
H685  H     H_    0.567294 0.383828 0.805110 0.000000
H686  H     H_    0.555121 0.415082 0.823098 0.000000
H687  H     H_    0.569082 0.521655 0.769986 0.000000
H688  H     H_    0.628327 0.579042 0.770828 0.000000
H689  H     H_    0.687465 0.578029 0.766940 0.000000
H690  H     H_    0.688360 0.519670 0.763266 0.000000
C622  C     C_3   0.560248 0.427362 0.914775 0.000000
N208  N     N_3   0.545693 0.448897 0.890624 0.000000
C623  C     C_3   0.507726 0.424903 0.877575 0.000000
C624  C     C_R   0.491502 0.446469 0.856163 0.000000
N209  N     N_R   0.474758 0.461818 0.879656 0.000000
C625  C     C_R   0.461543 0.475736 0.846055 0.000000
C626  C     C_R   0.442603 0.494827 0.849761 0.000000
C627  C     C_R   0.433098 0.508402 0.810906 0.000000
C628  C     C_R   0.443116 0.503197 0.769854 0.000000
C629  C     C_R   0.462727 0.484257 0.766849 0.000000
C630  C     C_R   0.471505 0.470527 0.805470 0.000000
N210  N     N_R   0.490888 0.451969 0.810312 0.000000
H691  H     H_    0.590337 0.443812 0.922329 0.000000
H692  H     H_    0.547580 0.417649 0.946275 0.000000
H693  H     H_    0.552076 0.403014 0.896065 0.000000
H694  H     H_    0.560297 0.460926 0.862295 0.000000
H695  H     H_    0.505848 0.405126 0.854015 0.000000
H696  H     H_    0.492415 0.409960 0.906480 0.000000
H697  H     H_    0.435458 0.499173 0.881876 0.000000
H698  H     H_    0.418036 0.523487 0.812511 0.000000
H699  H     H_    0.435765 0.514319 0.739951 0.000000
H700  H     H_    0.471065 0.480825 0.735226 0.000000
C631  C     C_3   0.952919 0.878906 0.863141 0.000000
N211  N     N_3   0.962813 0.914067 0.880766 0.000000
C632  C     C_3   0.940276 0.927967 0.856221 0.000000
C633  C     C_R   0.958257 0.967840 0.859727 0.000000
N212  N     N_R   0.979957 0.983759 0.898190 0.000000
C634  C     C_R   0.008213 0.013582 0.880696 0.000000
C635  C     C_R   0.038341 0.041320 0.901864 0.000000
C636  C     C_R   0.066768 0.065698 0.876358 0.000000
C637  C     C_R   0.064986 0.061249 0.830843 0.000000
C638  C     C_R   0.032818 0.035188 0.810246 0.000000
C639  C     C_R   0.003717 0.014680 0.835615 0.000000
N213  N     N_R   0.970748 0.988661 0.820916 0.000000
H701  H     H_    0.960024 0.862884 0.888761 0.000000
H702  H     H_    0.922854 0.864121 0.853848 0.000000
H703  H     H_    0.968679 0.882626 0.833259 0.000000
H704  H     H_    0.990184 0.930835 0.872792 0.000000
H705  H     H_    0.938686 0.921666 0.820679 0.000000
H706  H     H_    0.912735 0.915792 0.869352 0.000000
H707  H     H_    0.039511 0.045521 0.936692 0.000000
H708  H     H_    0.091119 0.087263 0.892272 0.000000
H709  H     H_    0.088507 0.078341 0.811491 0.000000
H710  H     H_    0.031179 0.027921 0.776276 0.000000
C640  C     C_3   0.838779 0.934875 0.652462 0.000000
N214  N     N_3   0.840431 0.944508 0.698383 0.000000
C641  C     C_3   0.862549 0.983702 0.701895 0.000000
C642  C     C_R   0.868710 0.994206 0.748971 0.000000
N215  N     N_R   0.837377 0.986520 0.770434 0.000000
C643  C     C_R   0.835051 0.960350 0.799549 0.000000
C644  C     C_R   0.801979 0.932542 0.812544 0.000000
C645  C     C_R   0.799080 0.898592 0.817896 0.000000
C646  C     C_R   0.829374 0.893782 0.811894 0.000000
C647  C     C_R   0.863759 0.923059 0.805459 0.000000
C648  C     C_R   0.866646 0.956845 0.799445 0.000000
N216  N     N_R   0.890716 0.982275 0.771936 0.000000
H711  H     H_    0.866301 0.941428 0.642796 0.000000
H712  H     H_    0.820270 0.905469 0.648577 0.000000
H713  H     H_    0.829491 0.950666 0.629924 0.000000
H714  H     H_    0.854047 0.932066 0.716306 0.000000
H715  H     H_    0.889980 0.991873 0.690023 0.000000
H716  H     H_    0.847455 0.995842 0.683335 0.000000
H717  H     H_    0.777291 0.935412 0.811564 0.000000
H718  H     H_    0.772497 0.875410 0.823522 0.000000
H719  H     H_    0.826033 0.866701 0.811596 0.000000
H720  H     H_    0.885569 0.918135 0.796674 0.000000
C649  C     C_3   0.989252 0.083427 0.860335 0.000000
N217  N     N_3   0.955362 0.085333 0.849095 0.000000
C650  C     C_3   0.932221 0.059138 0.815377 0.000000
C651  C     C_R   0.948114 0.072440 0.771989 0.000000
N218  N     N_R   0.961458 0.108468 0.760421 0.000000
C652  C     C_R   0.994070 0.116715 0.744797 0.000000
C653  C     C_R   0.022129 0.150696 0.740164 0.000000
C654  C     C_R   0.056925 0.155834 0.732785 0.000000
C655  C     C_R   0.062228 0.126155 0.729055 0.000000
C656  C     C_R   0.033242 0.091655 0.734174 0.000000
C657  C     C_R   0.998593 0.086932 0.742489 0.000000
N219  N     N_R   0.968012 0.057251 0.756893 0.000000
H721  H     H_    0.008539 0.107097 0.879955 0.000000
H722  H     H_    0.982314 0.058655 0.880309 0.000000
H723  H     H_    0.003634 0.083971 0.830786 0.000000
H724  H     H_    0.961887 0.111585 0.838836 0.000000
H725  H     H_    0.932119 0.033182 0.824130 0.000000
H726  H     H_    0.903542 0.054738 0.813623 0.000000
H727  H     H_    0.015776 0.172499 0.740426 0.000000
H728  H     H_    0.079783 0.182832 0.729525 0.000000
H729  H     H_    0.089461 0.129870 0.723272 0.000000
H730  H     H_    0.040095 0.070574 0.733770 0.000000
C658  C     C_3   0.845295 0.101012 0.675008 0.000000
N220  N     N_3   0.876474 0.093757 0.675084 0.000000
C659  C     C_3   0.874353 0.067917 0.710114 0.000000
C660  C     C_R   0.868798 0.078724 0.752866 0.000000
N221  N     N_R   0.886088 0.114729 0.762297 0.000000
C661  C     C_R   0.857430 0.119448 0.773940 0.000000
C662  C     C_R   0.853052 0.149716 0.765147 0.000000
C663  C     C_R   0.818598 0.147214 0.769352 0.000000
C664  C     C_R   0.788383 0.114318 0.779314 0.000000
C665  C     C_R   0.791819 0.083162 0.781650 0.000000
C666  C     C_R   0.826397 0.086554 0.777843 0.000000
N222  N     N_R   0.833413 0.060184 0.765899 0.000000
H731  H     H_    0.822489 0.081672 0.694521 0.000000
H732  H     H_    0.854832 0.129724 0.682317 0.000000
H733  H     H_    0.831566 0.095611 0.642978 0.000000
H734  H     H_    0.900108 0.117756 0.681353 0.000000
H735  H     H_    0.849386 0.042772 0.702496 0.000000
H736  H     H_    0.898980 0.064516 0.712227 0.000000
H737  H     H_    0.874289 0.173691 0.750042 0.000000
H738  H     H_    0.814839 0.170846 0.762788 0.000000
H739  H     H_    0.761459 0.112624 0.781272 0.000000
H740  H     H_    0.767691 0.056936 0.783504 0.000000
C667  C     C_3   0.861175 0.196609 0.858659 0.000000
N223  N     N_3   0.886538 0.181591 0.866842 0.000000
C668  C     C_3   0.918500 0.201480 0.839914 0.000000
C669  C     C_R   0.947878 0.190862 0.851523 0.000000
N224  N     N_R   0.964417 0.194248 0.894551 0.000000
C670  C     C_R   0.992182 0.187176 0.887301 0.000000
C671  C     C_R   0.014277 0.180437 0.918275 0.000000
C672  C     C_R   0.044488 0.178748 0.904139 0.000000
C673  C     C_R   0.052344 0.185150 0.859776 0.000000
C674  C     C_R   0.026898 0.187468 0.829065 0.000000
C675  C     C_R   0.994029 0.182744 0.843496 0.000000
N225  N     N_R   0.963822 0.180342 0.819532 0.000000
H741  H     H_    0.832308 0.174279 0.858659 0.000000
H742  H     H_    0.864952 0.215095 0.885566 0.000000
H743  H     H_    0.865816 0.211409 0.826174 0.000000
H744  H     H_    0.872541 0.155100 0.855699 0.000000
H745  H     H_    0.910968 0.196707 0.804801 0.000000
H746  H     H_    0.929978 0.230833 0.843741 0.000000
H747  H     H_    0.007157 0.174266 0.952196 0.000000
H748  H     H_    0.062527 0.173821 0.928011 0.000000
H749  H     H_    0.078149 0.188105 0.849036 0.000000
H750  H     H_    0.035927 0.199371 0.797257 0.000000
C676  C     C_3   0.060549 0.995462 0.182121 0.000000
N226  N     N_3   0.080919 0.021015 0.217430 0.000000
C677  C     C_3   0.075192 0.001221 0.259262 0.000000
C678  C     C_R   0.077981 0.024130 0.296869 0.000000
N227  N     N_R   0.111321 0.056368 0.304578 0.000000
C679  C     C_R   0.110294 0.059335 0.348598 0.000000
C680  C     C_R   0.138567 0.083299 0.375711 0.000000
C681  C     C_R   0.134195 0.080524 0.420990 0.000000
C682  C     C_R   0.102333 0.053021 0.438349 0.000000
C683  C     C_R   0.074268 0.028429 0.410607 0.000000
C684  C     C_R   0.078056 0.032469 0.365511 0.000000
N228  N     N_R   0.054807 0.009942 0.333606 0.000000
H751  H     H_    0.066684 0.010006 0.149565 0.000000
H752  H     H_    0.069358 0.974251 0.182805 0.000000
H753  H     H_    0.030302 0.982466 0.185991 0.000000
H754  H     H_    0.072521 0.040611 0.218790 0.000000
H755  H     H_    0.048522 0.977327 0.256880 0.000000
H756  H     H_    0.096487 0.992196 0.265289 0.000000
H757  H     H_    0.164400 0.102214 0.362235 0.000000
H758  H     H_    0.156371 0.098876 0.443135 0.000000
H759  H     H_    0.099861 0.050073 0.473991 0.000000
H760  H     H_    0.051544 0.005525 0.424683 0.000000
C685  C     C_3   0.957540 0.840249 0.397188 0.000000
N229  N     N_3   0.921287 0.832240 0.377099 0.000000
C686  C     C_3   0.917350 0.864887 0.375544 0.000000
C687  C     C_R   0.927337 0.883058 0.330988 0.000000
N230  N     N_R   0.916516 0.859846 0.294486 0.000000
C688  C     C_R   0.949229 0.874404 0.274344 0.000000
C689  C     C_R   0.958158 0.861988 0.238480 0.000000
C690  C     C_R   0.994822 0.877372 0.228066 0.000000
C691  C     C_R   0.022180 0.903790 0.254671 0.000000
C692  C     C_R   0.012600 0.917315 0.289318 0.000000
C693  C     C_R   0.975966 0.904602 0.295641 0.000000
N231  N     N_R   0.962561 0.914075 0.328673 0.000000
H761  H     H_    0.979508 0.864034 0.380267 0.000000
H762  H     H_    0.958661 0.845233 0.433134 0.000000
H763  H     H_    0.962179 0.816608 0.393636 0.000000
H764  H     H_    0.901621 0.813500 0.398107 0.000000
H765  H     H_    0.888605 0.856642 0.382046 0.000000
H766  H     H_    0.935769 0.883404 0.401675 0.000000
H767  H     H_    0.937834 0.841190 0.218552 0.000000
H768  H     H_    0.002292 0.867538 0.200195 0.000000
H769  H     H_    0.050998 0.914121 0.248034 0.000000
H770  H     H_    0.033380 0.936727 0.311824 0.000000
C694  C     C_3   0.678120 0.541601 0.903740 0.000000
N232  N     N_3   0.681806 0.508827 0.909348 0.000000
C695  C     C_3   0.684607 0.498713 0.865169 0.000000
C696  C     C_R   0.693241 0.468046 0.866634 0.000000
N233  N     N_R   0.717092 0.466707 0.901343 0.000000
C697  C     C_R   0.740144 0.459774 0.878917 0.000000
C698  C     C_R   0.773161 0.461628 0.894914 0.000000
C699  C     C_R   0.794821 0.457530 0.865059 0.000000
C700  C     C_R   0.784219 0.453708 0.819970 0.000000
C701  C     C_R   0.751327 0.452920 0.804392 0.000000
C702  C     C_R   0.728852 0.454188 0.834730 0.000000
N234  N     N_R   0.697277 0.456192 0.825875 0.000000
H771  H     H_    0.651768 0.535474 0.884848 0.000000
H772  H     H_    0.679574 0.552714 0.936750 0.000000
H773  H     H_    0.700732 0.562557 0.884568 0.000000
H774  H     H_    0.657313 0.488510 0.921885 0.000000
H775  H     H_    0.659838 0.493650 0.844516 0.000000
H776  H     H_    0.707646 0.521665 0.848687 0.000000
H777  H     H_    0.782918 0.467697 0.929122 0.000000
H778  H     H_    0.821077 0.459116 0.876594 0.000000
H779  H     H_    0.802475 0.452742 0.796675 0.000000
H780  H     H_    0.744984 0.454299 0.769362 0.000000
C703  C     C_3   0.997559 0.343349 0.279371 0.000000
N235  N     N_3   0.975506 0.311960 0.307099 0.000000
C704  C     C_3   0.958521 0.280391 0.279145 0.000000
C705  C     C_R   0.933039 0.248281 0.305462 0.000000
N236  N     N_R   0.944913 0.225937 0.330253 0.000000
C706  C     C_R   0.912372 0.198663 0.341861 0.000000
C707  C     C_R   0.906768 0.167258 0.364397 0.000000
C708  C     C_R   0.872086 0.138170 0.363036 0.000000
C709  C     C_R   0.844529 0.140497 0.336970 0.000000
C710  C     C_R   0.852701 0.171087 0.311981 0.000000
C711  C     C_R   0.883685 0.202155 0.321999 0.000000
N237  N     N_R   0.894493 0.234227 0.300273 0.000000
H781  H     H_    0.011002 0.367762 0.300150 0.000000
H782  H     H_    0.019222 0.339554 0.264261 0.000000
H783  H     H_    0.979679 0.347232 0.252608 0.000000
H784  H     H_    0.954358 0.315621 0.319052 0.000000
H785  H     H_    0.942386 0.284803 0.250599 0.000000
H786  H     H_    0.980234 0.275444 0.266334 0.000000
H787  H     H_    0.928286 0.164068 0.382371 0.000000
H788  H     H_    0.867457 0.113119 0.379589 0.000000
H789  H     H_    0.818110 0.117373 0.330695 0.000000
H790  H     H_    0.838540 0.168433 0.280455 0.000000
C712  C     C_3   0.124069 0.225945 0.397825 0.000000
N238  N     N_3   0.108019 0.205498 0.357401 0.000000
C713  C     C_3   0.070011 0.198857 0.350286 0.000000
C714  C     C_R   0.068437 0.228564 0.322947 0.000000
N239  N     N_R   0.100495 0.255765 0.303992 0.000000
C715  C     C_R   0.095484 0.284872 0.309218 0.000000
C716  C     C_R   0.121893 0.320537 0.307662 0.000000
C717  C     C_R   0.111806 0.346397 0.317313 0.000000
C718  C     C_R   0.076311 0.336266 0.330101 0.000000
C719  C     C_R   0.050689 0.300069 0.334699 0.000000
C720  C     C_R   0.061062 0.274927 0.324566 0.000000
N240  N     N_R   0.042237 0.239028 0.332493 0.000000
H791  H     H_    0.154497 0.236889 0.399049 0.000000
H792  H     H_    0.117710 0.248783 0.398438 0.000000
H793  H     H_    0.113284 0.207824 0.427260 0.000000
H794  H     H_    0.107117 0.180352 0.363146 0.000000
H795  H     H_    0.053084 0.172910 0.334466 0.000000
H796  H     H_    0.058281 0.197375 0.382402 0.000000
H797  H     H_    0.150158 0.328076 0.301908 0.000000
H798  H     H_    0.132072 0.374726 0.316135 0.000000
H799  H     H_    0.069201 0.356814 0.338418 0.000000
H800  H     H_    0.024005 0.291856 0.347591 0.000000
C721  C     C_3   0.707334 0.962841 0.202226 0.000000
N241  N     N_3   0.690295 0.976279 0.231154 0.000000
C722  C     C_3   0.718322 0.012020 0.245241 0.000000
C723  C     C_R   0.708351 0.020306 0.287852 0.000000
N242  N     N_R   0.694904 0.044948 0.294264 0.000000
C724  C     C_R   0.681337 0.033953 0.335122 0.000000
C725  C     C_R   0.664378 0.047893 0.359700 0.000000
C726  C     C_R   0.652243 0.032288 0.400896 0.000000
C727  C     C_R   0.656831 0.002987 0.416772 0.000000
C728  C     C_R   0.674649 0.989746 0.392204 0.000000
C729  C     C_R   0.687354 0.006057 0.351958 0.000000
N243  N     N_R   0.705992 0.997673 0.323852 0.000000
H801  H     H_    0.685455 0.939770 0.183295 0.000000
H802  H     H_    0.724436 0.984697 0.178743 0.000000
H803  H     H_    0.724849 0.953522 0.222768 0.000000
H804  H     H_    0.682143 0.958538 0.258572 0.000000
H805  H     H_    0.744061 0.010627 0.251293 0.000000
H806  H     H_    0.721544 0.032082 0.218872 0.000000
H807  H     H_    0.662261 0.071616 0.348564 0.000000
H808  H     H_    0.639015 0.042979 0.420809 0.000000
H809  H     H_    0.646510 0.990477 0.448591 0.000000
H810  H     H_    0.676743 0.966223 0.403473 0.000000
C730  C     C_3   0.813821 0.900955 0.316801 0.000000
N244  N     N_3   0.774358 0.884142 0.316798 0.000000
C731  C     C_3   0.761839 0.902973 0.284658 0.000000
C732  C     C_R   0.723119 0.890202 0.292405 0.000000
N245  N     N_R   0.697403 0.854800 0.281639 0.000000
C733  C     C_R   0.666242 0.853837 0.295087 0.000000
C734  C     C_R   0.631453 0.824742 0.295502 0.000000
C735  C     C_R   0.603027 0.830011 0.309382 0.000000
C736  C     C_R   0.609683 0.863864 0.322689 0.000000
C737  C     C_R   0.645172 0.892743 0.324018 0.000000
C738  C     C_R   0.673241 0.886866 0.311406 0.000000
N246  N     N_R   0.709653 0.910933 0.312146 0.000000
H811  H     H_    0.822981 0.884943 0.298409 0.000000
H812  H     H_    0.824190 0.927705 0.300661 0.000000
H813  H     H_    0.823658 0.902913 0.351594 0.000000
H814  H     H_    0.766751 0.886295 0.348234 0.000000
H815  H     H_    0.776356 0.932391 0.287138 0.000000
H816  H     H_    0.765486 0.895806 0.251532 0.000000
H817  H     H_    0.626526 0.798247 0.287228 0.000000
H818  H     H_    0.575328 0.807488 0.309969 0.000000
H819  H     H_    0.587054 0.867462 0.333058 0.000000
H820  H     H_    0.650664 0.918911 0.335270 0.000000
C739  C     C_3   0.722858 0.350890 0.438293 0.000000
N247  N     N_3   0.744176 0.367611 0.399260 0.000000
C740  C     C_3   0.721086 0.373440 0.364163 0.000000
C741  C     C_R   0.745605 0.399895 0.331201 0.000000
N248  N     N_R   0.757472 0.437344 0.335675 0.000000
C742  C     C_R   0.790860 0.450881 0.318237 0.000000
C743  C     C_R   0.819619 0.485468 0.322212 0.000000
C744  C     C_R   0.850647 0.494816 0.298596 0.000000
C745  C     C_R   0.852029 0.469743 0.271649 0.000000
C746  C     C_R   0.823856 0.434344 0.271119 0.000000
C747  C     C_R   0.795003 0.424772 0.297364 0.000000
N249  N     N_R   0.767220 0.391059 0.304804 0.000000
H821  H     H_    0.705712 0.321605 0.433836 0.000000
H822  H     H_    0.742097 0.355299 0.467883 0.000000
H823  H     H_    0.704247 0.362140 0.444246 0.000000
H824  H     H_    0.765848 0.392835 0.408277 0.000000
H825  H     H_    0.701938 0.347524 0.348129 0.000000
H826  H     H_    0.705952 0.385823 0.378332 0.000000
H827  H     H_    0.817753 0.505009 0.342260 0.000000
H828  H     H_    0.873281 0.522139 0.299823 0.000000
H829  H     H_    0.875635 0.477689 0.251784 0.000000
H830  H     H_    0.824055 0.414416 0.250980 0.000000
C748  C     C_3   0.835485 0.573243 0.401734 0.000000
N250  N     N_3   0.796480 0.562635 0.404727 0.000000
C749  C     C_3   0.787165 0.585602 0.374350 0.000000
C750  C     C_R   0.775339 0.569014 0.329595 0.000000
N251  N     N_R   0.787738 0.591877 0.292062 0.000000
C751  C     C_R   0.796677 0.571479 0.267479 0.000000
C752  C     C_R   0.819367 0.582282 0.232437 0.000000
C753  C     C_R   0.822438 0.556124 0.209773 0.000000
C754  C     C_R   0.801011 0.519771 0.220656 0.000000
C755  C     C_R   0.780094 0.509707 0.257736 0.000000
C756  C     C_R   0.782211 0.536565 0.283656 0.000000
N252  N     N_R   0.768167 0.532949 0.323745 0.000000
H831  H     H_    0.841713 0.553047 0.420263 0.000000
H832  H     H_    0.842086 0.574286 0.366487 0.000000
H833  H     H_    0.852826 0.600104 0.416809 0.000000
H834  H     H_    0.793068 0.567943 0.437018 0.000000
H835  H     H_    0.765404 0.589858 0.387776 0.000000
H836  H     H_    0.811757 0.612552 0.371060 0.000000
H837  H     H_    0.834385 0.610020 0.222677 0.000000
H838  H     H_    0.839534 0.563914 0.181468 0.000000
H839  H     H_    0.801004 0.499276 0.200478 0.000000
H840  H     H_    0.761984 0.481628 0.265280 0.000000
C757  C     C_3   0.406291 0.147374 0.199976 0.000000
N253  N     N_3   0.422745 0.173739 0.235143 0.000000
C758  C     C_3   0.400814 0.159086 0.273627 0.000000
C759  C     C_R   0.404360 0.188729 0.301742 0.000000
N254  N     N_R   0.435557 0.211680 0.329030 0.000000
C760  C     C_R   0.420914 0.230014 0.347413 0.000000
C761  C     C_R   0.440312 0.262001 0.366328 0.000000
C762  C     C_R   0.421858 0.280637 0.377352 0.000000
C763  C     C_R   0.383988 0.263721 0.375386 0.000000
C764  C     C_R   0.364658 0.232444 0.351960 0.000000
C765  C     C_R   0.384830 0.218252 0.335499 0.000000
N255  N     N_R   0.373770 0.194406 0.303618 0.000000
H841  H     H_    0.423294 0.157696 0.170486 0.000000
H842  H     H_    0.405120 0.121382 0.211749 0.000000
H843  H     H_    0.378101 0.143182 0.189622 0.000000
H844  H     H_    0.419161 0.195894 0.224684 0.000000
H845  H     H_    0.371194 0.143722 0.262453 0.000000
H846  H     H_    0.407888 0.139981 0.292697 0.000000
H847  H     H_    0.469169 0.271053 0.372807 0.000000
H848  H     H_    0.436159 0.306269 0.393629 0.000000
H849  H     H_    0.370689 0.275728 0.392327 0.000000
H850  H     H_    0.335043 0.219312 0.346773 0.000000
C766  C     C_3   0.635626 0.284759 0.388356 0.000000
N256  N     N_3   0.603179 0.250341 0.379181 0.000000
C767  C     C_3   0.591016 0.252060 0.333181 0.000000
C768  C     C_R   0.560312 0.216842 0.320954 0.000000
N257  N     N_R   0.524153 0.206144 0.332455 0.000000
C769  C     C_R   0.507221 0.171427 0.319697 0.000000
C770  C     C_R   0.471282 0.146337 0.325643 0.000000
C771  C     C_R   0.458285 0.112644 0.307257 0.000000
C772  C     C_R   0.481052 0.105215 0.282603 0.000000
C773  C     C_R   0.517775 0.130556 0.278218 0.000000
C774  C     C_R   0.530979 0.162843 0.299425 0.000000
N258  N     N_R   0.565731 0.191048 0.299457 0.000000
H851  H     H_    0.639759 0.289150 0.424709 0.000000
H852  H     H_    0.660108 0.285413 0.376119 0.000000
H853  H     H_    0.633045 0.306784 0.369599 0.000000
H854  H     H_    0.582253 0.247451 0.399178 0.000000
H855  H     H_    0.582083 0.273093 0.327897 0.000000
H856  H     H_    0.613396 0.256808 0.312206 0.000000
H857  H     H_    0.454003 0.152661 0.344798 0.000000
H858  H     H_    0.429908 0.092223 0.311182 0.000000
H859  H     H_    0.470091 0.079256 0.267089 0.000000
H860  H     H_    0.535402 0.125093 0.258527 0.000000
C775  C     C_3   0.910170 0.913873 0.214561 0.000000
N259  N     N_3   0.885299 0.875649 0.210497 0.000000
C776  C     C_3   0.876059 0.867473 0.163661 0.000000
C777  C     C_R   0.866829 0.829096 0.158895 0.000000
N260  N     N_R   0.871087 0.811295 0.196733 0.000000
C778  C     C_R   0.880594 0.787968 0.180231 0.000000
C779  C     C_R   0.901515 0.774477 0.203183 0.000000
C780  C     C_R   0.921934 0.763688 0.179927 0.000000
C781  C     C_R   0.919098 0.763938 0.134034 0.000000
C782  C     C_R   0.896312 0.775549 0.111129 0.000000
C783  C     C_R   0.878566 0.789318 0.134862 0.000000
N261  N     N_R   0.867465 0.813651 0.119349 0.000000
H861  H     H_    0.914978 0.920935 0.249921 0.000000
H862  H     H_    0.937205 0.920525 0.201493 0.000000
H863  H     H_    0.897095 0.929012 0.197124 0.000000
H864  H     H_    0.861071 0.870936 0.224791 0.000000
H865  H     H_    0.852715 0.872534 0.154171 0.000000
H866  H     H_    0.900194 0.884715 0.143757 0.000000
H867  H     H_    0.908586 0.779842 0.237564 0.000000
H868  H     H_    0.941615 0.756739 0.197661 0.000000
H869  H     H_    0.936566 0.757126 0.115903 0.000000
H870  H     H_    0.899487 0.780658 0.076075 0.000000
C784  C     C_3   0.748183 0.689782 0.126037 0.000000
N262  N     N_3   0.764301 0.698578 0.083682 0.000000
C785  C     C_3   0.800409 0.728883 0.087568 0.000000
C786  C     C_R   0.818337 0.729403 0.047574 0.000000
N263  N     N_R   0.812817 0.697881 0.027906 0.000000
C787  C     C_R   0.839434 0.711798 0.997995 0.000000
C788  C     C_R   0.850953 0.693378 0.972516 0.000000
C789  C     C_R   0.879891 0.713450 0.945179 0.000000
C790  C     C_R   0.897246 0.751124 0.944482 0.000000
C791  C     C_R   0.886572 0.769466 0.971937 0.000000
C792  C     C_R   0.857817 0.749172 0.998649 0.000000
N264  N     N_R   0.844747 0.761455 0.029619 0.000000
H871  H     H_    0.767491 0.688286 0.152401 0.000000
H872  H     H_    0.740792 0.710766 0.133224 0.000000
H873  H     H_    0.723381 0.663196 0.123249 0.000000
H874  H     H_    0.749246 0.708461 0.064162 0.000000
H875  H     H_    0.798353 0.754158 0.088132 0.000000
H876  H     H_    0.816364 0.725832 0.117161 0.000000
H877  H     H_    0.839020 0.664342 0.974856 0.000000
H878  H     H_    0.889476 0.699659 0.924605 0.000000
H879  H     H_    0.919913 0.766229 0.923098 0.000000
H880  H     H_    0.900668 0.798695 0.972676 0.000000
C793  C     C_3   0.855451 0.898123 0.067883 0.000000
N265  N     N_3   0.815833 0.885777 0.067372 0.000000
C794  C     C_3   0.796380 0.848476 0.083636 0.000000
C795  C     C_R   0.783847 0.824975 0.045420 0.000000
N266  N     N_R   0.751261 0.816625 0.019527 0.000000
C796  C     C_R   0.757656 0.803762 0.982972 0.000000
C797  C     C_R   0.737436 0.795686 0.943193 0.000000
C798  C     C_R   0.748527 0.782217 0.909891 0.000000
C799  C     C_R   0.779787 0.777636 0.916670 0.000000
C800  C     C_R   0.801312 0.788142 0.955999 0.000000
C801  C     C_R   0.790171 0.801981 0.988363 0.000000
N267  N     N_R   0.808173 0.815741 0.027576 0.000000
H881  H     H_    0.867309 0.918113 0.040754 0.000000
H882  H     H_    0.869147 0.912537 0.098814 0.000000
H883  H     H_    0.861599 0.875573 0.063885 0.000000
H884  H     H_    0.806554 0.886398 0.034305 0.000000
H885  H     H_    0.814310 0.840643 0.104813 0.000000
H886  H     H_    0.773158 0.844464 0.102742 0.000000
H887  H     H_    0.713292 0.799085 0.938046 0.000000
H888  H     H_    0.732712 0.775180 0.878379 0.000000
H889  H     H_    0.788372 0.767373 0.890262 0.000000
H890  H     H_    0.827149 0.787525 0.959457 0.000000
C802  C     C_3   0.639932 0.873374 0.101069 0.000000
N268  N     N_3   0.653598 0.864894 0.062697 0.000000
C803  C     C_3   0.678553 0.898663 0.041023 0.000000
C804  C     C_R   0.695181 0.891474 0.002871 0.000000
N269  N     N_R   0.689495 0.856151 0.996191 0.000000
C805  C     C_R   0.679454 0.852697 0.952523 0.000000
C806  C     C_R   0.664336 0.821479 0.929204 0.000000
C807  C     C_R   0.655117 0.823020 0.884367 0.000000
C808  C     C_R   0.660242 0.855499 0.864282 0.000000
C809  C     C_R   0.673730 0.886449 0.889061 0.000000
C810  C     C_R   0.682784 0.884389 0.933469 0.000000
N270  N     N_R   0.695088 0.910727 0.963855 0.000000
H891  H     H_    0.620202 0.847808 0.117527 0.000000
H892  H     H_    0.663220 0.889025 0.125190 0.000000
H893  H     H_    0.625497 0.889303 0.090294 0.000000
H894  H     H_    0.630845 0.851486 0.040390 0.000000
H895  H     H_    0.662327 0.912077 0.027301 0.000000
H896  H     H_    0.699359 0.917447 0.064822 0.000000
H897  H     H_    0.658672 0.796386 0.946096 0.000000
H898  H     H_    0.643271 0.798724 0.865057 0.000000
H899  H     H_    0.652501 0.856373 0.829330 0.000000
H900  H     H_    0.675312 0.910701 0.874111 0.000000
C811  C     C_3   0.788637 0.760145 0.192075 0.000000
N271  N     N_3   0.762212 0.772907 0.196485 0.000000
C812  C     C_3   0.781949 0.811782 0.199738 0.000000
C813  C     C_R   0.787009 0.819696 0.246624 0.000000
N272  N     N_R   0.757530 0.817427 0.268477 0.000000
C814  C     C_R   0.767948 0.814107 0.311210 0.000000
C815  C     C_R   0.748561 0.809782 0.348203 0.000000
C816  C     C_R   0.764379 0.806314 0.389176 0.000000
C817  C     C_R   0.798301 0.806291 0.392142 0.000000
C818  C     C_R   0.817082 0.810215 0.354245 0.000000
C819  C     C_R   0.801796 0.814926 0.314346 0.000000
N273  N     N_R   0.815168 0.818182 0.273886 0.000000
H901  H     H_    0.775295 0.730773 0.197991 0.000000
H902  H     H_    0.799483 0.767294 0.158694 0.000000
H903  H     H_    0.810745 0.771794 0.217966 0.000000
H904  H     H_    0.749984 0.762615 0.226477 0.000000
H905  H     H_    0.808171 0.822732 0.184529 0.000000
H906  H     H_    0.765752 0.824235 0.183477 0.000000
H907  H     H_    0.722003 0.809405 0.345448 0.000000
H908  H     H_    0.749946 0.803007 0.419032 0.000000
H909  H     H_    0.809880 0.802690 0.424240 0.000000
H910  H     H_    0.842444 0.808607 0.355520 0.000000
C820  C     C_3   0.652512 0.718734 0.359744 0.000000
N274  N     N_3   0.690620 0.733428 0.347146 0.000000
C821  C     C_3   0.692780 0.724319 0.301694 0.000000
C822  C     C_R   0.662790 0.724560 0.271984 0.000000
N275  N     N_R   0.663815 0.756848 0.255680 0.000000
C823  C     C_R   0.629279 0.744288 0.237105 0.000000
C824  C     C_R   0.614772 0.764148 0.213994 0.000000
C825  C     C_R   0.577686 0.746458 0.200294 0.000000
C826  C     C_R   0.556408 0.709631 0.208918 0.000000
C827  C     C_R   0.572271 0.689753 0.229736 0.000000
C828  C     C_R   0.609140 0.707271 0.242193 0.000000
N276  N     N_R   0.630059 0.692732 0.261416 0.000000
H911  H     H_    0.652510 0.718861 0.396528 0.000000
H912  H     H_    0.640305 0.736005 0.345972 0.000000
H913  H     H_    0.635531 0.690390 0.349189 0.000000
H914  H     H_    0.703176 0.721684 0.368687 0.000000
H915  H     H_    0.719556 0.744096 0.288955 0.000000
H916  H     H_    0.691064 0.697650 0.301173 0.000000
H917  H     H_    0.631346 0.792933 0.208194 0.000000
H918  H     H_    0.564920 0.761619 0.184002 0.000000
H919  H     H_    0.527103 0.696421 0.199635 0.000000
H920  H     H_    0.555569 0.662292 0.239718 0.000000
C829  C     C_3   0.712376 0.749843 0.082950 0.000000
N277  N     N_3   0.715924 0.761950 0.127730 0.000000
C830  C     C_3   0.684287 0.765957 0.139028 0.000000
C831  C     C_R   0.694645 0.804231 0.138229 0.000000
N278  N     N_R   0.703593 0.824985 0.176062 0.000000
C832  C     C_R   0.717345 0.858629 0.157212 0.000000
C833  C     C_R   0.728447 0.891183 0.176324 0.000000
C834  C     C_R   0.748084 0.922403 0.151288 0.000000
C835  C     C_R   0.755653 0.920303 0.107879 0.000000
C836  C     C_R   0.740818 0.887427 0.087940 0.000000
C837  C     C_R   0.718960 0.857516 0.112445 0.000000
N279  N     N_R   0.702560 0.823556 0.098695 0.000000
H921  H     H_    0.739542 0.753753 0.074107 0.000000
H922  H     H_    0.691449 0.721326 0.078751 0.000000
H923  H     H_    0.706095 0.767367 0.060814 0.000000
H924  H     H_    0.737923 0.787901 0.126456 0.000000
H925  H     H_    0.660600 0.751877 0.115596 0.000000
H926  H     H_    0.676850 0.756194 0.173031 0.000000
H927  H     H_    0.720052 0.892614 0.208319 0.000000
H928  H     H_    0.758929 0.948615 0.165921 0.000000
H929  H     H_    0.771983 0.944265 0.088586 0.000000
H930  H     H_    0.746848 0.885405 0.054331 0.000000
C838  C     C_3   0.264464 0.413819 0.102513 0.000000
N280  N     N_3   0.270117 0.382261 0.101001 0.000000
C839  C     C_3   0.284558 0.376979 0.144631 0.000000
C840  C     C_R   0.315011 0.367214 0.142480 0.000000
N281  N     N_R   0.333204 0.361607 0.180677 0.000000
C841  C     C_R   0.361935 0.361350 0.162234 0.000000
C842  C     C_R   0.389401 0.357364 0.183461 0.000000
C843  C     C_R   0.409622 0.346321 0.159809 0.000000
C844  C     C_R   0.408108 0.348847 0.113955 0.000000
C845  C     C_R   0.384026 0.359393 0.091943 0.000000
C846  C     C_R   0.359942 0.363594 0.117340 0.000000
N282  N     N_R   0.329405 0.365041 0.102801 0.000000
H931  H     H_    0.245418 0.409813 0.128956 0.000000
H932  H     H_    0.291217 0.438551 0.108722 0.000000
H933  H     H_    0.251777 0.417247 0.070043 0.000000
H934  H     H_    0.243533 0.360655 0.096636 0.000000
H935  H     H_    0.296663 0.402662 0.162594 0.000000
H936  H     H_    0.261439 0.355576 0.162469 0.000000
H937  H     H_    0.395651 0.365796 0.216709 0.000000
H938  H     H_    0.429344 0.339087 0.176681 0.000000
H939  H     H_    0.425847 0.342573 0.096102 0.000000
H940  H     H_    0.382230 0.361016 0.056103 0.000000
C847  C     C_3   0.235017 0.317737 0.400956 0.000000
N283  N     N_3   0.232559 0.322900 0.352959 0.000000
C848  C     C_3   0.235475 0.293966 0.332129 0.000000
C849  C     C_R   0.235050 0.299514 0.282909 0.000000
N284  N     N_R   0.267186 0.328784 0.266273 0.000000
C850  C     C_R   0.252858 0.349559 0.248509 0.000000
C851  C     C_R   0.272200 0.386218 0.241841 0.000000
C852  C     C_R   0.252602 0.404435 0.227957 0.000000
C853  C     C_R   0.214327 0.385696 0.222257 0.000000
C854  C     C_R   0.195362 0.349041 0.232286 0.000000
C855  C     C_R   0.214951 0.331340 0.246177 0.000000
N285  N     N_R   0.201887 0.297900 0.265310 0.000000
H941  H     H_    0.235604 0.340974 0.417434 0.000000
H942  H     H_    0.210590 0.292550 0.411365 0.000000
H943  H     H_    0.260556 0.316002 0.411400 0.000000
H944  H     H_    0.206181 0.320035 0.344827 0.000000
H945  H     H_    0.261586 0.295293 0.343986 0.000000
H946  H     H_    0.211900 0.268171 0.341514 0.000000
H947  H     H_    0.301776 0.400276 0.248120 0.000000
H948  H     H_    0.267079 0.433356 0.221870 0.000000
H949  H     H_    0.199075 0.400165 0.212181 0.000000
H950  H     H_    0.166203 0.335677 0.233013 0.000000
C856  C     C_3   0.301601 0.267703 0.390528 0.000000
N286  N     N_3   0.313622 0.284223 0.346865 0.000000
C857  C     C_3   0.294633 0.257200 0.312753 0.000000
C858  C     C_R   0.317300 0.266715 0.273280 0.000000
N287  N     N_R   0.338407 0.303053 0.264014 0.000000
C859  C     C_R   0.371411 0.304489 0.259505 0.000000
C860  C     C_R   0.405380 0.331175 0.274209 0.000000
C861  C     C_R   0.435518 0.326401 0.268162 0.000000
C862  C     C_R   0.431431 0.293743 0.255421 0.000000
C863  C     C_R   0.396861 0.265136 0.249350 0.000000
C864  C     C_R   0.367429 0.270999 0.253792 0.000000
N288  N     N_R   0.333358 0.245549 0.262458 0.000000
H951  H     H_    0.316219 0.288388 0.416359 0.000000
H952  H     H_    0.271436 0.257351 0.392123 0.000000
H953  H     H_    0.307758 0.244904 0.397568 0.000000
H954  H     H_    0.342095 0.294777 0.346068 0.000000
H955  H     H_    0.288978 0.230174 0.325961 0.000000
H956  H     H_    0.268956 0.257702 0.302241 0.000000
H957  H     H_    0.408948 0.356060 0.287406 0.000000
H958  H     H_    0.462451 0.348278 0.273066 0.000000
H959  H     H_    0.455101 0.289795 0.253833 0.000000
H960  H     H_    0.393442 0.238913 0.242577 0.000000
C865  C     C_3   0.797440 0.282835 0.146429 0.000000
N289  N     N_3   0.833845 0.299461 0.129333 0.000000
C866  C     C_3   0.858762 0.295224 0.161208 0.000000
C867  C     C_R   0.852533 0.258390 0.159606 0.000000
N290  N     N_R   0.852692 0.242865 0.120252 0.000000
C868  C     C_R   0.862960 0.218832 0.135653 0.000000
C869  C     C_R   0.864083 0.194274 0.110869 0.000000
C870  C     C_R   0.873674 0.170616 0.132099 0.000000
C871  C     C_R   0.885753 0.174511 0.176359 0.000000
C872  C     C_R   0.882087 0.198419 0.201754 0.000000
C873  C     C_R   0.868181 0.219076 0.180502 0.000000
N291  N     N_R   0.858849 0.242083 0.197590 0.000000
H961  H     H_    0.797755 0.291331 0.180581 0.000000
H962  H     H_    0.780246 0.290777 0.123433 0.000000
H963  H     H_    0.786105 0.253378 0.147731 0.000000
H964  H     H_    0.843945 0.327001 0.126351 0.000000
H965  H     H_    0.887605 0.314105 0.152695 0.000000
H966  H     H_    0.854314 0.300810 0.194408 0.000000
H967  H     H_    0.855329 0.192584 0.076392 0.000000
H968  H     H_    0.869107 0.148227 0.113751 0.000000
H969  H     H_    0.895345 0.157058 0.192204 0.000000
H970  H     H_    0.890117 0.200013 0.236181 0.000000
C874  C     C_3   0.770884 0.099085 0.202197 0.000000
N292  N     N_3   0.797722 0.137061 0.203465 0.000000
C875  C     C_3   0.778813 0.158534 0.205155 0.000000
C876  C     C_R   0.775120 0.162998 0.251812 0.000000
N293  N     N_R   0.748002 0.135965 0.276193 0.000000
C877  C     C_R   0.759669 0.148097 0.318053 0.000000
C878  C     C_R   0.747198 0.129855 0.357411 0.000000
C879  C     C_R   0.764910 0.146645 0.396890 0.000000
C880  C     C_R   0.795072 0.181154 0.396413 0.000000
C881  C     C_R   0.808548 0.198569 0.356475 0.000000
C882  C     C_R   0.789617 0.181901 0.317757 0.000000
N294  N     N_R   0.800036 0.192875 0.275972 0.000000
H971  H     H_    0.757379 0.090443 0.234192 0.000000
H972  H     H_    0.750651 0.094010 0.174121 0.000000
H973  H     H_    0.784909 0.082984 0.196492 0.000000
H974  H     H_    0.811445 0.143419 0.174389 0.000000
H975  H     H_    0.795156 0.185350 0.189696 0.000000
H976  H     H_    0.751128 0.145536 0.188243 0.000000
H977  H     H_    0.725646 0.102788 0.357838 0.000000
H978  H     H_    0.755467 0.132623 0.428285 0.000000
H979  H     H_    0.808610 0.194161 0.427327 0.000000
H980  H     H_    0.833627 0.224177 0.355850 0.000000
C883  C     C_3   0.734711 0.212678 0.353373 0.000000
N295  N     N_3   0.752873 0.233427 0.314218 0.000000
C884  C     C_3   0.786216 0.265440 0.327214 0.000000
C885  C     C_R   0.804480 0.287165 0.287726 0.000000
N296  N     N_R   0.836243 0.285344 0.277088 0.000000
C886  C     C_R   0.860542 0.320744 0.273253 0.000000
C887  C     C_R   0.897628 0.335319 0.266938 0.000000
C888  C     C_R   0.918790 0.372560 0.267919 0.000000
C889  C     C_R   0.902819 0.393960 0.276976 0.000000
C890  C     C_R   0.865181 0.378646 0.282594 0.000000
C891  C     C_R   0.843934 0.342070 0.277993 0.000000
N297  N     N_R   0.807171 0.321894 0.283638 0.000000
H981  H     H_    0.740072 0.189962 0.359556 0.000000
H982  H     H_    0.744495 0.229290 0.383427 0.000000
H983  H     H_    0.704586 0.199421 0.346511 0.000000
H984  H     H_    0.735491 0.241883 0.296997 0.000000
H985  H     H_    0.780927 0.282546 0.348527 0.000000
H986  H     H_    0.805639 0.258351 0.346556 0.000000
H987  H     H_    0.909799 0.318139 0.261856 0.000000
H988  H     H_    0.948202 0.384995 0.263568 0.000000
H989  H     H_    0.920067 0.422805 0.280544 0.000000
H990  H     H_    0.853828 0.394423 0.294804 0.000000
C892  C     C_3   0.192147 0.196785 0.109027 0.000000
N298  N     N_3   0.183398 0.159074 0.107538 0.000000
C893  C     C_3   0.181291 0.145104 0.152028 0.000000
C894  C     C_R   0.154221 0.107373 0.154816 0.000000
N299  N     N_R   0.146689 0.086599 0.117588 0.000000
C895  C     C_R   0.144838 0.055968 0.136424 0.000000
C896  C     C_R   0.141327 0.026384 0.115221 0.000000
C897  C     C_R   0.145104 0.999856 0.140999 0.000000
C898  C     C_R   0.152754 0.003596 0.186785 0.000000
C899  C     C_R   0.155356 0.033275 0.207826 0.000000
C900  C     C_R   0.149894 0.058453 0.181989 0.000000
N300  N     N_R   0.152034 0.089439 0.195586 0.000000
H991  H     H_    0.186299 0.206332 0.076329 0.000000
H992  H     H_    0.176431 0.200495 0.134229 0.000000
H993  H     H_    0.221305 0.215130 0.114938 0.000000
H994  H     H_    0.206440 0.158358 0.097229 0.000000
H995  H     H_    0.207322 0.144345 0.159144 0.000000
H996  H     H_    0.174684 0.159802 0.175678 0.000000
H997  H     H_    0.135609 0.023699 0.079782 0.000000
H998  H     H_    0.142648 0.976246 0.125267 0.000000
H999  H     H_    0.156331 0.982951 0.206193 0.000000
H1000 H     H_    0.161316 0.036466 0.243348 0.000000
C901  C     C_3   0.213639 0.180371 0.382426 0.000000
N301  N     N_3   0.184486 0.167246 0.347315 0.000000
C902  C     C_3   0.185416 0.198065 0.322517 0.000000
C903  C     C_R   0.162176 0.185982 0.280604 0.000000
N302  N     N_R   0.144690 0.149006 0.271041 0.000000
C904  C     C_R   0.109663 0.142924 0.264142 0.000000
C905  C     C_R   0.078492 0.110601 0.267087 0.000000
C906  C     C_R   0.045423 0.110930 0.266272 0.000000
C907  C     C_R   0.043053 0.142297 0.258155 0.000000
C908  C     C_R   0.074793 0.174637 0.258911 0.000000
C909  C     C_R   0.107541 0.174228 0.262495 0.000000
N303  N     N_R   0.140702 0.202997 0.268818 0.000000
H1001 H     H_    0.208825 0.158132 0.406968 0.000000
H1002 H     H_    0.240742 0.189281 0.368153 0.000000
H1003 H     H_    0.213458 0.202966 0.399555 0.000000
H1004 H     H_    0.159452 0.155391 0.363003 0.000000
H1005 H     H_    0.172726 0.209956 0.342536 0.000000
H1006 H     H_    0.213613 0.218907 0.317219 0.000000
H1007 H     H_    0.079019 0.085632 0.270716 0.000000
H1008 H     H_    0.021554 0.086633 0.273981 0.000000
H1009 H     H_    0.016647 0.141931 0.255125 0.000000
H1010 H     H_    0.073919 0.199641 0.255430 0.000000
C910  C     C_3   0.233246 0.223427 0.219798 0.000000
N304  N     N_3   0.250642 0.205680 0.247008 0.000000
C911  C     C_3   0.236962 0.169694 0.232973 0.000000
C912  C     C_R   0.241665 0.149121 0.269463 0.000000
N305  N     N_R   0.276019 0.155315 0.286686 0.000000
C913  C     C_R   0.266543 0.128212 0.317480 0.000000
C914  C     C_R   0.289904 0.119301 0.343666 0.000000
C915  C     C_R   0.274058 0.088253 0.370202 0.000000
C916  C     C_R   0.235793 0.066493 0.369229 0.000000
C917  C     C_R   0.212553 0.075563 0.342129 0.000000
C918  C     C_R   0.228513 0.107059 0.317242 0.000000
N306  N     N_R   0.211505 0.120137 0.287259 0.000000
H1011 H     H_    0.241345 0.250163 0.233381 0.000000
H1012 H     H_    0.242128 0.226949 0.186125 0.000000
H1013 H     H_    0.203034 0.207688 0.217867 0.000000
H1014 H     H_    0.240264 0.200990 0.278120 0.000000
H1015 H     H_    0.206949 0.156957 0.229538 0.000000
H1016 H     H_    0.252623 0.168541 0.205721 0.000000
H1017 H     H_    0.319596 0.135564 0.343250 0.000000
H1018 H     H_    0.291666 0.080412 0.391215 0.000000
H1019 H     H_    0.224090 0.041912 0.389386 0.000000
H1020 H     H_    0.183022 0.057922 0.339978 0.000000
C919  C     C_3   0.815784 0.064149 0.887415 0.000000
N307  N     N_3   0.816485 0.040081 0.855326 0.000000
C920  C     C_3   0.802302 0.004628 0.875099 0.000000
C921  C     C_R   0.765158 0.985674 0.855217 0.000000
N308  N     N_R   0.734471 0.978032 0.879052 0.000000
C922  C     C_R   0.709994 0.976466 0.845614 0.000000
C923  C     C_R   0.675094 0.972249 0.849332 0.000000
C924  C     C_R   0.654782 0.972011 0.810408 0.000000
C925  C     C_R   0.669613 0.976269 0.769085 0.000000
C926  C     C_R   0.705185 0.981247 0.765958 0.000000
C927  C     C_R   0.724867 0.981331 0.804710 0.000000
N309  N     N_R   0.760335 0.987844 0.809240 0.000000
H1021 H     H_    0.825880 0.091749 0.872710 0.000000
H1022 H     H_    0.787085 0.053269 0.896504 0.000000
H1023 H     H_    0.832656 0.065145 0.917949 0.000000
H1024 H     H_    0.842292 0.047351 0.844601 0.000000
H1025 H     H_    0.818994 0.991740 0.866894 0.000000
H1026 H     H_    0.802158 0.006616 0.910960 0.000000
H1027 H     H_    0.663828 0.969168 0.881449 0.000000
H1028 H     H_    0.627097 0.968505 0.812158 0.000000
H1029 H     H_    0.653297 0.975965 0.739105 0.000000
H1030 H     H_    0.716940 0.984674 0.734174 0.000000
C928  C     C_3   0.741880 0.995815 0.075144 0.000000
N310  N     N_3   0.781929 0.018139 0.078429 0.000000
C929  C     C_3   0.795275 0.030757 0.034180 0.000000
C930  C     C_R   0.799577 0.003035 0.011494 0.000000
N311  N     N_R   0.830535 0.998280 0.017397 0.000000
C931  C     C_R   0.821077 0.969335 0.991972 0.000000
C932  C     C_R   0.842740 0.954877 0.980378 0.000000
C933  C     C_R   0.829350 0.929631 0.947485 0.000000
C934  C     C_R   0.794343 0.917603 0.927991 0.000000
C935  C     C_R   0.773541 0.933302 0.938560 0.000000
C936  C     C_R   0.787193 0.958599 0.971213 0.000000
N312  N     N_R   0.773034 0.979926 0.981648 0.000000
H1031 H     H_    0.732847 0.978366 0.105322 0.000000
H1032 H     H_    0.728345 0.013205 0.072583 0.000000
H1033 H     H_    0.733001 0.978432 0.045780 0.000000
H1034 H     H_    0.794160 0.002827 0.092074 0.000000
H1035 H     H_    0.775468 0.036842 0.014377 0.000000
H1036 H     H_    0.822344 0.055048 0.036504 0.000000
H1037 H     H_    0.870002 0.963567 0.994194 0.000000
H1038 H     H_    0.847090 0.920744 0.935036 0.000000
H1039 H     H_    0.784208 0.897609 0.902529 0.000000
H1040 H     H_    0.749323 0.928308 0.918142 0.000000

loop_
_geom_bond_atom_site_label_1
_geom_bond_atom_site_label_2
_geom_bond_distance
_geom_bond_site_symmetry_2
_ccdc_geom_bond_type
Zn1   N3    2.090 .      S
Zn1   N6    2.154 .      S
Zn1   N8    2.140 .      S
Zn1   N11   2.278 .      S
Zn2   N15   2.181 .      S
Zn2   N18   2.190 .      S
Zn2   N20   2.150 .      S
Zn2   N251  2.256 .      S
Zn3   N21   2.114 .      S
Zn3   N53   2.272 .      S
Zn3   N60   2.154 .      S
Zn3   N263  2.177 .      S
Zn4   N23   2.179 .      S
Zn4   N26   2.273 .      S
Zn4   N29   2.174 .      S
Zn4   N95   2.162 .      S
Zn5   N33   2.210 .      S
Zn5   N35   2.185 .      S
Zn5   N39   2.075 .      S
Zn5   N258  2.243 .      S
Zn6   N42   2.213 1_665  S
Zn6   N45   2.188 .      S
Zn6   N47   2.035 1_556  S
Zn6   N212  2.151 .      S
Zn7   N50   2.223 1_556  S
Zn7   N54   2.321 .      S
Zn7   N113  2.145 1_556  S
Zn7   N233  2.174 .      S
Zn8   N56   2.162 .      S
Zn8   N59   2.189 .      S
Zn8   N63   2.215 .      S
Zn8   N80   2.334 1_554  S
Zn9   N51   2.209 .      S
Zn9   N66   2.245 .      S
Zn9   N68   2.141 .      S
Zn9   N71   2.114 .      S
Zn10  N75   2.268 .      S
Zn10  N78   2.295 .      S
Zn10  N131  2.008 .      S
Zn10  N176  2.172 .      S
Zn11  N81   2.366 .      S
Zn11  N83   2.278 .      S
Zn11  N116  2.056 .      S
Zn11  N209  2.157 .      S
Zn12  N86   2.195 .      S
Zn12  N90   2.195 .      S
Zn12  N120  2.113 .      S
Zn12  N200  2.139 .      S
Zn13  N92   2.203 .      S
Zn13  N96   2.164 1_655  S
Zn13  N99   2.195 .      S
Zn13  N224  2.157 .      S
Zn14  N2    2.174 .      S
Zn14  N65   2.180 .      S
Zn14  N93   2.207 .      S
Zn14  N290  2.108 .      S
Zn15  N24   2.075 .      S
Zn15  N41   2.211 .      S
Zn15  N188  2.203 .      S
Zn15  N299  2.150 .      S
Zn16  N27   2.253 .      S
Zn16  N84   2.294 1_554  S
Zn16  N192  2.160 .      S
Zn16  N282  2.111 .      S
Zn17  N9    2.149 .      S
Zn17  N36   2.086 .      S
Zn17  N69   2.130 .      S
Zn17  N87   2.163 .      S
Zn18  N38   2.137 .      S
Zn18  N72   2.122 .      S
Zn18  N249  2.312 .      S
Zn18  N297  2.270 .      S
Zn19  N17   2.204 .      S
Zn19  N57   2.096 .      S
Zn19  N74   2.282 .      S
Zn19  N276  2.248 .      S
Zn20  N30   2.161 .      S
Zn20  N239  2.246 .      S
Zn20  N285  2.226 .      S
Zn20  N303  2.162 .      S
Zn21  N195  2.108 .      S
Zn21  N255  2.112 .      S
Zn21  N288  2.113 .      S
Zn21  N305  2.139 .      S
Zn22  N101  2.206 .      S
Zn22  N104  2.098 .      S
Zn22  N108  2.253 .      S
Zn22  N110  2.088 .      S
Zn23  N114  2.089 .      S
Zn23  N117  2.032 .      S
Zn23  N119  2.138 .      S
Zn23  N129  2.140 .      S
Zn24  N123  2.033 .      S
Zn24  N126  2.191 .      S
Zn24  N128  2.095 .      S
Zn24  N132  2.204 .      S
Zn25  N134  2.171 1_545  S
Zn25  N137  2.190 1_545  S
Zn25  N141  2.120 .      S
Zn25  N149  2.042 1_545  S
Zn26  N144  2.238 1_545  S
Zn26  N146  2.162 1_545  S
Zn26  N150  2.018 1_545  S
Zn26  N153  2.065 .      S
Zn27  N156  2.090 .      S
Zn27  N158  2.054 .      S
Zn27  N161  2.201 .      S
Zn27  N165  2.111 .      S
Zn28  N140  2.098 .      S
Zn28  N152  2.130 .      S
Zn28  N167  2.157 .      S
Zn28  N171  2.129 .      S
Zn29  N155  2.072 .      S
Zn29  N174  2.158 .      S
Zn29  N177  2.134 .      S
Zn29  N180  2.024 .      S
Zn30  N159  2.122 .      S
Zn30  N179  2.161 .      S
Zn30  N182  2.237 .      S
Zn30  N185  2.186 .      S
Zn31  N89   2.194 .      S
Zn31  N189  2.179 .      S
Zn31  N191  2.153 .      S
Zn31  N194  2.201 .      S
Zn32  N5    2.097 .      S
Zn32  N32   2.214 .      S
Zn32  N242  2.204 .      S
Zn32  N293  2.116 .      S
Zn33  N14   2.211 .      S
Zn33  N230  2.288 .      S
Zn33  N260  2.116 .      S
Zn33  N273  2.167 .      S
Zn34  N164  2.109 .      S
Zn34  N197  2.049 .      S
Zn34  N201  2.134 .      S
Zn34  N204  2.065 .      S
Zn35  N173  2.132 .      S
Zn35  N203  2.025 .      S
Zn35  N206  2.028 .      S
Zn35  N210  2.160 .      S
Zn36  N147  2.167 1_545  S
Zn36  N213  2.162 1_545  S
Zn36  N216  2.086 1_545  S
Zn36  N219  2.068 .      S
Zn37  N168  2.154 .      S
Zn37  N218  2.068 .      S
Zn37  N221  2.073 .      S
Zn37  N225  2.216 .      S
Zn38  N105  2.047 .      S
Zn38  N143  2.263 .      S
Zn38  N228  2.315 1_665  S
Zn38  N231  2.281 .      S
Zn39  N186  2.201 .      S
Zn39  N198  2.063 .      S
Zn39  N207  2.064 .      S
Zn39  N234  2.192 .      S
Zn40  N107  2.098 .      S
Zn40  N170  2.131 .      S
Zn40  N236  2.157 .      S
Zn40  N240  2.194 1_655  S
Zn41  N111  2.066 .      S
Zn41  N135  2.225 .      S
Zn41  N243  2.160 .      S
Zn41  N246  2.248 .      S
Zn42  N122  2.124 .      S
Zn42  N183  2.221 .      S
Zn42  N248  2.313 .      S
Zn42  N252  2.249 .      S
Zn43  N125  2.130 .      S
Zn43  N162  2.256 .      S
Zn43  N254  2.241 .      S
Zn43  N257  2.227 .      S
Zn44  N44   2.225 .      S
Zn44  N261  2.120 .      S
Zn44  N264  2.145 .      S
Zn44  N267  2.143 .      S
Zn45  N62   2.265 .      S
Zn45  N266  2.186 .      S
Zn45  N269  2.221 1_554  S
Zn45  N279  2.059 .      S
Zn46  N138  2.132 1_545  S
Zn46  N215  2.049 1_545  S
Zn46  N222  2.024 .      S
Zn46  N309  2.173 1_545  S
Zn47  N245  2.239 .      S
Zn47  N272  2.137 .      S
Zn47  N275  2.183 .      S
Zn47  N278  2.154 .      S
Zn48  N77   2.184 .      S
Zn48  N281  2.196 .      S
Zn48  N284  2.236 .      S
Zn48  N287  2.145 .      S
Zn49  N48   2.131 .      S
Zn49  N98   2.146 .      S
Zn49  N102  2.149 .      S
Zn49  N311  2.066 1_545  S
Zn50  N237  2.216 .      S
Zn50  N291  2.067 .      S
Zn50  N294  2.100 .      S
Zn50  N296  2.229 .      S
Zn51  N227  2.268 .      S
Zn51  N300  2.189 .      S
Zn51  N302  2.185 .      S
Zn51  N306  2.145 .      S
Zn52  N12   2.242 1_565  S
Zn52  N270  2.186 .      S
Zn52  N308  2.174 .      S
Zn52  N312  2.020 .      S
C1    N1    1.450 .      S
C1    H1    1.095 .      S
C1    H2    1.097 .      S
C1    H3    1.106 .      S
N1    C2    1.457 .      S
N1    H4    1.039 .      S
C2    C3    1.448 .      S
C2    H5    1.092 .      S
C2    H6    1.092 .      S
C5    H7    1.068 .      S
C6    H8    1.081 .      S
C7    H9    1.081 .      S
C8    H10   1.081 .      S
C10   N4    1.452 .      S
C10   H11   1.107 .      S
C10   H12   1.102 .      S
C10   H13   1.099 .      S
N4    C11   1.464 .      S
N4    H14   1.044 .      S
C11   C12   1.462 .      S
C11   H15   1.086 .      S
C11   H16   1.094 .      S
C14   H17   1.078 .      S
C15   H18   1.081 .      S
C16   H19   1.081 .      S
C17   H20   1.057 .      S
C19   N7    1.438 .      S
C19   H21   1.101 .      S
C19   H22   1.083 .      S
C19   H23   1.100 .      S
N7    C20   1.439 .      S
N7    H24   1.029 .      S
C20   C21   1.468 .      S
C20   H25   1.077 .      S
C20   H26   1.103 .      S
C23   H27   1.077 .      S
C24   H28   1.081 .      S
C25   H29   1.081 .      S
C26   H30   1.078 .      S
C28   N10   1.452 .      S
C28   H31   1.106 .      S
C28   H32   1.109 .      S
C28   H33   1.106 .      S
N10   C29   1.458 .      S
N10   H34   1.044 .      S
C29   C30   1.480 .      S
C29   H35   1.097 .      S
C29   H36   1.104 .      S
C32   H37   1.070 1_556  S
C33   H38   1.081 .      S
C34   H39   1.081 .      S
C35   H40   1.079 .      S
N12   Zn52  2.242 1_545  S
H37   C32   1.070 1_554  S
C37   N13   1.459 .      S
C37   H41   1.106 .      S
C37   H42   1.099 .      S
C37   H43   1.109 .      S
N13   C38   1.464 .      S
N13   H44   1.040 .      S
C38   C39   1.487 .      S
C38   H45   1.106 .      S
C38   H46   1.089 .      S
C41   H47   1.078 .      S
C42   H48   1.081 .      S
C43   H49   1.081 .      S
C44   H50   1.080 .      S
C46   N16   1.445 .      S
C46   H51   1.101 .      S
C46   H52   1.092 .      S
C46   H53   1.083 .      S
N16   C47   1.443 .      S
N16   H54   1.029 .      S
C47   C48   1.462 .      S
C47   H55   1.091 .      S
C47   H56   1.074 .      S
C50   H57   1.077 .      S
C51   H58   1.081 .      S
C52   H59   1.081 .      S
C53   H60   1.077 .      S
C55   N19   1.443 .      S
C55   H61   1.097 .      S
C55   H62   1.092 .      S
C55   H63   1.100 .      S
N19   C56   1.432 .      S
N19   H64   1.035 .      S
C56   C57   1.442 .      S
C56   H65   1.091 .      S
C56   H66   1.055 .      S
C59   H67   1.065 .      S
C60   H68   1.081 .      S
C61   H69   1.081 .      S
C62   H70   1.077 .      S
C64   N22   1.448 .      S
C64   H71   1.094 .      S
C64   H72   1.099 .      S
C64   H73   1.099 .      S
N22   C65   1.436 .      S
N22   H74   1.019 .      S
C65   C66   1.482 .      S
C65   H75   1.096 .      S
C65   H76   1.099 .      S
C68   H77   1.076 .      S
C69   H78   1.081 .      S
C70   H79   1.081 .      S
C71   H80   1.081 .      S
C73   N25   1.453 .      S
C73   H81   1.106 .      S
C73   H82   1.109 .      S
C73   H83   1.109 .      S
N25   C74   1.449 .      S
N25   H84   1.044 .      S
C74   C75   1.483 1_556  S
C74   H85   1.108 .      S
C74   H86   1.106 .      S
C75   C74   1.483 1_554  S
C77   H87   1.044 .      S
C78   H88   1.078 .      S
C79   H89   1.078 .      S
C80   H90   1.050 .      S
C82   N28   1.459 .      S
C82   H91   1.099 .      S
C82   H92   1.086 .      S
C82   H93   1.106 .      S
N28   C83   1.458 .      S
N28   H94   1.031 .      S
C83   C84   1.413 .      S
C83   H95   1.099 .      S
C83   H96   1.083 .      S
C86   H97   1.081 .      S
C87   H98   1.081 .      S
C88   H99   1.081 .      S
C89   H100  1.071 .      S
C91   N31   1.455 .      S
C91   H101  1.099 .      S
C91   H102  1.105 .      S
C91   H103  1.097 .      S
N31   C92   1.424 .      S
N31   H104  1.028 .      S
C92   C93   1.441 .      S
C92   H105  1.098 .      S
C92   H106  1.067 .      S
C95   H107  1.079 .      S
C96   H108  1.081 .      S
C97   H109  1.081 .      S
C98   H110  1.074 .      S
C100  N34   1.443 .      S
C100  H111  1.105 .      S
C100  H112  1.087 .      S
C100  H113  1.090 .      S
N34   C101  1.436 .      S
N34   H114  1.011 .      S
C101  C102  1.485 .      S
C101  H115  1.094 .      S
C101  H116  1.085 .      S
C104  H117  1.062 .      S
C105  H118  1.077 .      S
C106  H119  1.072 .      S
C107  H120  1.068 .      S
C109  N37   1.458 .      S
C109  H121  1.102 .      S
C109  H122  1.103 .      S
C109  H123  1.108 .      S
N37   C110  1.446 .      S
N37   H124  1.039 .      S
C110  C111  1.483 .      S
C110  H125  1.100 .      S
C110  H126  1.094 .      S
C113  H127  1.079 .      S
C114  H128  1.081 .      S
C115  H129  1.081 .      S
C116  H130  1.081 .      S
C118  N40   1.447 .      S
C118  H131  1.092 .      S
C118  H132  1.082 1_455  S
C118  H133  1.079 1_455  S
N40   C119  1.440 .      S
N40   H134  1.041 .      S
C119  C120  1.449 .      S
C119  H135  1.083 .      S
C119  H136  1.103 .      S
C122  H137  1.076 .      S
C123  H138  1.081 .      S
C124  H139  1.081 .      S
C125  H140  1.078 .      S
N42   Zn6   2.213 1_445  S
H132  C118  1.082 1_655  S
H133  C118  1.079 1_655  S
C127  N43   1.446 .      S
C127  H141  1.107 .      S
C127  H142  1.106 .      S
C127  H143  1.093 .      S
N43   C128  1.447 .      S
N43   H144  1.040 .      S
C128  C129  1.459 .      S
C128  H145  1.106 .      S
C128  H146  1.099 .      S
C131  H147  1.056 .      S
C132  H148  1.081 1_655  S
C133  H149  1.081 .      S
C134  H150  1.072 .      S
H148  C132  1.081 1_455  S
C136  N46   1.442 1_455  S
C136  H151  1.109 .      S
C136  H152  1.103 1_455  S
C136  H153  1.107 .      S
N46   C136  1.442 1_655  S
N46   C137  1.454 .      S
N46   H154  1.039 1_556  S
C137  C138  1.486 .      S
C137  H155  1.085 .      S
C137  H156  1.101 .      S
N47   Zn6   2.035 1_554  S
C140  H157  1.067 .      S
C141  H158  1.080 .      S
C142  H159  1.075 .      S
C143  H160  1.061 1_565  S
H152  C136  1.103 1_655  S
H154  N46   1.039 1_554  S
H160  C143  1.061 1_545  S
C145  N49   1.433 .      S
C145  H161  1.094 .      S
C145  H162  1.110 .      S
C145  H163  1.108 .      S
N49   C146  1.433 .      S
N49   H164  1.036 .      S
C146  C147  1.452 1_556  S
C146  H165  1.099 .      S
C146  H166  1.094 .      S
C147  C146  1.452 1_554  S
N50   Zn7   2.223 1_554  S
C149  H167  1.073 .      S
C150  H168  1.081 .      S
C151  H169  1.080 .      S
C152  H170  1.071 .      S
C154  N52   1.456 .      S
C154  H171  1.108 .      S
C154  H172  1.109 .      S
C154  H173  1.101 .      S
N52   C155  1.456 .      S
N52   H174  1.033 .      S
C155  C156  1.486 .      S
C155  H175  1.097 .      S
C155  H176  1.088 .      S
C158  H177  1.076 .      S
C159  H178  1.081 .      S
C160  H179  1.081 .      S
C161  H180  1.072 .      S
C163  N55   1.449 .      S
C163  H181  1.102 .      S
C163  H182  1.087 .      S
C163  H183  1.088 .      S
N55   C164  1.441 .      S
N55   H184  1.038 .      S
C164  C165  1.454 .      S
C164  H185  1.097 .      S
C164  H186  1.084 .      S
C167  H187  1.047 .      S
C168  H188  1.080 .      S
C169  H189  1.066 .      S
C170  H190  1.074 .      S
C172  N58   1.455 .      S
C172  H191  1.109 .      S
C172  H192  1.110 .      S
C172  H193  1.109 .      S
N58   C173  1.450 .      S
N58   H194  1.041 .      S
C173  C174  1.478 1_556  S
C173  H195  1.104 1_556  S
C173  H196  1.100 .      S
C174  C173  1.478 1_554  S
C176  H197  1.042 .      S
C177  H198  1.061 .      S
C178  H199  1.045 .      S
C179  H200  1.046 .      S
H195  C173  1.104 1_554  S
C181  N61   1.453 .      S
C181  H201  1.108 .      S
C181  H202  1.108 .      S
C181  H203  1.109 .      S
N61   C182  1.450 .      S
N61   H204  1.044 .      S
C182  C183  1.474 1_556  S
C182  H205  1.093 .      S
C182  H206  1.090 .      S
C183  C182  1.474 1_554  S
C185  H207  1.075 .      S
C186  H208  1.080 .      S
C187  H209  1.081 .      S
C188  H210  1.081 .      S
C190  N64   1.452 .      S
C190  H211  1.109 .      S
C190  H212  1.107 .      S
C190  H213  1.108 .      S
N64   C191  1.459 .      S
N64   H214  1.043 .      S
C191  C192  1.475 1_556  S
C191  H215  1.096 .      S
C191  H216  1.090 .      S
C192  C191  1.475 1_554  S
C194  H217  1.081 .      S
C195  H218  1.081 .      S
C196  H219  1.081 .      S
C197  H220  1.071 .      S
C199  N67   1.443 .      S
C199  H221  1.105 .      S
C199  H222  1.105 .      S
C199  H223  1.098 .      S
N67   C200  1.436 .      S
N67   H224  1.020 .      S
C200  C201  1.468 .      S
C200  H225  1.087 .      S
C200  H226  1.084 .      S
C203  H227  1.078 .      S
C204  H228  1.080 .      S
C205  H229  1.081 .      S
C206  H230  1.081 .      S
C208  N70   1.453 .      S
C208  H231  1.108 .      S
C208  H232  1.109 .      S
C208  H233  1.109 .      S
N70   C209  1.447 .      S
N70   H234  1.042 .      S
C209  C210  1.486 .      S
C209  H235  1.100 .      S
C209  H236  1.102 .      S
C212  H237  1.064 .      S
C213  H238  1.078 .      S
C214  H239  1.066 .      S
C215  H240  1.064 .      S
C217  N73   1.452 .      S
C217  H241  1.109 .      S
C217  H242  1.109 .      S
C217  H243  1.107 .      S
N73   C218  1.456 .      S
N73   H244  1.044 .      S
C218  C219  1.466 .      S
C218  H245  1.092 .      S
C218  H246  1.099 .      S
C221  H247  1.073 .      S
C222  H248  1.081 .      S
C223  H249  1.078 .      S
C224  H250  1.080 .      S
C226  N76   1.452 .      S
C226  H251  1.107 .      S
C226  H252  1.107 .      S
C226  H253  1.110 .      S
N76   C227  1.451 .      S
N76   H254  1.043 .      S
C227  C228  1.480 .      S
C227  H255  1.103 .      S
C227  H256  1.096 .      S
C230  H257  1.076 .      S
C231  H258  1.079 .      S
C232  H259  1.081 .      S
C233  H260  1.069 .      S
C235  N79   1.454 .      S
C235  H261  1.108 .      S
C235  H262  1.108 .      S
C235  H263  1.105 .      S
N79   C236  1.456 .      S
N79   H264  1.041 .      S
C236  C237  1.494 .      S
C236  H265  1.102 .      S
C236  H266  1.108 .      S
N80   Zn8   2.334 1_556  S
C239  H267  1.072 .      S
C240  H268  1.081 .      S
C241  H269  1.081 .      S
C242  H270  1.057 .      S
C244  N82   1.453 .      S
C244  H271  1.109 .      S
C244  H272  1.110 .      S
C244  H273  1.109 .      S
N82   C245  1.453 .      S
N82   H274  1.040 .      S
C245  C246  1.496 .      S
C245  H275  1.101 .      S
C245  H276  1.107 .      S
C248  H277  1.077 1_554  S
C249  H278  1.081 .      S
C250  H279  1.080 .      S
C251  H280  1.067 .      S
N84   Zn16  2.294 1_556  S
H277  C248  1.077 1_556  S
C253  N85   1.449 .      S
C253  H281  1.079 .      S
C253  H282  1.103 .      S
C253  H283  1.105 .      S
N85   C254  1.460 .      S
N85   H284  1.042 .      S
C254  C255  1.451 .      S
C254  H285  1.085 .      S
C254  H286  1.080 .      S
C257  H287  1.075 .      S
C258  H288  1.081 .      S
C259  H289  1.081 .      S
C260  H290  1.072 .      S
C262  N88   1.447 .      S
C262  H291  1.108 .      S
C262  H292  1.107 .      S
C262  H293  1.105 .      S
N88   C263  1.451 .      S
N88   H294  1.042 .      S
C263  C264  1.463 .      S
C263  H295  1.102 .      S
C263  H296  1.106 .      S
C266  H297  1.066 .      S
C267  H298  1.081 .      S
C268  H299  1.081 .      S
C269  H300  1.063 .      S
C271  N91   1.453 .      S
C271  H301  1.107 1_655  S
C271  H302  1.109 .      S
C271  H303  1.109 .      S
N91   C272  1.455 .      S
N91   H304  1.039 .      S
C272  C273  1.496 .      S
C272  H305  1.101 .      S
C272  H306  1.104 .      S
C275  H307  1.080 .      S
C276  H308  1.081 .      S
C277  H309  1.081 .      S
C278  H310  1.078 .      S
H301  C271  1.107 1_455  S
C280  N94   1.453 .      S
C280  H311  1.107 .      S
C280  H312  1.109 .      S
C280  H313  1.109 .      S
N94   C281  1.451 .      S
N94   H314  1.044 .      S
C281  C282  1.488 .      S
C281  H315  1.109 .      S
C281  H316  1.107 .      S
C284  H317  1.040 .      S
C285  H318  1.077 .      S
C286  H319  1.063 .      S
C287  H320  1.063 .      S
N96   Zn13  2.164 1_455  S
C289  N97   1.452 1_556  S
C289  H321  1.100 .      S
C289  H322  1.101 1_556  S
C289  H323  1.109 .      S
N97   C289  1.452 1_554  S
N97   C290  1.455 .      S
N97   H324  1.033 .      S
C290  C291  1.456 .      S
C290  H325  1.095 .      S
C290  H326  1.091 .      S
C293  H327  1.062 .      S
C294  H328  1.078 .      S
C295  H329  1.076 .      S
C296  H330  1.048 .      S
H322  C289  1.101 1_554  S
C298  N100  1.465 .      S
C298  H331  1.096 .      S
C298  H332  1.105 .      S
C298  H333  1.102 .      S
N100  C299  1.432 .      S
N100  H334  1.028 .      S
C299  C300  1.407 .      S
C299  H335  1.091 .      S
C299  H336  1.089 .      S
C302  H337  1.074 .      S
C303  H338  1.075 .      S
C304  H339  1.074 .      S
C305  H340  1.078 .      S
C307  N103  1.449 .      S
C307  H341  1.091 .      S
C307  H342  1.101 .      S
C307  H343  1.106 .      S
N103  C308  1.451 .      S
N103  H344  1.032 .      S
C308  C309  1.484 .      S
C308  H345  1.100 .      S
C308  H346  1.066 .      S
C311  H347  1.053 .      S
C312  H348  1.077 .      S
C313  H349  1.067 .      S
C314  H350  1.055 1_545  S
H350  C314  1.055 1_565  S
C316  N106  1.442 .      S
C316  H351  1.091 .      S
C316  H352  1.095 1_655  S
C316  H353  1.102 1_655  S
N106  C317  1.454 .      S
N106  H354  1.029 .      S
C317  C318  1.450 .      S
C317  H355  1.105 .      S
C317  H356  1.105 .      S
C320  H357  1.072 .      S
C321  H358  1.080 .      S
C322  H359  1.075 .      S
C323  H360  1.037 .      S
H352  C316  1.095 1_455  S
H353  C316  1.102 1_455  S
C325  N109  1.432 .      S
C325  H361  1.091 .      S
C325  H362  1.105 .      S
C325  H363  1.083 .      S
N109  C326  1.447 .      S
N109  H364  1.042 .      S
C326  C327  1.455 .      S
C326  H365  1.106 .      S
C326  H366  1.104 .      S
C329  H367  1.060 1_565  S
C330  H368  1.079 .      S
C331  H369  1.061 .      S
C332  H370  1.075 .      S
H367  C329  1.060 1_545  S
C334  N112  1.435 1_554  S
C334  H371  1.089 .      S
C334  H372  1.102 .      S
C334  H373  1.099 .      S
N112  C334  1.435 1_556  S
N112  C335  1.424 1_556  S
N112  H374  1.034 .      S
C335  N112  1.424 1_554  S
C335  C336  1.455 .      S
C335  H375  1.108 .      S
C335  H376  1.105 .      S
N113  Zn7   2.145 1_554  S
C338  H377  1.070 .      S
C339  H378  1.067 .      S
C340  H379  1.071 .      S
C341  H380  1.072 .      S
C343  N115  1.440 .      S
C343  H381  1.103 .      S
C343  H382  1.103 .      S
C343  H383  1.096 .      S
N115  C344  1.437 1_556  S
N115  H384  1.034 .      S
C344  N115  1.437 1_554  S
C344  C345  1.459 .      S
C344  H385  1.099 .      S
C344  H386  1.108 .      S
C347  H387  1.064 .      S
C348  H388  1.078 .      S
C349  H389  1.077 .      S
C350  H390  1.077 .      S
C352  N118  1.443 .      S
C352  H391  1.101 .      S
C352  H392  1.097 .      S
C352  H393  1.108 .      S
N118  C353  1.447 .      S
N118  H394  1.043 .      S
C353  C354  1.486 .      S
C353  H395  1.101 .      S
C353  H396  1.096 .      S
C356  H397  1.061 .      S
C357  H398  1.077 .      S
C358  H399  1.068 .      S
C359  H400  1.070 .      S
C361  N121  1.442 .      S
C361  H401  1.106 .      S
C361  H402  1.108 .      S
C361  H403  1.070 .      S
N121  C362  1.435 .      S
N121  H404  1.041 .      S
C362  C363  1.452 .      S
C362  H405  1.100 .      S
C362  H406  1.107 .      S
C365  H407  1.036 .      S
C366  H408  1.076 .      S
C367  H409  1.067 .      S
C368  H410  1.074 .      S
C370  N124  1.416 .      S
C370  H411  1.101 .      S
C370  H412  1.084 .      S
C370  H413  1.088 .      S
N124  C371  1.438 .      S
N124  H414  1.040 .      S
C371  C372  1.452 .      S
C371  H415  1.097 .      S
C371  H416  1.098 .      S
C374  H417  1.074 .      S
C375  H418  1.078 .      S
C376  H419  1.066 .      S
C377  H420  1.042 .      S
C379  N127  1.453 .      S
C379  H421  1.102 .      S
C379  H422  1.105 .      S
C379  H423  1.093 .      S
N127  C380  1.451 .      S
N127  H424  1.038 .      S
C380  C381  1.488 .      S
C380  H425  1.105 .      S
C380  H426  1.107 .      S
C383  H427  1.067 .      S
C384  H428  1.068 .      S
C385  H429  1.081 .      S
C386  H430  1.052 .      S
C388  N130  1.459 .      S
C388  H431  1.096 .      S
C388  H432  1.100 .      S
C388  H433  1.098 .      S
N130  C389  1.444 .      S
N130  H434  1.032 .      S
C389  C390  1.476 .      S
C389  H435  1.085 .      S
C389  H436  1.102 .      S
C392  H437  1.060 .      S
C393  H438  1.080 .      S
C394  H439  1.061 .      S
C395  H440  1.038 .      S
C397  N133  1.438 .      S
C397  H441  1.090 .      S
C397  H442  1.107 .      S
C397  H443  1.100 .      S
N133  C398  1.446 .      S
N133  H444  1.044 .      S
C398  C399  1.447 1_545  S
C398  H445  1.097 .      S
C398  H446  1.096 .      S
C399  C398  1.447 1_565  S
N134  Zn25  2.171 1_565  S
C401  H447  1.077 .      S
C402  H448  1.081 .      S
C403  H449  1.081 .      S
C404  H450  1.070 .      S
C406  N136  1.455 1_565  S
C406  H451  1.109 .      S
C406  H452  1.107 .      S
C406  H453  1.109 .      S
N136  C406  1.455 1_545  S
N136  C407  1.456 .      S
N136  H454  1.044 .      S
C407  C408  1.496 .      S
C407  H455  1.089 .      S
C407  H456  1.105 .      S
N137  Zn25  2.190 1_565  S
C410  H457  1.064 .      S
C411  H458  1.081 .      S
C412  H459  1.081 .      S
C413  H460  1.075 .      S
N138  Zn46  2.132 1_565  S
C415  N139  1.443 .      S
C415  H461  1.098 .      S
C415  H462  1.100 .      S
C415  H463  1.107 .      S
N139  C416  1.464 .      S
N139  H464  1.040 .      S
C416  C417  1.507 .      S
C416  H465  1.088 .      S
C416  H466  1.103 .      S
C419  H467  1.057 .      S
C420  H468  1.081 .      S
C421  H469  1.081 .      S
C422  H470  1.079 .      S
C424  N142  1.454 .      S
C424  H471  1.108 .      S
C424  H472  1.102 .      S
C424  H473  1.107 .      S
N142  C425  1.460 1_455  S
N142  H474  1.041 .      S
C425  N142  1.460 1_655  S
C425  C426  1.471 1_545  S
C425  H475  1.097 .      S
C425  H476  1.104 .      S
C426  C425  1.471 1_565  S
C428  H477  1.081 1_655  S
C429  H478  1.081 1_655  S
C430  H479  1.081 .      S
C431  H480  1.076 .      S
N144  Zn26  2.238 1_565  S
H477  C428  1.081 1_455  S
H478  C429  1.081 1_455  S
C433  N145  1.453 .      S
C433  H481  1.109 .      S
C433  H482  1.109 .      S
C433  H483  1.109 .      S
N145  C434  1.453 .      S
N145  H484  1.044 1_545  S
C434  C435  1.469 1_455  S
C434  H485  1.099 .      S
C434  H486  1.106 .      S
C435  C434  1.469 1_655  S
N146  Zn26  2.162 1_565  S
C437  H487  1.070 .      S
C438  H488  1.081 .      S
C439  H489  1.081 .      S
C440  H490  1.074 .      S
N147  Zn36  2.167 1_565  S
H484  N145  1.044 1_565  S
C442  N148  1.458 .      S
C442  H491  1.098 .      S
C442  H492  1.096 .      S
C442  H493  1.097 .      S
N148  C443  1.440 .      S
N148  H494  1.038 .      S
C443  C444  1.468 .      S
C443  H495  1.097 .      S
C443  H496  1.098 .      S
N149  Zn25  2.042 1_565  S
C446  H497  1.070 .      S
C447  H498  1.081 .      S
C448  H499  1.081 .      S
C449  H500  1.076 .      S
N150  Zn26  2.018 1_565  S
C451  N151  1.404 .      S
C451  H501  1.092 .      S
C451  H502  1.092 .      S
C451  H503  1.091 .      S
N151  C452  1.422 .      S
N151  H504  1.020 .      S
C452  C453  1.445 .      S
C452  H505  1.100 .      S
C452  H506  1.095 .      S
C455  H507  1.071 .      S
C456  H508  1.081 .      S
C457  H509  1.081 .      S
C458  H510  1.077 .      S
C460  N154  1.440 .      S
C460  H511  1.092 .      S
C460  H512  1.088 .      S
C460  H513  1.103 .      S
N154  C461  1.440 .      S
N154  H514  1.023 .      S
C461  C462  1.500 .      S
C461  H515  1.081 .      S
C461  H516  1.106 .      S
C464  H517  1.074 .      S
C465  H518  1.081 .      S
C466  H519  1.081 .      S
C467  H520  1.075 .      S
C469  N157  1.453 .      S
C469  H521  1.109 .      S
C469  H522  1.103 .      S
C469  H523  1.106 .      S
N157  C470  1.468 .      S
N157  H524  1.039 .      S
C470  C471  1.464 .      S
C470  H525  1.096 .      S
C470  H526  1.096 .      S
C473  H527  1.046 .      S
C474  H528  1.071 .      S
C475  H529  1.062 .      S
C476  H530  1.034 .      S
C478  N160  1.458 .      S
C478  H531  1.106 .      S
C478  H532  1.109 .      S
C478  H533  1.109 .      S
N160  C479  1.468 .      S
N160  H534  1.041 .      S
C479  C480  1.444 .      S
C479  H535  1.095 .      S
C479  H536  1.075 .      S
C482  H537  1.074 .      S
C483  H538  1.081 .      S
C484  H539  1.081 .      S
C485  H540  1.071 .      S
C487  N163  1.453 .      S
C487  H541  1.109 .      S
C487  H542  1.110 .      S
C487  H543  1.108 .      S
N163  C488  1.453 .      S
N163  H544  1.044 .      S
C488  C489  1.469 .      S
C488  H545  1.092 .      S
C488  H546  1.104 .      S
C491  H547  1.076 .      S
C492  H548  1.081 .      S
C493  H549  1.081 .      S
C494  H550  1.077 .      S
C496  N166  1.452 .      S
C496  H551  1.109 .      S
C496  H552  1.109 .      S
C496  H553  1.107 .      S
N166  C497  1.461 .      S
N166  H554  1.043 .      S
C497  C498  1.469 1_455  S
C497  H555  1.093 .      S
C497  H556  1.103 .      S
C498  C497  1.469 1_655  S
C500  H557  1.068 .      S
C501  H558  1.081 .      S
C502  H559  1.081 .      S
C503  H560  1.076 .      S
C505  N169  1.457 .      S
C505  H561  1.107 .      S
C505  H562  1.109 .      S
C505  H563  1.109 .      S
N169  C506  1.457 .      S
N169  H564  1.044 .      S
C506  C507  1.475 1_455  S
C506  H565  1.094 .      S
C506  H566  1.086 .      S
C507  C506  1.475 1_655  S
C509  H567  1.076 .      S
C510  H568  1.081 .      S
C511  H569  1.081 .      S
C512  H570  1.066 .      S
C514  N172  1.455 .      S
C514  H571  1.108 .      S
C514  H572  1.107 .      S
C514  H573  1.109 .      S
N172  C515  1.458 .      S
N172  H574  1.044 .      S
C515  C516  1.483 .      S
C515  H575  1.094 .      S
C515  H576  1.083 .      S
C518  H577  1.080 .      S
C519  H578  1.081 .      S
C520  H579  1.081 .      S
C521  H580  1.078 .      S
C523  N175  1.451 .      S
C523  H581  1.108 .      S
C523  H582  1.107 .      S
C523  H583  1.107 .      S
N175  C524  1.451 .      S
N175  H584  1.036 .      S
C524  C525  1.476 .      S
C524  H585  1.097 .      S
C524  H586  1.088 .      S
C527  H587  1.081 .      S
C528  H588  1.081 .      S
C529  H589  1.081 .      S
C530  H590  1.080 .      S
C532  N178  1.436 .      S
C532  H591  1.091 .      S
C532  H592  1.098 .      S
C532  H593  1.104 .      S
N178  C533  1.422 .      S
N178  H594  1.033 .      S
C533  C534  1.460 .      S
C533  H595  1.104 .      S
C533  H596  1.081 .      S
C536  H597  1.072 .      S
C537  H598  1.081 .      S
C538  H599  1.081 .      S
C539  H600  1.070 .      S
C541  N181  1.453 .      S
C541  H601  1.109 .      S
C541  H602  1.109 .      S
C541  H603  1.109 .      S
N181  C542  1.452 .      S
N181  H604  1.044 .      S
C542  C543  1.482 .      S
C542  H605  1.105 .      S
C542  H606  1.104 .      S
C545  H607  1.056 .      S
C546  H608  1.080 .      S
C547  H609  1.077 .      S
C548  H610  1.038 .      S
C550  N184  1.457 .      S
C550  H611  1.109 .      S
C550  H612  1.107 .      S
C550  H613  1.109 .      S
N184  C551  1.459 .      S
N184  H614  1.044 .      S
C551  C552  1.463 .      S
C551  H615  1.092 .      S
C551  H616  1.071 .      S
C554  H617  1.079 .      S
C555  H618  1.081 .      S
C556  H619  1.081 .      S
C557  H620  1.066 .      S
C559  N187  1.453 .      S
C559  H621  1.108 .      S
C559  H622  1.099 .      S
C559  H623  1.091 .      S
N187  C560  1.449 1_556  S
N187  H624  1.039 .      S
C560  N187  1.449 1_554  S
C560  C561  1.482 .      S
C560  H625  1.103 .      S
C560  H626  1.078 .      S
C563  H627  1.073 .      S
C564  H628  1.081 .      S
C565  H629  1.081 .      S
C566  H630  1.078 1_554  S
H630  C566  1.078 1_556  S
C568  N190  1.429 .      S
C568  H631  1.077 .      S
C568  H632  1.099 .      S
C568  H633  1.091 .      S
N190  C569  1.436 .      S
N190  H634  1.041 .      S
C569  C570  1.472 .      S
C569  H635  1.081 .      S
C569  H636  1.079 .      S
C572  H637  1.078 .      S
C573  H638  1.080 .      S
C574  H639  1.081 .      S
C575  H640  1.074 .      S
C577  N193  1.444 .      S
C577  H641  1.105 .      S
C577  H642  1.108 .      S
C577  H643  1.104 .      S
N193  C578  1.449 .      S
N193  H644  1.037 .      S
C578  C579  1.493 .      S
C578  H645  1.101 .      S
C578  H646  1.104 .      S
C581  H647  1.044 .      S
C582  H648  1.081 .      S
C583  H649  1.081 .      S
C584  H650  1.073 .      S
C586  N196  1.472 .      S
C586  H651  1.091 .      S
C586  H652  1.081 .      S
C586  H653  1.101 .      S
N196  C587  1.458 .      S
N196  H654  1.033 .      S
C587  C588  1.440 .      S
C587  H655  1.088 .      S
C587  H656  1.100 .      S
C590  H657  1.070 .      S
C591  H658  1.081 .      S
C592  H659  1.081 .      S
C593  H660  1.072 .      S
C595  N199  1.448 .      S
C595  H661  1.083 .      S
C595  H662  1.085 .      S
C595  H663  1.085 .      S
N199  C596  1.433 .      S
N199  H664  1.038 .      S
C596  C597  1.445 .      S
C596  H665  1.092 .      S
C596  H666  1.091 .      S
C599  H667  1.078 .      S
C600  H668  1.081 .      S
C601  H669  1.081 .      S
C602  H670  1.081 .      S
C604  N202  1.446 .      S
C604  H671  1.101 .      S
C604  H672  1.099 .      S
C604  H673  1.100 .      S
N202  C605  1.467 .      S
N202  H674  1.040 .      S
C605  C606  1.469 .      S
C605  H675  1.100 .      S
C605  H676  1.091 .      S
C608  H677  1.077 .      S
C609  H678  1.081 .      S
C610  H679  1.078 .      S
C611  H680  1.071 .      S
C613  N205  1.429 .      S
C613  H681  1.107 .      S
C613  H682  1.089 .      S
C613  H683  1.093 .      S
N205  C614  1.440 .      S
N205  H684  1.035 .      S
C614  C615  1.449 .      S
C614  H685  1.088 .      S
C614  H686  1.086 .      S
C617  H687  1.081 .      S
C618  H688  1.081 .      S
C619  H689  1.081 .      S
C620  H690  1.080 .      S
C622  N208  1.443 .      S
C622  H691  1.105 .      S
C622  H692  1.080 .      S
C622  H693  1.089 .      S
N208  C623  1.436 .      S
N208  H694  1.041 .      S
C623  C624  1.458 .      S
C623  H695  1.094 .      S
C623  H696  1.093 .      S
C626  H697  1.081 .      S
C627  H698  1.081 .      S
C628  H699  1.081 .      S
C629  H700  1.076 .      S
C631  N211  1.453 .      S
C631  H701  1.109 .      S
C631  H702  1.109 .      S
C631  H703  1.109 .      S
N211  C632  1.453 .      S
N211  H704  1.043 .      S
C632  C633  1.481 .      S
C632  H705  1.107 .      S
C632  H706  1.093 .      S
C635  H707  1.067 .      S
C636  H708  1.080 .      S
C637  H709  1.081 .      S
C638  H710  1.072 .      S
N213  Zn36  2.162 1_565  S
C640  N214  1.451 .      S
C640  H711  1.088 .      S
C640  H712  1.108 .      S
C640  H713  1.095 .      S
N214  C641  1.459 .      S
N214  H714  1.039 .      S
C641  C642  1.476 .      S
C641  H715  1.094 .      S
C641  H716  1.084 .      S
N215  Zn46  2.049 1_565  S
C644  H717  1.075 .      S
C645  H718  1.081 .      S
C646  H719  1.079 .      S
C647  H720  1.065 .      S
N216  Zn36  2.086 1_565  S
C649  N217  1.447 .      S
C649  H721  1.101 1_655  S
C649  H722  1.096 .      S
C649  H723  1.098 1_655  S
N217  C650  1.460 .      S
N217  H724  1.038 .      S
C650  C651  1.465 .      S
C650  H725  1.106 .      S
C650  H726  1.101 .      S
C653  H727  1.066 .      S
C654  H728  1.080 .      S
C655  H729  1.081 .      S
C656  H730  1.050 .      S
H721  C649  1.101 1_455  S
H723  C649  1.098 1_455  S
C658  N220  1.451 .      S
C658  H731  1.091 .      S
C658  H732  1.106 .      S
C658  H733  1.059 .      S
N220  C659  1.448 .      S
N220  H734  1.029 .      S
C659  C660  1.458 .      S
C659  H735  1.087 .      S
C659  H736  1.084 .      S
C662  H737  1.075 .      S
C663  H738  1.081 .      S
C664  H739  1.081 .      S
C665  H740  1.078 .      S
C667  N223  1.454 .      S
C667  H741  1.109 .      S
C667  H742  1.105 .      S
C667  H743  1.108 .      S
N223  C668  1.457 .      S
N223  H744  1.042 .      S
C668  C669  1.487 .      S
C668  H745  1.082 .      S
C668  H746  1.100 .      S
C671  H747  1.068 .      S
C672  H748  1.077 .      S
C673  H749  1.080 .      S
C674  H750  1.063 .      S
C676  N226  1.457 1_565  S
C676  H751  1.106 1_565  S
C676  H752  1.109 .      S
C676  H753  1.107 .      S
N226  C676  1.457 1_545  S
N226  C677  1.441 .      S
N226  H754  1.037 .      S
C677  C678  1.490 .      S
C677  H755  1.079 1_545  S
C677  H756  1.108 1_545  S
C680  H757  1.072 .      S
C681  H758  1.081 .      S
C682  H759  1.081 .      S
C683  H760  1.066 .      S
N228  Zn38  2.315 1_445  S
H751  C676  1.106 1_545  S
H755  C677  1.079 1_565  S
H756  C677  1.108 1_565  S
C685  N229  1.453 .      S
C685  H761  1.108 .      S
C685  H762  1.108 .      S
C685  H763  1.109 .      S
N229  C686  1.453 .      S
N229  H764  1.044 .      S
C686  C687  1.491 .      S
C686  H765  1.092 .      S
C686  H766  1.103 .      S
C689  H767  1.054 .      S
C690  H768  1.081 1_655  S
C691  H769  1.081 .      S
C692  H770  1.080 .      S
H768  C690  1.081 1_455  S
C694  N232  1.454 .      S
C694  H771  1.106 .      S
C694  H772  1.108 .      S
C694  H773  1.104 .      S
N232  C695  1.448 .      S
N232  H774  1.043 .      S
C695  C696  1.488 .      S
C695  H775  1.088 .      S
C695  H776  1.105 .      S
C698  H777  1.076 .      S
C699  H778  1.081 .      S
C700  H779  1.081 .      S
C701  H780  1.073 .      S
C703  N235  1.453 .      S
C703  H781  1.109 1_655  S
C703  H782  1.109 1_655  S
C703  H783  1.108 .      S
N235  C704  1.453 .      S
N235  H784  1.044 .      S
C704  C705  1.486 .      S
C704  H785  1.108 .      S
C704  H786  1.107 .      S
C707  H787  1.061 .      S
C708  H788  1.076 .      S
C709  H789  1.070 .      S
C710  H790  1.059 .      S
H781  C703  1.109 1_455  S
H782  C703  1.109 1_455  S
C712  N238  1.454 .      S
C712  H791  1.107 .      S
C712  H792  1.109 .      S
C712  H793  1.107 .      S
N238  C713  1.451 .      S
N238  H794  1.044 .      S
C713  C714  1.481 .      S
C713  H795  1.089 .      S
C713  H796  1.099 .      S
C716  H797  1.074 .      S
C717  H798  1.081 .      S
C718  H799  1.081 .      S
C719  H800  1.078 .      S
N240  Zn40  2.194 1_455  S
C721  N241  1.446 .      S
C721  H801  1.108 .      S
C721  H802  1.107 .      S
C721  H803  1.109 .      S
N241  C722  1.454 1_565  S
N241  H804  1.042 .      S
C722  N241  1.454 1_545  S
C722  C723  1.484 .      S
C722  H805  1.089 .      S
C722  H806  1.093 .      S
C725  H807  1.074 .      S
C726  H808  1.081 .      S
C727  H809  1.081 1_545  S
C728  H810  1.067 .      S
H809  C727  1.081 1_565  S
C730  N244  1.428 .      S
C730  H811  1.102 .      S
C730  H812  1.093 .      S
C730  H813  1.088 .      S
N244  C731  1.434 .      S
N244  H814  1.041 .      S
C731  C732  1.451 .      S
C731  H815  1.091 .      S
C731  H816  1.099 .      S
C734  H817  1.073 .      S
C735  H818  1.081 .      S
C736  H819  1.081 .      S
C737  H820  1.081 .      S
C739  N247  1.457 .      S
C739  H821  1.099 .      S
C739  H822  1.108 .      S
C739  H823  1.102 .      S
N247  C740  1.456 .      S
N247  H824  1.043 .      S
C740  C741  1.483 .      S
C740  H825  1.106 .      S
C740  H826  1.101 .      S
C743  H827  1.080 .      S
C744  H828  1.081 .      S
C745  H829  1.081 .      S
C746  H830  1.064 .      S
C748  N250  1.454 .      S
C748  H831  1.109 .      S
C748  H832  1.109 .      S
C748  H833  1.109 .      S
N250  C749  1.455 .      S
N250  H834  1.044 .      S
C749  C750  1.491 .      S
C749  H835  1.100 .      S
C749  H836  1.108 .      S
C752  H837  1.063 .      S
C753  H838  1.081 .      S
C754  H839  1.081 .      S
C755  H840  1.076 .      S
C757  N253  1.455 .      S
C757  H841  1.108 .      S
C757  H842  1.109 .      S
C757  H843  1.109 .      S
N253  C758  1.444 .      S
N253  H844  1.038 .      S
C758  C759  1.488 .      S
C758  H845  1.108 .      S
C758  H846  1.098 .      S
C761  H847  1.065 .      S
C762  H848  1.076 .      S
C763  H849  1.071 .      S
C764  H850  1.074 .      S
C766  N256  1.449 .      S
C766  H851  1.108 .      S
C766  H852  1.085 .      S
C766  H853  1.101 .      S
N256  C767  1.448 .      S
N256  H854  1.043 .      S
C767  C768  1.460 .      S
C767  H855  1.107 .      S
C767  H856  1.088 .      S
C770  H857  1.080 .      S
C771  H858  1.081 .      S
C772  H859  1.081 .      S
C773  H860  1.080 .      S
C775  N259  1.442 .      S
C775  H861  1.100 .      S
C775  H862  1.107 .      S
C775  H863  1.102 .      S
N259  C776  1.450 .      S
N259  H864  1.041 .      S
C776  C777  1.483 .      S
C776  H865  1.093 .      S
C776  H866  1.107 .      S
C779  H867  1.061 .      S
C780  H868  1.081 .      S
C781  H869  1.080 .      S
C782  H870  1.071 .      S
C784  N262  1.430 .      S
C784  H871  1.101 .      S
C784  H872  1.096 .      S
C784  H873  1.099 .      S
N262  C785  1.425 .      S
N262  H874  1.031 .      S
C785  C786  1.453 .      S
C785  H875  1.105 .      S
C785  H876  1.105 .      S
C788  H877  1.077 .      S
C789  H878  1.081 .      S
C790  H879  1.081 .      S
C791  H880  1.081 .      S
C793  N265  1.454 .      S
C793  H881  1.098 .      S
C793  H882  1.101 .      S
C793  H883  1.105 .      S
N265  C794  1.455 .      S
N265  H884  1.043 .      S
C794  C795  1.456 .      S
C794  H885  1.093 .      S
C794  H886  1.091 .      S
C797  H887  1.067 .      S
C798  H888  1.080 .      S
C799  H889  1.081 .      S
C800  H890  1.072 .      S
C802  N268  1.453 .      S
C802  H891  1.109 .      S
C802  H892  1.108 .      S
C802  H893  1.109 .      S
N268  C803  1.451 .      S
N268  H894  1.044 .      S
C803  C804  1.494 .      S
C803  H895  1.106 .      S
C803  H896  1.094 .      S
N269  Zn45  2.221 1_556  S
C806  H897  1.072 .      S
C807  H898  1.081 .      S
C808  H899  1.081 .      S
C809  H900  1.066 .      S
C811  N271  1.438 .      S
C811  H901  1.096 .      S
C811  H902  1.099 .      S
C811  H903  1.089 .      S
N271  C812  1.442 .      S
N271  H904  1.036 .      S
C812  C813  1.446 .      S
C812  H905  1.078 .      S
C812  H906  1.100 .      S
C815  H907  1.081 .      S
C816  H908  1.081 .      S
C817  H909  1.081 .      S
C818  H910  1.074 .      S
C820  N274  1.457 .      S
C820  H911  1.109 .      S
C820  H912  1.110 .      S
C820  H913  1.106 .      S
N274  C821  1.462 .      S
N274  H914  1.043 .      S
C821  C822  1.472 .      S
C821  H915  1.099 .      S
C821  H916  1.089 .      S
C824  H917  1.081 .      S
C825  H918  1.080 .      S
C826  H919  1.081 .      S
C827  H920  1.064 .      S
C829  N277  1.441 .      S
C829  H921  1.100 .      S
C829  H922  1.101 .      S
C829  H923  1.074 .      S
N277  C830  1.455 .      S
N277  H924  1.035 .      S
C830  C831  1.454 .      S
C830  H925  1.092 .      S
C830  H926  1.092 .      S
C833  H927  1.062 .      S
C834  H928  1.078 .      S
C835  H929  1.074 .      S
C836  H930  1.078 .      S
C838  N280  1.454 .      S
C838  H931  1.109 .      S
C838  H932  1.108 .      S
C838  H933  1.109 .      S
N280  C839  1.451 .      S
N280  H934  1.041 .      S
C839  C840  1.498 .      S
C839  H935  1.104 .      S
C839  H936  1.100 .      S
C842  H937  1.053 .      S
C843  H938  1.079 .      S
C844  H939  1.071 .      S
C845  H940  1.077 .      S
C847  N283  1.453 .      S
C847  H941  1.109 .      S
C847  H942  1.107 .      S
C847  H943  1.108 .      S
N283  C848  1.456 .      S
N283  H944  1.044 .      S
C848  C849  1.488 .      S
C848  H945  1.082 .      S
C848  H946  1.096 .      S
C851  H947  1.076 .      S
C852  H948  1.081 .      S
C853  H949  1.081 .      S
C854  H950  1.056 .      S
C856  N286  1.458 .      S
C856  H951  1.109 .      S
C856  H952  1.106 .      S
C856  H953  1.107 .      S
N286  C857  1.456 .      S
N286  H954  1.038 .      S
C857  C858  1.484 .      S
C857  H955  1.102 .      S
C857  H956  1.089 .      S
C860  H957  1.079 .      S
C861  H958  1.056 .      S
C862  H959  1.067 .      S
C863  H960  1.071 .      S
C865  N289  1.440 .      S
C865  H961  1.105 .      S
C865  H962  1.103 .      S
C865  H963  1.095 .      S
N289  C866  1.418 .      S
N289  H964  1.028 .      S
C866  C867  1.446 .      S
C866  H965  1.109 .      S
C866  H966  1.088 .      S
C869  H967  1.068 .      S
C870  H968  1.048 .      S
C871  H969  1.062 .      S
C872  H970  1.061 .      S
C874  N292  1.446 .      S
C874  H971  1.104 .      S
C874  H972  1.095 .      S
C874  H973  1.104 .      S
N292  C875  1.448 .      S
N292  H974  1.030 .      S
C875  C876  1.457 .      S
C875  H975  1.098 .      S
C875  H976  1.098 .      S
C878  H977  1.058 .      S
C879  H978  1.081 .      S
C880  H979  1.079 .      S
C881  H980  1.080 .      S
C883  N295  1.452 .      S
C883  H981  1.081 .      S
C883  H982  1.103 .      S
C883  H983  1.098 .      S
N295  C884  1.437 .      S
N295  H984  1.035 .      S
C884  C885  1.474 .      S
C884  H985  1.094 .      S
C884  H986  1.097 .      S
C887  H987  1.078 .      S
C888  H988  1.080 .      S
C889  H989  1.081 .      S
C890  H990  1.067 .      S
C892  N298  1.451 .      S
C892  H991  1.096 .      S
C892  H992  1.096 .      S
C892  H993  1.080 .      S
N298  C893  1.425 .      S
N298  H994  1.033 .      S
C893  C894  1.442 .      S
C893  H995  1.091 .      S
C893  H996  1.095 .      S
C896  H997  1.076 .      S
C897  H998  1.081 .      S
C898  H999  1.081 1_545  S
C899  H1000 1.081 .      S
H999  C898  1.081 1_565  S
C901  N301  1.451 .      S
C901  H1001 1.108 .      S
C901  H1002 1.106 .      S
C901  H1003 1.108 .      S
N301  C902  1.444 .      S
N301  H1004 1.044 .      S
C902  C903  1.481 .      S
C902  H1005 1.102 .      S
C902  H1006 1.087 .      S
C905  H1007 1.059 .      S
C906  H1008 1.055 .      S
C907  H1009 1.075 .      S
C908  H1010 1.067 .      S
C910  N304  1.446 .      S
C910  H1011 1.102 .      S
C910  H1012 1.083 .      S
C910  H1013 1.093 .      S
N304  C911  1.417 .      S
N304  H1014 1.029 .      S
C911  C912  1.419 .      S
C911  H1015 1.085 .      S
C911  H1016 1.097 .      S
C914  H1017 1.079 .      S
C915  H1018 1.081 .      S
C916  H1019 1.081 .      S
C917  H1020 1.079 .      S
C919  N307  1.448 .      S
C919  H1021 1.107 .      S
C919  H1022 1.094 .      S
C919  H1023 1.100 .      S
N307  C920  1.428 .      S
N307  H1024 1.027 .      S
C920  C921  1.443 1_545  S
C920  H1025 1.104 1_545  S
C920  H1026 1.089 .      S
C921  C920  1.443 1_565  S
C923  H1027 1.079 .      S
C924  H1028 1.081 .      S
C925  H1029 1.081 .      S
C926  H1030 1.077 .      S
N309  Zn46  2.173 1_565  S
H1025 C920  1.104 1_565  S
C928  N310  1.455 1_565  S
C928  H1031 1.104 .      S
C928  H1032 1.106 1_565  S
C928  H1033 1.104 .      S
N310  C928  1.455 1_545  S
N310  C929  1.454 .      S
N310  H1034 1.041 .      S
C929  C930  1.468 .      S
C929  H1035 1.092 .      S
C929  H1036 1.096 .      S
N311  Zn49  2.066 1_565  S
C932  H1037 1.058 .      S
C933  H1038 1.062 .      S
C934  H1039 1.076 .      S
C935  H1040 1.066 .      S
H1032 C928  1.106 1_545  S
C3    N2    1.393 .      A
C3    N3    1.372 .      A
N2    C4    1.356 1_554  A
C4    N2    1.356 1_556  A
C4    C5    1.369 .      A
C4    C9    1.369 .      A
C5    C6    1.384 .      A
C6    C7    1.389 .      A
C7    C8    1.382 .      A
C8    C9    1.370 .      A
C9    N3    1.340 1_556  A
N3    C9    1.340 1_554  A
C12   N5    1.373 .      A
C12   N6    1.392 .      A
N5    C13   1.341 .      A
C13   C14   1.374 .      A
C13   C18   1.364 .      A
C14   C15   1.383 1_545  A
C15   C14   1.383 1_565  A
C15   C16   1.385 .      A
C16   C17   1.381 1_565  A
C17   C16   1.381 1_545  A
C17   C18   1.368 .      A
C18   N6    1.353 .      A
C21   N8    1.393 .      A
C21   N9    1.389 .      A
N8    C22   1.352 .      A
C22   C23   1.374 .      A
C22   C27   1.376 .      A
C23   C24   1.383 .      A
C24   C25   1.388 .      A
C25   C26   1.382 .      A
C26   C27   1.375 .      A
C27   N9    1.349 .      A
C30   N11   1.407 1_556  A
C30   N12   1.412 .      A
N11   C30   1.407 1_554  A
N11   C31   1.356 1_554  A
C31   N11   1.356 1_556  A
C31   C32   1.370 .      A
C31   C36   1.381 1_545  A
C32   C33   1.384 1_545  A
C33   C32   1.384 1_565  A
C33   C34   1.389 .      A
C34   C35   1.383 .      A
C35   C36   1.372 .      A
C36   C31   1.381 1_565  A
C36   N12   1.346 1_565  A
N12   C36   1.346 1_545  A
C39   N14   1.400 .      A
C39   N15   1.394 .      A
N14   C40   1.354 .      A
C40   C41   1.373 .      A
C40   C45   1.380 .      A
C41   C42   1.385 .      A
C42   C43   1.391 .      A
C43   C44   1.384 .      A
C44   C45   1.373 .      A
C45   N15   1.350 .      A
C48   N17   1.391 .      A
C48   N18   1.403 .      A
N17   C49   1.353 .      A
C49   C50   1.373 .      A
C49   C54   1.374 .      A
C50   C51   1.385 .      A
C51   C52   1.388 .      A
C52   C53   1.383 .      A
C53   C54   1.367 .      A
C54   N18   1.344 .      A
C57   N20   1.379 .      A
C57   N21   1.381 .      A
N20   C58   1.352 .      A
C58   C59   1.369 .      A
C58   C63   1.371 .      A
C59   C60   1.381 .      A
C60   C61   1.385 .      A
C61   C62   1.378 .      A
C62   C63   1.373 .      A
C63   N21   1.343 .      A
C66   N23   1.409 .      A
C66   N24   1.367 .      A
N23   C67   1.348 1_554  A
C67   N23   1.348 1_556  A
C67   C68   1.370 .      A
C67   C72   1.363 .      A
C68   C69   1.387 .      A
C69   C70   1.393 .      A
C70   C71   1.386 .      A
C71   C72   1.371 .      A
C72   N24   1.338 1_556  A
N24   C72   1.338 1_554  A
C75   N26   1.419 .      A
C75   N27   1.425 .      A
N26   C76   1.331 .      A
C76   C77   1.326 .      A
C76   C81   1.334 .      A
C77   C78   1.366 .      A
C78   C79   1.362 .      A
C79   C80   1.376 .      A
C80   C81   1.349 .      A
C81   N27   1.335 .      A
C84   N29   1.377 .      A
C84   N30   1.369 .      A
N29   C85   1.339 .      A
C85   C86   1.370 .      A
C85   C90   1.378 .      A
C86   C87   1.382 .      A
C87   C88   1.389 .      A
C88   C89   1.385 .      A
C89   C90   1.374 .      A
C90   N30   1.364 .      A
C93   N32   1.404 .      A
C93   N33   1.384 .      A
N32   C94   1.351 .      A
C94   C95   1.373 .      A
C94   C99   1.381 .      A
C95   C96   1.384 .      A
C96   C97   1.390 .      A
C97   C98   1.384 .      A
C98   C99   1.369 .      A
C99   N33   1.351 .      A
C102  N35   1.409 .      A
C102  N36   1.372 .      A
N35   C103  1.349 .      A
C103  C104  1.363 .      A
C103  C108  1.362 .      A
C104  C105  1.373 .      A
C105  C106  1.381 .      A
C106  C107  1.382 .      A
C107  C108  1.373 .      A
C108  N36   1.344 .      A
C111  N38   1.394 .      A
C111  N39   1.374 .      A
N38   C112  1.351 .      A
C112  C113  1.369 .      A
C112  C117  1.369 .      A
C113  C114  1.389 .      A
C114  C115  1.394 .      A
C115  C116  1.387 .      A
C116  C117  1.374 .      A
C117  N39   1.338 .      A
C120  N41   1.399 .      A
C120  N42   1.394 1_554  A
N41   C121  1.352 1_554  A
C121  N41   1.352 1_556  A
C121  C122  1.372 .      A
C121  C126  1.382 .      A
C122  C123  1.384 .      A
C123  C124  1.389 1_545  A
C124  C123  1.389 1_565  A
C124  C125  1.383 .      A
C125  C126  1.371 1_565  A
C126  C125  1.371 1_545  A
C126  N42   1.349 .      A
N42   C120  1.394 1_556  A
C129  N44   1.394 1_556  A
C129  N45   1.401 .      A
N44   C129  1.394 1_554  A
N44   C130  1.360 .      A
C130  C131  1.370 .      A
C130  C135  1.376 .      A
C131  C132  1.382 .      A
C132  C133  1.384 1_655  A
C133  C132  1.384 1_455  A
C133  C134  1.379 .      A
C134  C135  1.374 1_455  A
C135  C134  1.374 1_655  A
C135  N45   1.344 1_554  A
N45   C135  1.344 1_556  A
C138  N47   1.369 1_546  A
C138  N48   1.397 1_556  A
N47   C138  1.369 1_564  A
N47   C139  1.337 .      A
C139  C140  1.370 .      A
C139  C144  1.361 .      A
C140  C141  1.371 .      A
C141  C142  1.376 .      A
C142  C143  1.373 .      A
C143  C144  1.369 .      A
C144  N48   1.352 1_565  A
N48   C138  1.397 1_554  A
N48   C144  1.352 1_545  A
C147  N50   1.404 .      A
C147  N51   1.393 .      A
N50   C148  1.343 .      A
C148  C149  1.360 .      A
C148  C153  1.375 .      A
C149  C150  1.383 .      A
C150  C151  1.389 .      A
C151  C152  1.385 .      A
C152  C153  1.367 .      A
C153  N51   1.351 .      A
C156  N53   1.410 .      A
C156  N54   1.418 1_554  A
N53   C157  1.343 1_554  A
C157  N53   1.343 1_556  A
C157  C158  1.367 .      A
C157  C162  1.383 .      A
C158  C159  1.382 .      A
C159  C160  1.389 .      A
C160  C161  1.386 .      A
C161  C162  1.372 .      A
C162  N54   1.357 .      A
N54   C156  1.418 1_556  A
C165  N56   1.388 .      A
C165  N57   1.380 .      A
N56   C166  1.361 .      A
C166  C167  1.371 .      A
C166  C171  1.365 .      A
C167  C168  1.366 .      A
C168  C169  1.369 .      A
C169  C170  1.375 .      A
C170  C171  1.362 .      A
C171  N57   1.332 .      A
C174  N59   1.402 .      A
C174  N60   1.396 .      A
N59   C175  1.321 .      A
C175  C176  1.327 .      A
C175  C180  1.353 .      A
C176  C177  1.351 .      A
C177  C178  1.361 .      A
C178  C179  1.345 .      A
C179  C180  1.338 .      A
C180  N60   1.320 .      A
C183  N62   1.407 .      A
C183  N63   1.398 .      A
N62   C184  1.350 .      A
C184  C185  1.369 .      A
C184  C189  1.381 .      A
C185  C186  1.384 .      A
C186  C187  1.392 .      A
C187  C188  1.385 .      A
C188  C189  1.372 .      A
C189  N63   1.349 .      A
C192  N65   1.389 .      A
C192  N66   1.409 .      A
N65   C193  1.345 .      A
C193  C194  1.371 .      A
C193  C198  1.380 .      A
C194  C195  1.384 .      A
C195  C196  1.391 .      A
C196  C197  1.386 .      A
C197  C198  1.368 .      A
C198  N66   1.355 .      A
C201  N68   1.393 .      A
C201  N69   1.386 .      A
N68   C202  1.345 1_554  A
C202  N68   1.345 1_556  A
C202  C203  1.370 .      A
C202  C207  1.362 .      A
C203  C204  1.386 .      A
C204  C205  1.389 .      A
C205  C206  1.384 .      A
C206  C207  1.373 .      A
C207  N69   1.345 1_556  A
N69   C207  1.345 1_554  A
C210  N71   1.394 .      A
C210  N72   1.389 .      A
N71   C211  1.338 .      A
C211  C212  1.362 .      A
C211  C216  1.352 .      A
C212  C213  1.371 .      A
C213  C214  1.377 .      A
C214  C215  1.378 .      A
C215  C216  1.344 .      A
C216  N72   1.332 .      A
C219  N74   1.404 .      A
C219  N75   1.418 .      A
N74   C220  1.359 .      A
C220  C221  1.374 .      A
C220  C225  1.384 .      A
C221  C222  1.383 .      A
C222  C223  1.387 .      A
C223  C224  1.382 .      A
C224  C225  1.369 .      A
C225  N75   1.344 .      A
C228  N77   1.397 .      A
C228  N78   1.416 .      A
N77   C229  1.340 .      A
C229  C230  1.370 .      A
C229  C234  1.376 .      A
C230  C231  1.383 .      A
C231  C232  1.388 .      A
C232  C233  1.384 .      A
C233  C234  1.372 .      A
C234  N78   1.358 .      A
C237  N80   1.428 1_554  A
C237  N81   1.422 1_554  A
N80   C237  1.428 1_556  A
N80   C238  1.340 .      A
C238  C239  1.369 .      A
C238  C243  1.385 .      A
C239  C240  1.379 .      A
C240  C241  1.385 .      A
C241  C242  1.384 .      A
C242  C243  1.377 .      A
C243  N81   1.368 .      A
N81   C237  1.422 1_556  A
C246  N83   1.413 .      A
C246  N84   1.416 .      A
N83   C247  1.341 .      A
C247  C248  1.365 1_556  A
C247  C252  1.380 1_556  A
C248  C247  1.365 1_554  A
C248  C249  1.382 .      A
C249  C250  1.388 .      A
C250  C251  1.385 .      A
C251  C252  1.365 .      A
C252  C247  1.380 1_554  A
C252  N84   1.353 1_554  A
N84   C252  1.353 1_556  A
C255  N86   1.395 .      A
C255  N87   1.382 1_556  A
N86   C256  1.349 .      A
C256  C257  1.371 .      A
C256  C261  1.374 .      A
C257  C258  1.383 .      A
C258  C259  1.389 .      A
C259  C260  1.384 .      A
C260  C261  1.371 .      A
C261  N87   1.352 1_556  A
N87   C255  1.382 1_554  A
N87   C261  1.352 1_554  A
C264  N89   1.400 1_556  A
C264  N90   1.393 .      A
N89   C264  1.400 1_554  A
N89   C265  1.347 .      A
C265  C266  1.369 .      A
C265  C270  1.372 .      A
C266  C267  1.377 .      A
C267  C268  1.382 .      A
C268  C269  1.384 .      A
C269  C270  1.374 .      A
C270  N90   1.356 1_554  A
N90   C270  1.356 1_556  A
C273  N92   1.400 1_554  A
C273  N93   1.401 .      A
N92   C273  1.400 1_556  A
N92   C274  1.345 .      A
C274  C275  1.367 .      A
C274  C279  1.377 .      A
C275  C276  1.385 .      A
C276  C277  1.391 .      A
C277  C278  1.384 .      A
C278  C279  1.373 .      A
C279  N93   1.348 1_556  A
N93   C279  1.348 1_554  A
C282  N95   1.405 1_556  A
C282  N96   1.403 .      A
N95   C282  1.405 1_554  A
N95   C283  1.350 .      A
C283  C284  1.357 .      A
C283  C288  1.337 .      A
C284  C285  1.382 .      A
C285  C286  1.368 1_455  A
C286  C285  1.368 1_655  A
C286  C287  1.362 .      A
C287  C288  1.337 1_655  A
C288  C287  1.337 1_455  A
C288  N96   1.315 1_554  A
N96   C288  1.315 1_556  A
C291  N98   1.396 .      A
C291  N99   1.385 1_554  A
N98   C292  1.333 1_554  A
C292  N98   1.333 1_556  A
C292  C293  1.359 .      A
C292  C297  1.358 .      A
C293  C294  1.366 .      A
C294  C295  1.386 .      A
C295  C296  1.350 .      A
C296  C297  1.337 .      A
C297  N99   1.331 .      A
N99   C291  1.385 1_556  A
C300  N101  1.402 .      A
C300  N102  1.357 .      A
N101  C301  1.345 1_545  A
C301  N101  1.345 1_565  A
C301  C302  1.366 .      A
C301  C306  1.374 .      A
C302  C303  1.379 .      A
C303  C304  1.381 .      A
C304  C305  1.385 .      A
C305  C306  1.360 .      A
C306  N102  1.345 1_565  A
N102  C306  1.345 1_545  A
C309  N104  1.403 1_565  A
C309  N105  1.359 .      A
N104  C309  1.403 1_545  A
N104  C310  1.324 .      A
C310  C311  1.353 .      A
C310  C315  1.346 .      A
C311  C312  1.360 .      A
C312  C313  1.383 1_655  A
C313  C312  1.383 1_455  A
C313  C314  1.379 .      A
C314  C315  1.347 1_455  A
C315  C314  1.347 1_655  A
C315  N105  1.334 1_545  A
N105  C315  1.334 1_565  A
C318  N107  1.392 .      A
C318  N108  1.392 .      A
N107  C319  1.324 .      A
C319  C320  1.374 .      A
C319  C324  1.357 .      A
C320  C321  1.368 .      A
C321  C322  1.375 .      A
C322  C323  1.382 .      A
C323  C324  1.341 .      A
C324  N108  1.361 .      A
C327  N110  1.371 .      A
C327  N111  1.393 1_545  A
N110  C328  1.333 1_545  A
C328  N110  1.333 1_565  A
C328  C329  1.341 .      A
C328  C333  1.341 .      A
C329  C330  1.377 .      A
C330  C331  1.376 .      A
C331  C332  1.359 .      A
C332  C333  1.357 .      A
C333  N111  1.328 .      A
N111  C327  1.393 1_565  A
C336  N113  1.388 .      A
C336  N114  1.381 .      A
N113  C337  1.327 .      A
C337  C338  1.348 .      A
C337  C342  1.363 .      A
C338  C339  1.372 .      A
C339  C340  1.384 .      A
C340  C341  1.371 .      A
C341  C342  1.365 .      A
C342  N114  1.329 .      A
C345  N116  1.369 1_554  A
C345  N117  1.382 .      A
N116  C345  1.369 1_556  A
N116  C346  1.345 .      A
C346  C347  1.354 .      A
C346  C351  1.348 1_556  A
C347  C348  1.376 .      A
C348  C349  1.382 1_556  A
C349  C348  1.382 1_554  A
C349  C350  1.384 .      A
C350  C351  1.374 .      A
C351  C346  1.348 1_554  A
C351  N117  1.342 .      A
C354  N119  1.393 1_556  A
C354  N120  1.397 .      A
N119  C354  1.393 1_554  A
N119  C355  1.338 .      A
C355  C356  1.355 .      A
C355  C360  1.363 .      A
C356  C357  1.372 .      A
C357  C358  1.380 .      A
C358  C359  1.373 .      A
C359  C360  1.364 .      A
C360  N120  1.341 1_554  A
N120  C360  1.341 1_556  A
C363  N122  1.375 .      A
C363  N123  1.376 .      A
N122  C364  1.360 .      A
C364  C365  1.368 .      A
C364  C369  1.359 .      A
C365  C366  1.368 .      A
C366  C367  1.366 .      A
C367  C368  1.370 .      A
C368  C369  1.369 .      A
C369  N123  1.334 .      A
C372  N125  1.397 .      A
C372  N126  1.390 .      A
N125  C373  1.335 .      A
C373  C374  1.373 .      A
C373  C378  1.368 .      A
C374  C375  1.373 .      A
C375  C376  1.374 .      A
C376  C377  1.364 .      A
C377  C378  1.362 .      A
C378  N126  1.353 .      A
C381  N128  1.388 .      A
C381  N129  1.395 .      A
N128  C382  1.331 .      A
C382  C383  1.350 .      A
C382  C387  1.349 .      A
C383  C384  1.368 .      A
C384  C385  1.376 .      A
C385  C386  1.371 .      A
C386  C387  1.372 .      A
C387  N129  1.354 .      A
C390  N131  1.367 .      A
C390  N132  1.397 .      A
N131  C391  1.333 .      A
C391  C392  1.375 .      A
C391  C396  1.349 .      A
C392  C393  1.368 .      A
C393  C394  1.369 .      A
C394  C395  1.364 .      A
C395  C396  1.353 .      A
C396  N132  1.353 .      A
C399  N134  1.384 .      A
C399  N135  1.396 .      A
N134  C400  1.347 .      A
C400  C401  1.371 .      A
C400  C405  1.378 .      A
C401  C402  1.383 .      A
C402  C403  1.390 .      A
C403  C404  1.384 .      A
C404  C405  1.370 .      A
C405  N135  1.354 .      A
C408  N137  1.401 1_545  A
C408  N138  1.393 1_545  A
N137  C408  1.401 1_565  A
N137  C409  1.354 .      A
C409  C410  1.371 .      A
C409  C414  1.364 .      A
C410  C411  1.385 .      A
C411  C412  1.389 .      A
C412  C413  1.382 .      A
C413  C414  1.370 .      A
C414  N138  1.338 .      A
N138  C408  1.393 1_565  A
C417  N140  1.361 .      A
C417  N141  1.386 .      A
N140  C418  1.352 .      A
C418  C419  1.376 .      A
C418  C423  1.376 .      A
C419  C420  1.385 .      A
C420  C421  1.386 .      A
C421  C422  1.382 .      A
C422  C423  1.372 .      A
C423  N141  1.330 .      A
C426  N143  1.405 .      A
C426  N144  1.406 .      A
N143  C427  1.348 .      A
C427  C428  1.370 .      A
C427  C432  1.382 .      A
C428  C429  1.384 .      A
C429  C430  1.390 .      A
C430  C431  1.384 .      A
C431  C432  1.370 .      A
C432  N144  1.351 .      A
C435  N146  1.390 1_545  A
C435  N147  1.395 1_545  A
N146  C435  1.390 1_565  A
N146  C436  1.352 .      A
C436  C437  1.373 .      A
C436  C441  1.373 .      A
C437  C438  1.385 .      A
C438  C439  1.390 .      A
C439  C440  1.383 .      A
C440  C441  1.368 .      A
C441  N147  1.343 .      A
N147  C435  1.395 1_565  A
C444  N149  1.368 1_545  A
C444  N150  1.374 1_545  A
N149  C444  1.368 1_565  A
N149  C445  1.350 .      A
C445  C446  1.373 .      A
C445  C450  1.363 .      A
C446  C447  1.386 .      A
C447  C448  1.388 .      A
C448  C449  1.383 .      A
C449  C450  1.371 .      A
C450  N150  1.342 .      A
N150  C444  1.374 1_565  A
C453  N152  1.362 .      A
C453  N153  1.374 .      A
N152  C454  1.363 1_655  A
C454  N152  1.363 1_455  A
C454  C455  1.377 .      A
C454  C459  1.369 .      A
C455  C456  1.384 .      A
C456  C457  1.385 .      A
C457  C458  1.380 .      A
C458  C459  1.368 .      A
C459  N153  1.337 1_455  A
N153  C459  1.337 1_655  A
C462  N155  1.385 .      A
C462  N156  1.369 .      A
N155  C463  1.343 .      A
C463  C464  1.369 .      A
C463  C468  1.362 .      A
C464  C465  1.383 .      A
C465  C466  1.388 .      A
C466  C467  1.384 .      A
C467  C468  1.373 .      A
C468  N156  1.354 .      A
C471  N158  1.365 .      A
C471  N159  1.374 .      A
N158  C472  1.334 .      A
C472  C473  1.355 .      A
C472  C477  1.352 .      A
C473  C474  1.351 .      A
C474  C475  1.364 .      A
C475  C476  1.364 .      A
C476  C477  1.355 .      A
C477  N159  1.345 .      A
C480  N161  1.380 .      A
C480  N162  1.414 .      A
N161  C481  1.350 .      A
C481  C482  1.369 .      A
C481  C486  1.385 .      A
C482  C483  1.383 .      A
C483  C484  1.389 .      A
C484  C485  1.384 .      A
C485  C486  1.371 .      A
C486  N162  1.356 .      A
C489  N164  1.379 .      A
C489  N165  1.388 .      A
N164  C490  1.344 .      A
C490  C491  1.365 .      A
C490  C495  1.366 .      A
C491  C492  1.384 .      A
C492  C493  1.391 .      A
C493  C494  1.385 .      A
C494  C495  1.371 .      A
C495  N165  1.347 .      A
C498  N167  1.368 .      A
C498  N168  1.401 .      A
N167  C499  1.358 .      A
C499  C500  1.375 .      A
C499  C504  1.369 .      A
C500  C501  1.385 .      A
C501  C502  1.388 .      A
C502  C503  1.381 .      A
C503  C504  1.368 .      A
C504  N168  1.339 .      A
C507  N170  1.385 .      A
C507  N171  1.392 .      A
N170  C508  1.348 .      A
C508  C509  1.374 .      A
C508  C513  1.364 .      A
C509  C510  1.382 .      A
C510  C511  1.387 .      A
C511  C512  1.383 .      A
C512  C513  1.364 .      A
C513  N171  1.346 .      A
C516  N173  1.390 .      A
C516  N174  1.389 .      A
N173  C517  1.345 .      A
C517  C518  1.372 .      A
C517  C522  1.373 .      A
C518  C519  1.385 .      A
C519  C520  1.393 .      A
C520  C521  1.386 .      A
C521  C522  1.370 .      A
C522  N174  1.348 .      A
C525  N176  1.398 .      A
C525  N177  1.384 .      A
N176  C526  1.348 .      A
C526  C527  1.371 .      A
C526  C531  1.375 .      A
C527  C528  1.385 .      A
C528  C529  1.393 .      A
C529  C530  1.385 .      A
C530  C531  1.372 .      A
C531  N177  1.349 .      A
C534  N179  1.376 .      A
C534  N180  1.363 .      A
N179  C535  1.384 .      A
C535  C536  1.396 .      A
C535  C540  1.365 .      A
C536  C537  1.383 .      A
C537  C538  1.379 .      A
C538  C539  1.374 .      A
C539  C540  1.368 .      A
C540  N180  1.330 .      A
C543  N182  1.410 .      A
C543  N183  1.406 .      A
N182  C544  1.328 .      A
C544  C545  1.339 .      A
C544  C549  1.350 .      A
C545  C546  1.379 .      A
C546  C547  1.381 .      A
C547  C548  1.383 .      A
C548  C549  1.347 .      A
C549  N183  1.343 .      A
C552  N185  1.400 .      A
C552  N186  1.388 .      A
N185  C553  1.341 .      A
C553  C554  1.369 .      A
C553  C558  1.379 .      A
C554  C555  1.382 .      A
C555  C556  1.388 .      A
C556  C557  1.384 .      A
C557  C558  1.372 .      A
C558  N186  1.361 .      A
C561  N188  1.401 .      A
C561  N189  1.390 .      A
N188  C562  1.355 .      A
C562  C563  1.373 .      A
C562  C567  1.378 .      A
C563  C564  1.385 .      A
C564  C565  1.390 1_554  A
C565  C564  1.390 1_556  A
C565  C566  1.383 1_556  A
C566  C565  1.383 1_554  A
C566  C567  1.373 .      A
C567  N189  1.347 .      A
C570  N191  1.387 .      A
C570  N192  1.401 .      A
N191  C571  1.346 1_554  A
C571  N191  1.346 1_556  A
C571  C572  1.365 .      A
C571  C576  1.368 .      A
C572  C573  1.387 .      A
C573  C574  1.388 .      A
C574  C575  1.382 .      A
C575  C576  1.365 .      A
C576  N192  1.339 1_556  A
N192  C576  1.339 1_554  A
C579  N194  1.392 .      A
C579  N195  1.397 .      A
N194  C580  1.365 .      A
C580  C581  1.371 .      A
C580  C585  1.359 .      A
C581  C582  1.382 .      A
C582  C583  1.380 .      A
C583  C584  1.376 .      A
C584  C585  1.372 .      A
C585  N195  1.335 .      A
C588  N197  1.357 .      A
C588  N198  1.365 .      A
N197  C589  1.348 .      A
C589  C590  1.373 .      A
C589  C594  1.372 .      A
C590  C591  1.384 .      A
C591  C592  1.384 .      A
C592  C593  1.381 .      A
C593  C594  1.373 .      A
C594  N198  1.347 .      A
C597  N200  1.379 .      A
C597  N201  1.389 .      A
N200  C598  1.348 .      A
C598  C599  1.370 .      A
C598  C603  1.376 .      A
C599  C600  1.386 .      A
C600  C601  1.392 .      A
C601  C602  1.385 .      A
C602  C603  1.372 .      A
C603  N201  1.347 .      A
C606  N203  1.367 .      A
C606  N204  1.367 .      A
N203  C607  1.342 .      A
C607  C608  1.375 .      A
C607  C612  1.368 .      A
C608  C609  1.378 .      A
C609  C610  1.384 .      A
C610  C611  1.383 .      A
C611  C612  1.371 .      A
C612  N204  1.349 .      A
C615  N206  1.368 .      A
C615  N207  1.373 .      A
N206  C616  1.345 .      A
C616  C617  1.373 .      A
C616  C621  1.362 .      A
C617  C618  1.385 .      A
C618  C619  1.392 .      A
C619  C620  1.385 .      A
C620  C621  1.372 .      A
C621  N207  1.349 .      A
C624  N209  1.391 .      A
C624  N210  1.388 .      A
N209  C625  1.348 .      A
C625  C626  1.371 .      A
C625  C630  1.379 .      A
C626  C627  1.385 .      A
C627  C628  1.392 .      A
C628  C629  1.386 .      A
C629  C630  1.370 .      A
C630  N210  1.351 .      A
C633  N212  1.396 .      A
C633  N213  1.395 .      A
N212  C634  1.353 1_665  A
C634  N212  1.353 1_445  A
C634  C635  1.375 .      A
C634  C639  1.358 .      A
C635  C636  1.383 .      A
C636  C637  1.386 .      A
C637  C638  1.381 .      A
C638  C639  1.357 .      A
C639  N213  1.335 1_445  A
N213  C639  1.335 1_665  A
C642  N215  1.374 .      A
C642  N216  1.359 .      A
N215  C643  1.339 .      A
C643  C644  1.373 .      A
C643  C648  1.375 .      A
C644  C645  1.375 .      A
C645  C646  1.379 .      A
C646  C647  1.382 .      A
C647  C648  1.369 .      A
C648  N216  1.351 .      A
C651  N218  1.376 .      A
C651  N219  1.366 .      A
N218  C652  1.332 .      A
C652  C653  1.350 1_655  A
C652  C657  1.355 .      A
C653  C652  1.350 1_455  A
C653  C654  1.375 .      A
C654  C655  1.375 .      A
C655  C656  1.380 .      A
C656  C657  1.382 1_455  A
C657  C656  1.382 1_655  A
C657  N219  1.362 .      A
C660  N221  1.367 .      A
C660  N222  1.360 .      A
N221  C661  1.357 .      A
C661  C662  1.376 .      A
C661  C666  1.371 .      A
C662  C663  1.384 .      A
C663  C664  1.386 .      A
C664  C665  1.379 .      A
C665  C666  1.372 .      A
C666  N222  1.343 .      A
C669  N224  1.400 .      A
C669  N225  1.404 .      A
N224  C670  1.344 .      A
C670  C671  1.365 1_655  A
C670  C675  1.356 .      A
C671  C670  1.365 1_455  A
C671  C672  1.377 .      A
C672  C673  1.380 .      A
C673  C674  1.379 .      A
C674  C675  1.370 1_455  A
C675  C674  1.370 1_655  A
C675  N225  1.352 .      A
C678  N227  1.410 .      A
C678  N228  1.426 .      A
N227  C679  1.345 .      A
C679  C680  1.367 .      A
C679  C684  1.380 .      A
C680  C681  1.381 .      A
C681  C682  1.386 .      A
C682  C683  1.384 .      A
C683  C684  1.371 .      A
C684  N228  1.355 .      A
C687  N230  1.411 .      A
C687  N231  1.418 .      A
N230  C688  1.360 .      A
C688  C689  1.370 .      A
C688  C693  1.374 .      A
C689  C690  1.382 .      A
C690  C691  1.384 1_655  A
C691  C690  1.384 1_455  A
C691  C692  1.381 .      A
C692  C693  1.362 1_455  A
C693  C692  1.362 1_655  A
C693  N231  1.337 .      A
C696  N233  1.397 .      A
C696  N234  1.400 .      A
N233  C697  1.349 .      A
C697  C698  1.373 .      A
C697  C702  1.372 .      A
C698  C699  1.384 .      A
C699  C700  1.389 .      A
C700  C701  1.383 .      A
C701  C702  1.368 .      A
C702  N234  1.346 .      A
C705  N236  1.407 .      A
C705  N237  1.402 .      A
N236  C706  1.339 .      A
C706  C707  1.375 .      A
C706  C711  1.349 .      A
C707  C708  1.366 .      A
C708  C709  1.369 .      A
C709  C710  1.360 .      A
C710  C711  1.350 .      A
C711  N237  1.348 .      A
C714  N239  1.406 .      A
C714  N240  1.395 .      A
N239  C715  1.352 .      A
C715  C716  1.370 .      A
C715  C720  1.380 .      A
C716  C717  1.385 .      A
C717  C718  1.391 .      A
C718  C719  1.384 .      A
C719  C720  1.369 .      A
C720  N240  1.345 .      A
C723  N242  1.413 .      A
C723  N243  1.380 1_545  A
N242  C724  1.354 .      A
C724  C725  1.375 .      A
C724  C729  1.372 .      A
C725  C726  1.382 .      A
C726  C727  1.386 .      A
C727  C728  1.381 1_545  A
C728  C727  1.381 1_565  A
C728  C729  1.369 1_565  A
C729  C728  1.369 1_545  A
C729  N243  1.347 1_545  A
N243  C723  1.380 1_565  A
N243  C729  1.347 1_565  A
C732  N245  1.393 .      A
C732  N246  1.408 .      A
N245  C733  1.354 .      A
C733  C734  1.370 .      A
C733  C738  1.387 .      A
C734  C735  1.385 .      A
C735  C736  1.391 .      A
C736  C737  1.384 .      A
C737  C738  1.372 .      A
C738  N246  1.349 .      A
C741  N248  1.419 .      A
C741  N249  1.418 .      A
N248  C742  1.347 .      A
C742  C743  1.374 .      A
C742  C747  1.377 .      A
C743  C744  1.384 .      A
C744  C745  1.389 .      A
C745  C746  1.384 .      A
C746  C747  1.358 .      A
C747  N249  1.351 .      A
C750  N251  1.400 .      A
C750  N252  1.418 .      A
N251  C751  1.352 .      A
C751  C752  1.372 .      A
C751  C756  1.370 .      A
C752  C753  1.385 .      A
C753  C754  1.387 .      A
C754  C755  1.383 .      A
C755  C756  1.373 .      A
C756  N252  1.348 .      A
C759  N254  1.416 .      A
C759  N255  1.392 .      A
N254  C760  1.342 .      A
C760  C761  1.328 .      A
C760  C765  1.348 .      A
C761  C762  1.389 .      A
C762  C763  1.368 .      A
C763  C764  1.372 .      A
C764  C765  1.361 .      A
C765  N255  1.319 .      A
C768  N257  1.398 .      A
C768  N258  1.404 .      A
N257  C769  1.347 .      A
C769  C770  1.365 .      A
C769  C774  1.380 .      A
C770  C771  1.385 .      A
C771  C772  1.390 .      A
C772  C773  1.384 .      A
C773  C774  1.373 .      A
C774  N258  1.354 .      A
C777  N260  1.375 .      A
C777  N261  1.396 .      A
N260  C778  1.344 .      A
C778  C779  1.367 .      A
C778  C783  1.363 .      A
C779  C780  1.373 .      A
C780  C781  1.379 .      A
C781  C782  1.375 .      A
C782  C783  1.379 .      A
C783  N261  1.353 .      A
C786  N263  1.392 .      A
C786  N264  1.379 .      A
N263  C787  1.353 1_554  A
C787  N263  1.353 1_556  A
C787  C788  1.371 .      A
C787  C792  1.382 .      A
C788  C789  1.386 .      A
C789  C790  1.392 .      A
C790  C791  1.384 .      A
C791  C792  1.371 .      A
C792  N264  1.348 1_556  A
N264  C792  1.348 1_554  A
C795  N266  1.397 .      A
C795  N267  1.383 .      A
N266  C796  1.348 1_554  A
C796  N266  1.348 1_556  A
C796  C797  1.367 .      A
C796  C801  1.371 .      A
C797  C798  1.382 .      A
C798  C799  1.386 .      A
C799  C800  1.382 .      A
C800  C801  1.372 .      A
C801  N267  1.347 1_556  A
N267  C801  1.347 1_554  A
C804  N269  1.412 1_554  A
C804  N270  1.390 1_554  A
N269  C804  1.412 1_556  A
N269  C805  1.344 .      A
C805  C806  1.364 .      A
C805  C810  1.369 .      A
C806  C807  1.382 .      A
C807  C808  1.388 .      A
C808  C809  1.384 .      A
C809  C810  1.371 .      A
C810  N270  1.352 .      A
N270  C804  1.390 1_556  A
C813  N272  1.383 .      A
C813  N273  1.393 .      A
N272  C814  1.347 .      A
C814  C815  1.372 .      A
C814  C819  1.371 .      A
C815  C816  1.385 .      A
C816  C817  1.391 .      A
C817  C818  1.384 .      A
C818  C819  1.363 .      A
C819  N273  1.348 .      A
C822  N275  1.399 .      A
C822  N276  1.404 .      A
N275  C823  1.345 .      A
C823  C824  1.372 .      A
C823  C828  1.377 .      A
C824  C825  1.382 .      A
C825  C826  1.389 .      A
C826  C827  1.384 .      A
C827  C828  1.365 .      A
C828  N276  1.354 .      A
C831  N278  1.392 .      A
C831  N279  1.372 .      A
N278  C832  1.356 .      A
C832  C833  1.365 .      A
C832  C837  1.360 .      A
C833  C834  1.384 .      A
C834  C835  1.384 .      A
C835  C836  1.370 .      A
C836  C837  1.362 .      A
C837  N279  1.330 .      A
C840  N281  1.396 .      A
C840  N282  1.399 .      A
N281  C841  1.347 .      A
C841  C842  1.331 .      A
C841  C846  1.350 .      A
C842  C843  1.381 .      A
C843  C844  1.379 .      A
C844  C845  1.379 .      A
C845  C846  1.375 .      A
C846  N282  1.326 .      A
C849  N284  1.412 .      A
C849  N285  1.397 .      A
N284  C850  1.336 .      A
C850  C851  1.367 .      A
C850  C855  1.369 .      A
C851  C852  1.382 .      A
C852  C853  1.386 .      A
C853  C854  1.383 .      A
C854  C855  1.364 .      A
C855  N285  1.354 .      A
C858  N287  1.375 .      A
C858  N288  1.398 .      A
N287  C859  1.346 .      A
C859  C860  1.370 .      A
C859  C864  1.356 .      A
C860  C861  1.372 .      A
C861  C862  1.374 .      A
C862  C863  1.363 .      A
C863  C864  1.361 .      A
C864  N288  1.331 .      A
C867  N290  1.386 .      A
C867  N291  1.373 .      A
N290  C868  1.318 .      A
C868  C869  1.326 .      A
C868  C873  1.352 .      A
C869  C870  1.348 .      A
C870  C871  1.378 .      A
C871  C872  1.365 .      A
C872  C873  1.358 .      A
C873  N291  1.335 .      A
C876  N293  1.378 .      A
C876  N294  1.386 .      A
N293  C877  1.352 .      A
C877  C878  1.369 .      A
C877  C882  1.367 .      A
C878  C879  1.385 .      A
C879  C880  1.389 .      A
C880  C881  1.381 .      A
C881  C882  1.376 .      A
C882  N294  1.345 .      A
C885  N296  1.405 .      A
C885  N297  1.409 .      A
N296  C886  1.344 .      A
C886  C887  1.370 .      A
C886  C891  1.378 .      A
C887  C888  1.383 .      A
C888  C889  1.389 .      A
C889  C890  1.384 .      A
C890  C891  1.368 .      A
C891  N297  1.355 .      A
C894  N299  1.384 .      A
C894  N300  1.391 .      A
N299  C895  1.348 .      A
C895  C896  1.370 .      A
C895  C900  1.375 .      A
C896  C897  1.386 1_545  A
C897  C896  1.386 1_565  A
C897  C898  1.392 1_565  A
C898  C897  1.392 1_545  A
C898  C899  1.385 .      A
C899  C900  1.372 .      A
C900  N300  1.347 .      A
C903  N302  1.403 .      A
C903  N303  1.393 .      A
N302  C904  1.339 .      A
C904  C905  1.357 .      A
C904  C909  1.357 .      A
C905  C906  1.364 .      A
C906  C907  1.374 .      A
C907  C908  1.364 .      A
C908  C909  1.351 .      A
C909  N303  1.332 .      A
C912  N305  1.374 .      A
C912  N306  1.378 .      A
N305  C913  1.351 .      A
C913  C914  1.371 .      A
C913  C918  1.382 .      A
C914  C915  1.385 .      A
C915  C916  1.392 .      A
C916  C917  1.385 .      A
C917  C918  1.372 .      A
C918  N306  1.350 .      A
C921  N308  1.391 .      A
C921  N309  1.389 .      A
N308  C922  1.351 .      A
C922  C923  1.372 .      A
C922  C927  1.379 .      A
C923  C924  1.385 .      A
C924  C925  1.392 .      A
C925  C926  1.385 .      A
C926  C927  1.369 .      A
C927  N309  1.347 .      A
C930  N311  1.377 1_545  A
C930  N312  1.372 1_544  A
N311  C930  1.377 1_565  A
N311  C931  1.351 1_554  A
C931  N311  1.351 1_556  A
C931  C932  1.367 .      A
C931  C936  1.356 .      A
C932  C933  1.374 .      A
C933  C934  1.373 .      A
C934  C935  1.367 .      A
C935  C936  1.370 .      A
C936  N312  1.340 .      A
N312  C930  1.372 1_566  A
