data_str_m1_o12435_BOZ
_audit_creation_date              2015-10-01T06:32:13-0700
_symmetry_space_group_name_H-M    P1
_symmetry_Int_Tables_number       1
_space_group_crystal_system       triclinic
loop_
_symmetry_equiv_pos_as_xyz
  x,y,z
_cell_length_a                    40.3953812
_cell_length_b                    29.0711151
_cell_length_c                    28.3958772
_cell_angle_alpha                 90.1097175
_cell_angle_beta                  90.4440163
_cell_angle_gamma                 110.803687
_cell_volume                      31170.965452

loop_
_atom_site_label
_atom_site_type_symbol
_atom_site_description
_atom_site_fract_x
_atom_site_fract_y
_atom_site_fract_z
_atom_type_partial_charge
Zn1   Zn    Zn3+2 0.823429 0.420026 0.639022 0.000000
Zn2   Zn    Zn3+2 0.666529 0.291341 0.144741 0.000000
Zn3   Zn    Zn3+2 0.517983 0.785722 0.639960 0.000000
Zn4   Zn    Zn3+2 0.820973 0.419988 0.137735 0.000000
Zn5   Zn    Zn3+2 0.513356 0.266264 0.635906 0.000000
Zn6   Zn    Zn3+2 0.826074 0.937269 0.136042 0.000000
Zn7   Zn    Zn3+2 0.767564 0.042474 0.992175 0.000000
Zn8   Zn    Zn3+2 0.761770 0.255065 0.778435 0.000000
Zn9   Zn    Zn3+2 0.576717 0.946894 0.282274 0.000000
Zn10  Zn    Zn3+2 0.513131 0.271318 0.139612 0.000000
Zn11  Zn    Zn3+2 0.176178 0.358619 0.381363 0.000000
Zn12  Zn    Zn3+2 0.668017 0.296196 0.633533 0.000000
Zn13  Zn    Zn3+2 0.670434 0.910322 0.133262 0.000000
Zn14  Zn    Zn3+2 0.019652 0.771144 0.991413 0.000000
Zn15  Zn    Zn3+2 0.515311 0.786618 0.137021 0.000000
Zn16  Zn    Zn3+2 0.319602 0.430490 0.283763 0.000000
Zn17  Zn    Zn3+2 0.315762 0.429985 0.497083 0.000000
Zn18  Zn    Zn3+2 0.165272 0.849691 0.882973 0.000000
Zn19  Zn    Zn3+2 0.018531 0.769335 0.783099 0.000000
Zn20  Zn    Zn3+2 0.673022 0.912553 0.635842 0.000000
Zn21  Zn    Zn3+2 0.406781 0.367069 0.634322 0.000000
Zn22  Zn    Zn3+2 0.308852 0.025553 0.885112 0.000000
Zn23  Zn    Zn3+2 0.772178 0.048887 0.773244 0.000000
Zn24  Zn    Zn3+2 0.827617 0.939110 0.632989 0.000000
Zn25  Zn    Zn3+2 0.942606 0.994048 0.281637 0.000000
Zn26  Zn    Zn3+2 0.399163 0.216542 0.784698 0.000000
Zn27  Zn    Zn3+2 0.396638 0.209580 0.994035 0.000000
Zn28  Zn    Zn3+2 0.030123 0.383425 0.384543 0.000000
Zn29  Zn    Zn3+2 0.395428 0.731961 0.000512 0.000000
Zn30  Zn    Zn3+2 0.935788 0.472370 0.490759 0.000000
Zn31  Zn    Zn3+2 0.312612 0.821859 0.878239 0.000000
Zn32  Zn    Zn3+2 0.943425 0.993236 0.491066 0.000000
Zn33  Zn    Zn3+2 0.937424 0.475702 0.281989 0.000000
Zn34  Zn    Zn3+2 0.406709 0.721466 0.789518 0.000000
Zn35  Zn    Zn3+2 0.578342 0.952575 0.499665 0.000000
Zn36  Zn    Zn3+2 0.567460 0.157464 0.280171 0.000000
Zn37  Zn    Zn3+2 0.934751 0.839237 0.642283 0.000000
Zn38  Zn    Zn3+2 0.407477 0.579612 0.139635 0.000000
Zn39  Zn    Zn3+2 0.932047 0.627156 0.634247 0.000000
Zn40  Zn    Zn3+2 0.934127 0.836934 0.133873 0.000000
Zn41  Zn    Zn3+2 0.032351 0.179819 0.384618 0.000000
Zn42  Zn    Zn3+2 0.931769 0.627959 0.141089 0.000000
Zn43  Zn    Zn3+2 0.409512 0.576777 0.637005 0.000000
Zn44  Zn    Zn3+2 0.403177 0.368122 0.138331 0.000000
Zn45  Zn    Zn3+2 0.570638 0.160630 0.495082 0.000000
Zn46  Zn    Zn3+2 0.757082 0.251834 0.997055 0.000000
Br1   Br    Br    0.775727 0.521847 0.801567 0.000000
C1    C     C_R   0.812790 0.539290 0.756554 0.000000
C2    C     C_R   0.838041 0.586736 0.757081 0.000000
C3    C     C_R   0.864507 0.601175 0.723635 0.000000
C4    C     C_R   0.864496 0.567167 0.690163 0.000000
N1    N     N_R   0.886898 0.573049 0.654027 0.000000
C5    C     C_R   0.874341 0.527917 0.632145 0.000000
N2    N     N_R   0.846374 0.493731 0.654499 0.000000
C6    C     C_R   0.840145 0.520194 0.690166 0.000000
C7    C     C_R   0.813915 0.505031 0.723135 0.000000
H1    H     H_    0.836726 0.612765 0.783577 0.000000
H2    H     H_    0.883966 0.638036 0.723437 0.000000
H3    H     H_    0.884910 0.520653 0.599741 0.000000
H4    H     H_    0.794537 0.468092 0.722582 0.000000
Br2   Br    Br    0.759357 0.564361 0.554336 0.000000
C8    C     C_R   0.742632 0.498083 0.575916 0.000000
C9    C     C_R   0.706689 0.469961 0.572563 0.000000
C10   C     C_R   0.693925 0.421511 0.587522 0.000000
C11   C     C_R   0.717806 0.402890 0.606648 0.000000
N3    N     N_R   0.711867 0.356692 0.621852 0.000000
C12   C     C_R   0.745405 0.356940 0.628949 0.000000
N4    N     N_R   0.771498 0.401884 0.622904 0.000000
C13   C     C_R   0.753277 0.429935 0.608041 0.000000
C14   C     C_R   0.766530 0.477900 0.593403 0.000000
H5    H     H_    0.688582 0.485937 0.557613 0.000000
H6    H     H_    0.666293 0.399030 0.583341 0.000000
H7    H     H_    0.750492 0.323817 0.634966 0.000000
H8    H     H_    0.794593 0.498845 0.594224 0.000000
Br3   Br    Br    0.521133 0.717365 0.434075 0.000000
C15   C     C_R   0.497349 0.690003 0.490803 0.000000
C16   C     C_R   0.471985 0.642684 0.490377 0.000000
C17   C     C_R   0.454382 0.622058 0.531189 0.000000
C18   C     C_R   0.462871 0.649996 0.571491 0.000000
N5    N     N_R   0.448981 0.637941 0.614582 0.000000
C19   C     C_R   0.466708 0.679346 0.640770 0.000000
N6    N     N_R   0.490376 0.716627 0.615298 0.000000
C20   C     C_R   0.487552 0.696631 0.571905 0.000000
C21   C     C_R   0.505419 0.717533 0.532012 0.000000
H9    H     H_    0.466001 0.621801 0.457880 0.000000
H10   H     H_    0.434750 0.585379 0.531208 0.000000
H11   H     H_    0.462236 0.682486 0.677821 0.000000
H12   H     H_    0.525302 0.753815 0.532660 0.000000
Br4   Br    Br    0.792148 0.661670 0.132856 0.000000
C22   C     C_R   0.807238 0.606982 0.127313 0.000000
C23   C     C_R   0.782120 0.559696 0.127260 0.000000
C24   C     C_R   0.792436 0.519261 0.125058 0.000000
C25   C     C_R   0.828016 0.527598 0.124143 0.000000
N7    N     N_R   0.843787 0.493968 0.125288 0.000000
C26   C     C_R   0.879121 0.522401 0.121614 0.000000
N8    N     N_R   0.885791 0.572230 0.121885 0.000000
C27   C     C_R   0.852820 0.574028 0.122463 0.000000
C28   C     C_R   0.842993 0.614657 0.123811 0.000000
H13   H     H_    0.754299 0.554464 0.129102 0.000000
H14   H     H_    0.773014 0.482603 0.123734 0.000000
H15   H     H_    0.899591 0.506761 0.121095 0.000000
H16   H     H_    0.861981 0.651430 0.121465 0.000000
Br5   Br    Br    0.678684 0.444866 0.300899 0.000000
C29   C     C_R   0.709008 0.431877 0.255899 0.000000
C30   C     C_R   0.744760 0.461420 0.255216 0.000000
C31   C     C_R   0.767576 0.452436 0.223351 0.000000
C32   C     C_R   0.753443 0.413947 0.192533 0.000000
N9    N     N_R   0.770510 0.397273 0.159990 0.000000
C33   C     C_R   0.744448 0.356291 0.142863 0.000000
N10   N     N_R   0.711620 0.348487 0.161029 0.000000
C34   C     C_R   0.718339 0.385022 0.193051 0.000000
C35   C     C_R   0.695380 0.392821 0.224668 0.000000
H17   H     H_    0.754888 0.491411 0.280146 0.000000
H18   H     H_    0.795466 0.474594 0.223092 0.000000
H19   H     H_    0.750109 0.330458 0.120883 0.000000
H20   H     H_    0.667822 0.369195 0.225461 0.000000
Br6   Br    Br    0.588439 0.490173 0.673644 0.000000
C36   C     C_R   0.600152 0.432270 0.674450 0.000000
C37   C     C_R   0.635316 0.436717 0.681167 0.000000
C38   C     C_R   0.645500 0.396282 0.676323 0.000000
C39   C     C_R   0.619905 0.352485 0.663721 0.000000
N11   N     N_R   0.624165 0.310317 0.650915 0.000000
C40   C     C_R   0.590082 0.279055 0.643401 0.000000
N12   N     N_R   0.565262 0.300669 0.649002 0.000000
C41   C     C_R   0.584933 0.347170 0.661196 0.000000
C42   C     C_R   0.574137 0.386654 0.666022 0.000000
H21   H     H_    0.655094 0.472432 0.688610 0.000000
H22   H     H_    0.672764 0.399545 0.681100 0.000000
H23   H     H_    0.583219 0.241148 0.633524 0.000000
H24   H     H_    0.546767 0.382877 0.660999 0.000000
Br7   Br    Br    0.750211 0.744011 0.023845 0.000000
C43   C     C_R   0.794999 0.776406 0.052811 0.000000
C44   C     C_R   0.820059 0.753686 0.051927 0.000000
C45   C     C_R   0.852627 0.775206 0.073819 0.000000
C46   C     C_R   0.859203 0.819892 0.095049 0.000000
N13   N     N_R   0.889125 0.847962 0.116858 0.000000
C47   C     C_R   0.882179 0.889123 0.128526 0.000000
N14   N     N_R   0.848621 0.887072 0.117117 0.000000
C48   C     C_R   0.835003 0.843048 0.095095 0.000000
C49   C     C_R   0.802287 0.821862 0.074405 0.000000
H25   H     H_    0.813825 0.718543 0.034392 0.000000
H26   H     H_    0.872249 0.757816 0.073592 0.000000
H27   H     H_    0.902176 0.920123 0.143251 0.000000
H28   H     H_    0.783120 0.840006 0.074399 0.000000
Br8   Br    Br    0.754128 0.728322 0.218884 0.000000
C50   C     C_R   0.740036 0.780119 0.195833 0.000000
C51   C     C_R   0.704228 0.773974 0.194452 0.000000
C52   C     C_R   0.693244 0.811454 0.178925 0.000000
C53   C     C_R   0.718943 0.854458 0.165205 0.000000
N15   N     N_R   0.714746 0.895821 0.149761 0.000000
C54   C     C_R   0.749000 0.926752 0.142929 0.000000
N16   N     N_R   0.773830 0.905573 0.151084 0.000000
C55   C     C_R   0.754108 0.860334 0.166166 0.000000
C56   C     C_R   0.765547 0.823754 0.181374 0.000000
H29   H     H_    0.684825 0.739739 0.206168 0.000000
H30   H     H_    0.665570 0.807188 0.178526 0.000000
H31   H     H_    0.756250 0.964498 0.133049 0.000000
H32   H     H_    0.793391 0.829015 0.182914 0.000000
Br9   Br    Br    0.917920 0.184221 0.021695 0.000000
C57   C     C_R   0.890177 0.119460 0.041469 0.000000
C58   C     C_R   0.903870 0.095716 0.074745 0.000000
C59   C     C_R   0.883968 0.048967 0.090333 0.000000
C60   C     C_R   0.850763 0.026987 0.071302 0.000000
N17   N     N_R   0.826082 0.983489 0.082923 0.000000
C61   C     C_R   0.797821 0.981386 0.054686 0.000000
N18   N     N_R   0.803727 0.022604 0.027822 0.000000
C62   C     C_R   0.837495 0.050137 0.038382 0.000000
C63   C     C_R   0.856412 0.096701 0.023019 0.000000
H33   H     H_    0.930204 0.114142 0.088922 0.000000
H34   H     H_    0.894315 0.030651 0.116398 0.000000
H35   H     H_    0.772676 0.951412 0.055214 0.000000
H36   H     H_    0.845346 0.115062 0.997689 0.000000
Br10  Br    Br    0.645065 0.913456 0.871335 0.000000
C64   C     C_R   0.654965 0.925726 0.936571 0.000000
C65   C     C_R   0.632162 0.895906 0.969443 0.000000
C66   C     C_R   0.639109 0.903919 0.017095 0.000000
C67   C     C_R   0.670080 0.940349 0.030785 0.000000
N19   N     N_R   0.684130 0.951880 0.074518 0.000000
C68   C     C_R   0.715363 0.989748 0.066200 0.000000
N20   N     N_R   0.721621 0.000382 0.019570 0.000000
C69   C     C_R   0.692410 0.969414 0.998226 0.000000
C70   C     C_R   0.684976 0.963994 0.950883 0.000000
H37   H     H_    0.608303 0.866840 0.957744 0.000000
H38   H     H_    0.619903 0.882787 0.041722 0.000000
H39   H     H_    0.734375 0.007896 0.092903 0.000000
H40   H     H_    0.701719 0.988392 0.925325 0.000000
Br11  Br    Br    0.573981 0.093851 0.711235 0.000000
C71   C     C_R   0.620814 0.139738 0.720986 0.000000
C72   C     C_R   0.642857 0.129835 0.754256 0.000000
C73   C     C_R   0.676640 0.163304 0.762890 0.000000
C74   C     C_R   0.687463 0.205716 0.736924 0.000000
N21   N     N_R   0.718055 0.244202 0.740691 0.000000
C75   C     C_R   0.713270 0.277688 0.710465 0.000000
N22   N     N_R   0.682084 0.260465 0.685767 0.000000
C76   C     C_R   0.665941 0.215418 0.704195 0.000000
C77   C     C_R   0.632214 0.183241 0.695770 0.000000
H41   H     H_    0.633196 0.096189 0.774253 0.000000
H42   H     H_    0.693414 0.156713 0.789861 0.000000
H43   H     H_    0.731374 0.315005 0.709087 0.000000
H44   H     H_    0.614618 0.192145 0.671913 0.000000
Br12  Br    Br    0.907755 0.504644 0.816060 0.000000
C78   C     C_R   0.872419 0.443924 0.797370 0.000000
C79   C     C_R   0.856475 0.408374 0.830960 0.000000
C80   C     C_R   0.830315 0.364304 0.818199 0.000000
C81   C     C_R   0.821868 0.356326 0.771221 0.000000
N23   N     N_R   0.798308 0.316176 0.750385 0.000000
C82   C     C_R   0.800795 0.329071 0.703775 0.000000
N24   N     N_R   0.822958 0.376556 0.695499 0.000000
C83   C     C_R   0.836973 0.391776 0.738436 0.000000
C84   C     C_R   0.862593 0.435856 0.750443 0.000000
H45   H     H_    0.864237 0.415477 0.867548 0.000000
H46   H     H_    0.817291 0.337458 0.844568 0.000000
H47   H     H_    0.786048 0.304127 0.676781 0.000000
H48   H     H_    0.875739 0.462721 0.724226 0.000000
Br13  Br    Br    0.708360 0.133496 0.290912 0.000000
C85   C     C_R   0.691308 0.075179 0.254410 0.000000
C86   C     C_R   0.711403 0.068816 0.217221 0.000000
C87   C     C_R   0.701272 0.024798 0.192585 0.000000
C88   C     C_R   0.670257 0.988840 0.205421 0.000000
N25   N     N_R   0.655662 0.942849 0.188101 0.000000
C89   C     C_R   0.626254 0.922977 0.215658 0.000000
N26   N     N_R   0.620946 0.955780 0.246415 0.000000
C90   C     C_R   0.649743 0.996240 0.240474 0.000000
C91   C     C_R   0.659819 0.038737 0.266320 0.000000
H49   H     H_    0.735575 0.098270 0.208447 0.000000
H50   H     H_    0.717659 0.018777 0.165382 0.000000
H51   H     H_    0.609020 0.885026 0.214352 0.000000
H52   H     H_    0.644534 0.042926 0.295991 0.000000
Br14  Br    Br    0.438857 0.694299 0.316416 0.000000
C92   C     C_R   0.472453 0.756011 0.297701 0.000000
C93   C     C_R   0.487265 0.792266 0.331436 0.000000
C94   C     C_R   0.510505 0.838111 0.318592 0.000000
C95   C     C_R   0.518220 0.846566 0.271617 0.000000
N27   N     N_R   0.539980 0.887955 0.251184 0.000000
C96   C     C_R   0.537046 0.875802 0.204328 0.000000
N28   N     N_R   0.516265 0.827656 0.195388 0.000000
C97   C     C_R   0.504020 0.810797 0.238466 0.000000
C98   C     C_R   0.481084 0.764877 0.250644 0.000000
H53   H     H_    0.480106 0.784883 0.367984 0.000000
H54   H     H_    0.520805 0.866404 0.344859 0.000000
H55   H     H_    0.550815 0.901561 0.177675 0.000000
H56   H     H_    0.468851 0.737025 0.224720 0.000000
Br15  Br    Br    0.590452 0.494686 0.128291 0.000000
C99   C     C_R   0.602735 0.437155 0.127243 0.000000
C100  C     C_R   0.638245 0.441762 0.126813 0.000000
C101  C     C_R   0.647838 0.400490 0.126663 0.000000
C102  C     C_R   0.621177 0.355295 0.126698 0.000000
N29   N     N_R   0.623999 0.310521 0.129184 0.000000
C103  C     C_R   0.589324 0.279446 0.127909 0.000000
N30   N     N_R   0.565422 0.303104 0.127107 0.000000
C104  C     C_R   0.586312 0.350842 0.125945 0.000000
C105  C     C_R   0.576207 0.391150 0.126860 0.000000
H57   H     H_    0.658588 0.477958 0.126774 0.000000
H58   H     H_    0.675302 0.404052 0.125747 0.000000
H59   H     H_    0.581360 0.240184 0.129418 0.000000
H60   H     H_    0.548651 0.387365 0.127060 0.000000
Br16  Br    Br    0.449195 0.383750 0.343127 0.000000
C106  C     C_R   0.463552 0.363058 0.285530 0.000000
C107  C     C_R   0.486841 0.337433 0.286357 0.000000
C108  C     C_R   0.497546 0.321948 0.244883 0.000000
C109  C     C_R   0.484062 0.332394 0.203457 0.000000
N31   N     N_R   0.488958 0.318510 0.159637 0.000000
C110  C     C_R   0.467753 0.336159 0.132718 0.000000
N32   N     N_R   0.448585 0.357856 0.158426 0.000000
C111  C     C_R   0.460466 0.356402 0.202687 0.000000
C112  C     C_R   0.450189 0.373012 0.243274 0.000000
H61   H     H_    0.496645 0.329510 0.319730 0.000000
H62   H     H_    0.515682 0.302195 0.245327 0.000000
H63   H     H_    0.465227 0.331217 0.095251 0.000000
H64   H     H_    0.432464 0.393355 0.242559 0.000000
Br17  Br    Br    0.606142 0.664067 0.189729 0.000000
C113  C     C_R   0.557638 0.651869 0.175272 0.000000
C114  C     C_R   0.533946 0.603648 0.171413 0.000000
C115  C     C_R   0.498408 0.593992 0.162044 0.000000
C116  C     C_R   0.487903 0.633523 0.155685 0.000000
N33   N     N_R   0.454842 0.633180 0.148849 0.000000
C117  C     C_R   0.459612 0.682074 0.147259 0.000000
N34   N     N_R   0.494390 0.712752 0.150420 0.000000
C118  C     C_R   0.511315 0.680865 0.157884 0.000000
C119  C     C_R   0.546305 0.691186 0.169097 0.000000
H65   H     H_    0.543245 0.573450 0.176711 0.000000
H66   H     H_    0.479691 0.556759 0.160570 0.000000
H67   H     H_    0.437570 0.694382 0.147008 0.000000
H68   H     H_    0.564312 0.728478 0.174172 0.000000
Br18  Br    Br    0.658762 0.725557 0.009094 0.000000
C120  C     C_R   0.628866 0.748683 0.046132 0.000000
C121  C     C_R   0.592578 0.722446 0.045332 0.000000
C122  C     C_R   0.569603 0.739368 0.069565 0.000000
C123  C     C_R   0.584066 0.782178 0.094751 0.000000
N35   N     N_R   0.566745 0.806991 0.117963 0.000000
C124  C     C_R   0.593409 0.849775 0.129986 0.000000
N36   N     N_R   0.626578 0.850839 0.119179 0.000000
C125  C     C_R   0.619780 0.807882 0.096013 0.000000
C126  C     C_R   0.643020 0.792118 0.071736 0.000000
H69   H     H_    0.582148 0.689105 0.024583 0.000000
H70   H     H_    0.541290 0.720302 0.067539 0.000000
H71   H     H_    0.588802 0.881610 0.142018 0.000000
H72   H     H_    0.671050 0.813475 0.071321 0.000000
Br19  Br    Br    0.219005 0.299932 0.132131 0.000000
C127  C     C_R   0.215219 0.323232 0.193886 0.000000
C128  C     C_R   0.182600 0.306829 0.216422 0.000000
C129  C     C_R   0.178819 0.323963 0.260900 0.000000
C130  C     C_R   0.208215 0.357950 0.281429 0.000000
N37   N     N_R   0.211118 0.378282 0.324739 0.000000
C131  C     C_R   0.246034 0.409578 0.325637 0.000000
N38   N     N_R   0.265102 0.406743 0.286332 0.000000
C132  C     C_R   0.240275 0.374458 0.258932 0.000000
C133  C     C_R   0.244778 0.356978 0.215516 0.000000
H73   H     H_    0.159947 0.280413 0.198945 0.000000
H74   H     H_    0.153545 0.311426 0.278423 0.000000
H75   H     H_    0.257774 0.433149 0.355110 0.000000
H76   H     H_    0.270221 0.369844 0.198376 0.000000
Br20  Br    Br    0.326894 0.628738 0.442008 0.000000
C134  C     C_R   0.327698 0.570962 0.411009 0.000000
C135  C     C_R   0.320703 0.564678 0.363197 0.000000
C136  C     C_R   0.321266 0.522840 0.340733 0.000000
C137  C     C_R   0.330060 0.488776 0.366712 0.000000
N39   N     N_R   0.329598 0.444467 0.352140 0.000000
C138  C     C_R   0.331590 0.421104 0.393411 0.000000
N40   N     N_R   0.333791 0.450070 0.432420 0.000000
C139  C     C_R   0.334017 0.492949 0.414017 0.000000
C140  C     C_R   0.333645 0.534504 0.436960 0.000000
H77   H     H_    0.314192 0.592173 0.343549 0.000000
H78   H     H_    0.312892 0.516504 0.304517 0.000000
H79   H     H_    0.326665 0.382142 0.395454 0.000000
H80   H     H_    0.339021 0.540616 0.473612 0.000000
Br21  Br    Br    0.197787 0.397161 0.646429 0.000000
C141  C     C_R   0.200277 0.389151 0.580104 0.000000
C142  C     C_R   0.169321 0.374546 0.553006 0.000000
C143  C     C_R   0.170371 0.368647 0.504661 0.000000
C144  C     C_R   0.202887 0.377547 0.484906 0.000000
N41   N     N_R   0.210181 0.373904 0.439165 0.000000
C145  C     C_R   0.246478 0.386339 0.440186 0.000000
N42   N     N_R   0.261834 0.399912 0.483916 0.000000
C146  C     C_R   0.233416 0.392400 0.511494 0.000000
C147  C     C_R   0.232903 0.398130 0.559372 0.000000
H81   H     H_    0.144152 0.367497 0.569938 0.000000
H82   H     H_    0.146475 0.357175 0.483406 0.000000
H83   H     H_    0.261621 0.384203 0.410018 0.000000
H84   H     H_    0.257041 0.409371 0.580116 0.000000
Br22  Br    Br    0.186638 0.810674 0.684840 0.000000
C148  C     C_R   0.211071 0.810604 0.742491 0.000000
C149  C     C_R   0.245957 0.813054 0.741903 0.000000
C150  C     C_R   0.263806 0.812904 0.783582 0.000000
C151  C     C_R   0.245760 0.808760 0.825171 0.000000
N43   N     N_R   0.259067 0.811109 0.869178 0.000000
C152  C     C_R   0.232417 0.817047 0.896177 0.000000
N44   N     N_R   0.203315 0.817589 0.870113 0.000000
C153  C     C_R   0.212468 0.810492 0.825850 0.000000
C154  C     C_R   0.194273 0.810247 0.784738 0.000000
H85   H     H_    0.259399 0.815656 0.708706 0.000000
H86   H     H_    0.291453 0.817884 0.782962 0.000000
H87   H     H_    0.236111 0.827276 0.932988 0.000000
H88   H     H_    0.167396 0.808333 0.784503 0.000000
Br23  Br    Br    0.100374 0.939893 0.660282 0.000000
C155  C     C_R   0.110896 0.907837 0.713759 0.000000
C156  C     C_R   0.144384 0.926443 0.734593 0.000000
C157  C     C_R   0.152521 0.903967 0.773709 0.000000
C158  C     C_R   0.126357 0.863391 0.791262 0.000000
N45   N     N_R   0.127951 0.836711 0.829407 0.000000
C159  C     C_R   0.095084 0.799770 0.828677 0.000000
N46   N     N_R   0.072808 0.804210 0.793211 0.000000
C160  C     C_R   0.093697 0.844308 0.770032 0.000000
C161  C     C_R   0.085141 0.866025 0.731259 0.000000
H89   H     H_    0.164265 0.958778 0.720090 0.000000
H90   H     H_    0.178654 0.917698 0.789412 0.000000
H91   H     H_    0.087333 0.770791 0.854493 0.000000
H92   H     H_    0.059482 0.850964 0.714445 0.000000
Br24  Br    Br    0.145555 0.648439 0.931981 0.000000
C162  C     C_R   0.121972 0.692718 0.947366 0.000000
C163  C     C_R   0.087923 0.674711 0.965122 0.000000
C164  C     C_R   0.070228 0.706320 0.975431 0.000000
C165  C     C_R   0.087819 0.756055 0.969908 0.000000
N47   N     N_R   0.074016 0.791960 0.973804 0.000000
C166  C     C_R   0.100148 0.831471 0.952907 0.000000
N48   N     N_R   0.129380 0.820901 0.937722 0.000000
C167  C     C_R   0.120694 0.773428 0.950134 0.000000
C168  C     C_R   0.138246 0.742350 0.938460 0.000000
H93   H     H_    0.074750 0.635543 0.969734 0.000000
H94   H     H_    0.042894 0.691486 0.985324 0.000000
H95   H     H_    0.095702 0.864664 0.942829 0.000000
H96   H     H_    0.163950 0.755621 0.922840 0.000000
Br25  Br    Br    0.124491 0.030274 0.835600 0.000000
C169  C     C_R   0.166484 0.018850 0.853311 0.000000
C170  C     C_R   0.199044 0.057440 0.852094 0.000000
C171  C     C_R   0.230083 0.049904 0.863894 0.000000
C172  C     C_R   0.227418 0.003244 0.876544 0.000000
N49   N     N_R   0.254040 0.987140 0.886974 0.000000
C173  C     C_R   0.235936 0.937789 0.895507 0.000000
N50   N     N_R   0.199680 0.922635 0.888794 0.000000
C174  C     C_R   0.195291 0.965189 0.877814 0.000000
C175  C     C_R   0.164309 0.972019 0.866535 0.000000
H97   H     H_    0.200137 0.093636 0.841484 0.000000
H98   H     H_    0.255467 0.079556 0.862658 0.000000
H99   H     H_    0.249020 0.913144 0.906073 0.000000
H100  H     H_    0.139167 0.941864 0.867346 0.000000
Br26  Br    Br    0.023899 0.963592 0.871156 0.000000
C176  C     C_R   0.003112 0.925217 0.816894 0.000000
C177  C     C_R   0.981892 0.940798 0.786618 0.000000
C178  C     C_R   0.966460 0.913525 0.746915 0.000000
C179  C     C_R   0.973371 0.871366 0.738490 0.000000
N51   N     N_R   0.963821 0.841207 0.700743 0.000000
C180  C     C_R   0.978654 0.806550 0.710477 0.000000
N52   N     N_R   0.996533 0.813840 0.752521 0.000000
C181  C     C_R   0.993410 0.855512 0.768838 0.000000
C182  C     C_R   0.008654 0.881526 0.808528 0.000000
H101  H     H_    0.977583 0.974707 0.794037 0.000000
H102  H     H_    0.950481 0.925749 0.722814 0.000000
H103  H     H_    0.976811 0.776648 0.687218 0.000000
H104  H     H_    0.024906 0.868957 0.831874 0.000000
Br27  Br    Br    0.120088 0.670709 0.717351 0.000000
C183  C     C_R   0.071524 0.661733 0.706878 0.000000
C184  C     C_R   0.051846 0.627694 0.673420 0.000000
C185  C     C_R   0.016620 0.621004 0.664794 0.000000
C186  C     C_R   0.001810 0.648209 0.691047 0.000000
N53   N     N_R   0.969152 0.650332 0.686566 0.000000
C187  C     C_R   0.970066 0.686569 0.718310 0.000000
N54   N     N_R   0.002125 0.707516 0.741263 0.000000
C188  C     C_R   0.021311 0.682061 0.723611 0.000000
C189  C     C_R   0.056343 0.689825 0.732130 0.000000
H105  H     H_    0.064276 0.606557 0.653621 0.000000
H106  H     H_    0.001503 0.595272 0.638396 0.000000
H107  H     H_    0.948566 0.700151 0.721630 0.000000
H108  H     H_    0.071675 0.716966 0.757386 0.000000
Br28  Br    Br    0.858199 0.683574 0.940520 0.000000
C190  C     C_R   0.902439 0.702824 0.908858 0.000000
C191  C     C_R   0.903149 0.702407 0.859814 0.000000
C192  C     C_R   0.935059 0.718304 0.836094 0.000000
C193  C     C_R   0.965529 0.733041 0.862688 0.000000
N55   N     N_R   0.999089 0.753750 0.847730 0.000000
C194  C     C_R   0.018077 0.766135 0.888690 0.000000
N56   N     N_R   0.997955 0.752871 0.928132 0.000000
C195  C     C_R   0.964829 0.732591 0.910747 0.000000
C196  C     C_R   0.933618 0.718574 0.934943 0.000000
H109  H     H_    0.878564 0.690806 0.840023 0.000000
H110  H     H_    0.935824 0.720241 0.798182 0.000000
H111  H     H_    0.045554 0.788215 0.890179 0.000000
H112  H     H_    0.933266 0.721457 0.972767 0.000000
Br29  Br    Br    0.677225 0.704999 0.627904 0.000000
C197  C     C_R   0.642045 0.734032 0.635137 0.000000
C198  C     C_R   0.606390 0.704150 0.635275 0.000000
C199  C     C_R   0.580261 0.724417 0.639459 0.000000
C200  C     C_R   0.590967 0.774558 0.643955 0.000000
N57   N     N_R   0.570520 0.802251 0.645843 0.000000
C201  C     C_R   0.594752 0.849294 0.647662 0.000000
N58   N     N_R   0.629319 0.851751 0.646344 0.000000
C202  C     C_R   0.625963 0.803967 0.644224 0.000000
C203  C     C_R   0.652222 0.784691 0.639485 0.000000
H113  H     H_    0.599006 0.664748 0.631577 0.000000
H114  H     H_    0.552554 0.701543 0.638911 0.000000
H115  H     H_    0.587068 0.881267 0.646751 0.000000
H116  H     H_    0.679812 0.807876 0.639076 0.000000
Br30  Br    Br    0.715340 0.138801 0.485224 0.000000
C204  C     C_R   0.698829 0.077860 0.517922 0.000000
C205  C     C_R   0.720052 0.068536 0.552719 0.000000
C206  C     C_R   0.708823 0.024522 0.577049 0.000000
C207  C     C_R   0.675816 0.991581 0.566259 0.000000
N59   N     N_R   0.658924 0.947441 0.585665 0.000000
C208  C     C_R   0.627313 0.930876 0.562524 0.000000
N60   N     N_R   0.623549 0.963406 0.530629 0.000000
C209  C     C_R   0.654747 0.000999 0.532911 0.000000
C210  C     C_R   0.665756 0.043523 0.507222 0.000000
H117  H     H_    0.745532 0.095999 0.560814 0.000000
H118  H     H_    0.725301 0.016771 0.603681 0.000000
H119  H     H_    0.607440 0.895496 0.568221 0.000000
H120  H     H_    0.649490 0.049966 0.479526 0.000000
Br31  Br    Br    0.572880 0.956639 0.779429 0.000000
C211  C     C_R   0.622529 0.974996 0.769722 0.000000
C212  C     C_R   0.646326 0.007880 0.800689 0.000000
C213  C     C_R   0.682517 0.021450 0.794380 0.000000
C214  C     C_R   0.693584 0.001849 0.756341 0.000000
N61   N     N_R   0.726920 0.011226 0.742087 0.000000
C215  C     C_R   0.722717 0.984800 0.701382 0.000000
N62   N     N_R   0.688238 0.957472 0.691112 0.000000
C216  C     C_R   0.670406 0.969764 0.725921 0.000000
C217  C     C_R   0.634531 0.955414 0.731808 0.000000
H121  H     H_    0.636462 0.022768 0.830069 0.000000
H122  H     H_    0.701253 0.047122 0.817997 0.000000
H123  H     H_    0.744392 0.986755 0.678818 0.000000
H124  H     H_    0.616207 0.930545 0.707570 0.000000
Br32  Br    Br    0.781276 0.904708 0.427307 0.000000
C218  C     C_R   0.759564 0.902593 0.486815 0.000000
C219  C     C_R   0.723813 0.896214 0.488218 0.000000
C220  C     C_R   0.707048 0.894215 0.530780 0.000000
C221  C     C_R   0.726893 0.898392 0.571014 0.000000
N63   N     N_R   0.716531 0.899806 0.615597 0.000000
C222  C     C_R   0.746471 0.904963 0.641230 0.000000
N64   N     N_R   0.775580 0.910367 0.614081 0.000000
C223  C     C_R   0.762016 0.904713 0.569937 0.000000
C224  C     C_R   0.779249 0.907173 0.527975 0.000000
H125  H     H_    0.708957 0.892646 0.455734 0.000000
H126  H     H_    0.679200 0.888579 0.532016 0.000000
H127  H     H_    0.747004 0.907018 0.678875 0.000000
H128  H     H_    0.806839 0.911424 0.526705 0.000000
Br33  Br    Br    0.251305 0.300496 0.693351 0.000000
C225  C     C_R   0.292494 0.287634 0.712460 0.000000
C226  C     C_R   0.289702 0.251116 0.745535 0.000000
C227  C     C_R   0.319293 0.240975 0.759729 0.000000
C228  C     C_R   0.350995 0.267705 0.739510 0.000000
N65   N     N_R   0.382791 0.263685 0.746910 0.000000
C229  C     C_R   0.404494 0.299361 0.718288 0.000000
N66   N     N_R   0.387249 0.323001 0.691229 0.000000
C230  C     C_R   0.353698 0.303271 0.706702 0.000000
C231  C     C_R   0.324901 0.314584 0.692952 0.000000
H129  H     H_    0.264186 0.230547 0.760408 0.000000
H130  H     H_    0.317412 0.213031 0.785669 0.000000
H131  H     H_    0.432407 0.307922 0.718069 0.000000
H132  H     H_    0.327298 0.343359 0.667768 0.000000
Br34  Br    Br    0.477852 0.270189 0.427038 0.000000
C232  C     C_R   0.467412 0.296098 0.484424 0.000000
C233  C     C_R   0.442781 0.319451 0.484402 0.000000
C234  C     C_R   0.434580 0.338313 0.525669 0.000000
C235  C     C_R   0.451706 0.333507 0.566291 0.000000
N67   N     N_R   0.446970 0.346912 0.610524 0.000000
C236  C     C_R   0.470838 0.333133 0.636197 0.000000
N68   N     N_R   0.488187 0.309257 0.610183 0.000000
C237  C     C_R   0.476141 0.310975 0.566166 0.000000
C238  C     C_R   0.484384 0.291545 0.525735 0.000000
H133  H     H_    0.429878 0.322920 0.451814 0.000000
H134  H     H_    0.415923 0.356935 0.525094 0.000000
H135  H     H_    0.475118 0.338757 0.673433 0.000000
H136  H     H_    0.503836 0.274137 0.525559 0.000000
Br35  Br    Br    0.529916 0.474470 0.769599 0.000000
C239  C     C_R   0.501679 0.492165 0.724091 0.000000
C240  C     C_R   0.504579 0.541209 0.720055 0.000000
C241  C     C_R   0.481048 0.554228 0.692147 0.000000
C242  C     C_R   0.454977 0.517031 0.669224 0.000000
N69   N     N_R   0.425791 0.519497 0.647841 0.000000
C243  C     C_R   0.406499 0.471137 0.638106 0.000000
N70   N     N_R   0.423277 0.439402 0.650330 0.000000
C244  C     C_R   0.453161 0.469194 0.671427 0.000000
C245  C     C_R   0.476400 0.455577 0.698374 0.000000
H137  H     H_    0.524259 0.569094 0.740767 0.000000
H138  H     H_    0.481710 0.591710 0.691151 0.000000
H139  H     H_    0.379671 0.458771 0.625183 0.000000
H140  H     H_    0.473160 0.417335 0.702707 0.000000
Br36  Br    Br    0.228054 0.213300 0.527407 0.000000
C246  C     C_R   0.273759 0.257786 0.545457 0.000000
C247  C     C_R   0.294617 0.242412 0.576348 0.000000
C248  C     C_R   0.327836 0.274132 0.590277 0.000000
C249  C     C_R   0.339104 0.321031 0.572722 0.000000
N71   N     N_R   0.369267 0.358711 0.583009 0.000000
C250  C     C_R   0.367083 0.395237 0.554057 0.000000
N72   N     N_R   0.335792 0.383024 0.529309 0.000000
C251  C     C_R   0.318991 0.335724 0.541354 0.000000
C252  C     C_R   0.285943 0.305011 0.527441 0.000000
H141  H     H_    0.284680 0.205350 0.589715 0.000000
H142  H     H_    0.344171 0.262266 0.614071 0.000000
H143  H     H_    0.388223 0.429976 0.551269 0.000000
H144  H     H_    0.270053 0.316695 0.502917 0.000000
Br37  Br    Br    0.281042 0.113910 0.641484 0.000000
C253  C     C_R   0.294695 0.100497 0.702718 0.000000
C254  C     C_R   0.273983 0.057825 0.725723 0.000000
C255  C     C_R   0.283445 0.046673 0.770031 0.000000
C256  C     C_R   0.313679 0.079233 0.790085 0.000000
N73   N     N_R   0.327749 0.075983 0.832459 0.000000
C257  C     C_R   0.357998 0.117403 0.833569 0.000000
N74   N     N_R   0.362157 0.147055 0.794585 0.000000
C258  C     C_R   0.334061 0.121307 0.767578 0.000000
C259  C     C_R   0.325219 0.132941 0.723630 0.000000
H145  H     H_    0.250362 0.032964 0.708686 0.000000
H146  H     H_    0.267758 0.013344 0.787836 0.000000
H147  H     H_    0.376516 0.126130 0.862741 0.000000
H148  H     H_    0.341573 0.165841 0.705746 0.000000
Br38  Br    Br    0.423799 0.042395 0.092471 0.000000
C260  C     C_R   0.388272 0.048239 0.050939 0.000000
C261  C     C_R   0.364719 0.006042 0.029873 0.000000
C262  C     C_R   0.341390 0.009247 0.995280 0.000000
C263  C     C_R   0.343078 0.055385 0.982094 0.000000
N75   N     N_R   0.327958 0.067362 0.944013 0.000000
C264  C     C_R   0.339262 0.117743 0.947012 0.000000
N76   N     N_R   0.363120 0.137612 0.983126 0.000000
C265  C     C_R   0.364703 0.096988 0.004657 0.000000
C266  C     C_R   0.387600 0.094302 0.039709 0.000000
H149  H     H_    0.365953 0.970659 0.038960 0.000000
H150  H     H_    0.323972 0.976683 0.977443 0.000000
H151  H     H_    0.331066 0.139031 0.921836 0.000000
H152  H     H_    0.405561 0.126679 0.056826 0.000000
Br39  Br    Br    0.450865 0.945850 0.977641 0.000000
C267  C     C_R   0.415978 0.956923 0.938797 0.000000
C268  C     C_R   0.415914 0.004522 0.935070 0.000000
C269  C     C_R   0.388954 0.013715 0.911384 0.000000
C270  C     C_R   0.362007 0.974009 0.893394 0.000000
N77   N     N_R   0.330156 0.972704 0.877828 0.000000
C271  C     C_R   0.313520 0.924275 0.865639 0.000000
N78   N     N_R   0.332946 0.895330 0.876063 0.000000
C272  C     C_R   0.363251 0.927677 0.893931 0.000000
C273  C     C_R   0.389947 0.917756 0.916933 0.000000
H153  H     H_    0.436034 0.034191 0.953183 0.000000
H154  H     H_    0.388129 0.050405 0.909830 0.000000
H155  H     H_    0.286986 0.909773 0.851583 0.000000
H156  H     H_    0.389747 0.880634 0.920057 0.000000
Br40  Br    Br    0.738457 0.837165 0.938936 0.000000
C274  C     C_R   0.750254 0.897729 0.905948 0.000000
C275  C     C_R   0.749614 0.897699 0.856945 0.000000
C276  C     C_R   0.756908 0.941221 0.832331 0.000000
C277  C     C_R   0.765108 0.983894 0.857911 0.000000
N79   N     N_R   0.770701 0.029438 0.841763 0.000000
C278  C     C_R   0.773102 0.056337 0.882452 0.000000
N80   N     N_R   0.769825 0.028963 0.922667 0.000000
C279  C     C_R   0.765218 0.983797 0.905836 0.000000
C280  C     C_R   0.758033 0.941216 0.931027 0.000000
H157  H     H_    0.742657 0.863274 0.837917 0.000000
H158  H     H_    0.754766 0.941166 0.794548 0.000000
H159  H     H_    0.776048 0.094730 0.882837 0.000000
H160  H     H_    0.757212 0.941248 0.968989 0.000000
Br41  Br    Br    0.896587 0.166485 0.878684 0.000000
C281  C     C_R   0.859515 0.178849 0.845352 0.000000
C282  C     C_R   0.858307 0.226040 0.844693 0.000000
C283  C     C_R   0.831334 0.235446 0.820958 0.000000
C284  C     C_R   0.806177 0.197017 0.798305 0.000000
N81   N     N_R   0.776992 0.197050 0.775209 0.000000
C285  C     C_R   0.761422 0.149098 0.760501 0.000000
N82   N     N_R   0.780033 0.120077 0.774323 0.000000
C286  C     C_R   0.807590 0.151262 0.798550 0.000000
C287  C     C_R   0.833893 0.140696 0.821991 0.000000
H161  H     H_    0.878481 0.255590 0.863047 0.000000
H162  H     H_    0.830164 0.271664 0.820473 0.000000
H163  H     H_    0.736164 0.134912 0.742456 0.000000
H164  H     H_    0.834840 0.104025 0.821852 0.000000
Br42  Br    Br    0.744152 0.747427 0.733165 0.000000
C288  C     C_R   0.790558 0.777626 0.708471 0.000000
C289  C     C_R   0.814891 0.753771 0.712263 0.000000
C290  C     C_R   0.849022 0.775411 0.695386 0.000000
C291  C     C_R   0.857711 0.820774 0.674919 0.000000
N83   N     N_R   0.889035 0.849076 0.656867 0.000000
C292  C     C_R   0.883265 0.891288 0.644964 0.000000
N84   N     N_R   0.849226 0.889041 0.652285 0.000000
C293  C     C_R   0.833960 0.844453 0.671842 0.000000
C294  C     C_R   0.800005 0.823663 0.687964 0.000000
H165  H     H_    0.807201 0.718220 0.729067 0.000000
H166  H     H_    0.868321 0.757963 0.699787 0.000000
H167  H     H_    0.903809 0.923442 0.631662 0.000000
H168  H     H_    0.781518 0.842788 0.685690 0.000000
Br43  Br    Br    0.823578 0.134755 0.564012 0.000000
C295  C     C_R   0.846587 0.090523 0.546439 0.000000
C296  C     C_R   0.872666 0.104524 0.512215 0.000000
C297  C     C_R   0.891437 0.074504 0.500719 0.000000
C298  C     C_R   0.883789 0.031128 0.524569 0.000000
N85   N     N_R   0.899964 0.997845 0.521878 0.000000
C299  C     C_R   0.881503 0.962857 0.553530 0.000000
N86   N     N_R   0.856159 0.974331 0.577335 0.000000
C300  C     C_R   0.857613 0.016951 0.557447 0.000000
C301  C     C_R   0.838182 0.045609 0.568859 0.000000
H169  H     H_    0.878651 0.139544 0.494845 0.000000
H170  H     H_    0.911180 0.085045 0.473949 0.000000
H171  H     H_    0.886203 0.929234 0.558690 0.000000
H172  H     H_    0.817942 0.034389 0.595498 0.000000
Br44  Br    Br    0.906945 0.203921 0.687215 0.000000
C302  C     C_R   0.885332 0.134060 0.688448 0.000000
C303  C     C_R   0.900467 0.105287 0.663909 0.000000
C304  C     C_R   0.883886 0.054757 0.662316 0.000000
C305  C     C_R   0.852804 0.034509 0.686491 0.000000
N87   N     N_R   0.830439 0.987578 0.685341 0.000000
C306  C     C_R   0.805161 0.987437 0.717286 0.000000
N88   N     N_R   0.809322 0.033081 0.734964 0.000000
C307  C     C_R   0.839558 0.062122 0.714218 0.000000
C308  C     C_R   0.854489 0.112579 0.713603 0.000000
H173  H     H_    0.924744 0.122555 0.644787 0.000000
H174  H     H_    0.895272 0.032179 0.642897 0.000000
H175  H     H_    0.783035 0.955296 0.725793 0.000000
H176  H     H_    0.842343 0.135550 0.730002 0.000000
Br45  Br    Br    0.822360 0.031492 0.385069 0.000000
C309  C     C_R   0.829997 0.008761 0.324537 0.000000
C310  C     C_R   0.802756 0.994793 0.291124 0.000000
C311  C     C_R   0.808426 0.980984 0.245977 0.000000
C312  C     C_R   0.841835 0.982278 0.235359 0.000000
N89   N     N_R   0.854127 0.972298 0.193914 0.000000
C313  C     C_R   0.889333 0.982300 0.203859 0.000000
N90   N     N_R   0.898260 0.993769 0.249929 0.000000
C314  C     C_R   0.868234 0.995215 0.268545 0.000000
C315  C     C_R   0.863155 0.008188 0.313589 0.000000
H177  H     H_    0.777044 0.995651 0.300197 0.000000
H178  H     H_    0.787581 0.971680 0.219940 0.000000
H179  H     H_    0.908925 0.983171 0.178416 0.000000
H180  H     H_    0.884591 0.019501 0.339049 0.000000
Br46  Br    Br    0.810340 0.818377 0.322834 0.000000
C316  C     C_R   0.848379 0.863476 0.358222 0.000000
C317  C     C_R   0.848140 0.861356 0.407262 0.000000
C318  C     C_R   0.875122 0.894528 0.433760 0.000000
C319  C     C_R   0.902504 0.927739 0.409724 0.000000
N91   N     N_R   0.931455 0.962940 0.427430 0.000000
C320  C     C_R   0.949663 0.984357 0.388083 0.000000
N92   N     N_R   0.932006 0.966146 0.346905 0.000000
C321  C     C_R   0.902905 0.929538 0.361685 0.000000
C322  C     C_R   0.875942 0.898228 0.334802 0.000000
H181  H     H_    0.826430 0.833870 0.424877 0.000000
H182  H     H_    0.874939 0.893462 0.471779 0.000000
H183  H     H_    0.975247 0.013114 0.389781 0.000000
H184  H     H_    0.876334 0.900079 0.296816 0.000000
Br47  Br    Br    0.079552 0.224066 0.176692 0.000000
C323  C     C_R   0.046675 0.171865 0.211291 0.000000
C324  C     C_R   0.025107 0.129675 0.187655 0.000000
C325  C     C_R   0.000653 0.091355 0.211855 0.000000
C326  C     C_R   0.998836 0.096560 0.259670 0.000000
N93   N     N_R   0.977229 0.064619 0.290264 0.000000
C327  C     C_R   0.984812 0.090665 0.331736 0.000000
N94   N     N_R   0.011792 0.135315 0.328791 0.000000
C328  C     C_R   0.019706 0.138316 0.282733 0.000000
C329  C     C_R   0.044073 0.176640 0.259558 0.000000
H185  H     H_    0.027380 0.126873 0.149947 0.000000
H186  H     H_    0.983611 0.058701 0.193723 0.000000
H187  H     H_    0.969674 0.078674 0.363010 0.000000
H188  H     H_    0.060274 0.209554 0.278072 0.000000
Br48  Br    Br    0.092300 0.055973 0.202519 0.000000
C330  C     C_R   0.050454 0.999015 0.199550 0.000000
C331  C     C_R   0.047929 0.962871 0.166206 0.000000
C332  C     C_R   0.016840 0.922974 0.160515 0.000000
C333  C     C_R   0.988714 0.920964 0.188199 0.000000
N95   N     N_R   0.955246 0.888883 0.184937 0.000000
C334  C     C_R   0.937864 0.906680 0.217808 0.000000
N96   N     N_R   0.959179 0.949003 0.240105 0.000000
C335  C     C_R   0.991163 0.956419 0.221159 0.000000
C336  C     C_R   0.022199 0.995282 0.228550 0.000000
H189  H     H_    0.070258 0.966445 0.143897 0.000000
H190  H     H_    0.014812 0.895272 0.134386 0.000000
H191  H     H_    0.909560 0.891382 0.222784 0.000000
H192  H     H_    0.024431 0.022707 0.255131 0.000000
Br49  Br    Br    0.544478 0.366242 0.840758 0.000000
C337  C     C_R   0.501774 0.328105 0.871396 0.000000
C338  C     C_R   0.500757 0.325797 0.920375 0.000000
C339  C     C_R   0.470274 0.297198 0.943369 0.000000
C340  C     C_R   0.441455 0.271316 0.916097 0.000000
N97   N     N_R   0.409999 0.239004 0.930086 0.000000
C341  C     C_R   0.392181 0.223703 0.888508 0.000000
N98   N     N_R   0.411962 0.242640 0.849755 0.000000
C342  C     C_R   0.442495 0.273723 0.868141 0.000000
C343  C     C_R   0.472218 0.302148 0.844620 0.000000
H193  H     H_    0.524074 0.346350 0.940713 0.000000
H194  H     H_    0.469413 0.295681 0.981307 0.000000
H195  H     H_    0.365594 0.198531 0.885770 0.000000
H196  H     H_    0.472799 0.303729 0.806616 0.000000
Br50  Br    Br    0.585759 0.219886 0.808091 0.000000
C344  C     C_R   0.539080 0.215996 0.791106 0.000000
C345  C     C_R   0.512619 0.203697 0.824834 0.000000
C346  C     C_R   0.478451 0.200301 0.813237 0.000000
C347  C     C_R   0.472217 0.211594 0.767924 0.000000
N99   N     N_R   0.442524 0.216009 0.749984 0.000000
C348  C     C_R   0.451858 0.230464 0.704510 0.000000
N100  N     N_R   0.486358 0.236880 0.694493 0.000000
C349  C     C_R   0.498319 0.224286 0.734984 0.000000
C350  C     C_R   0.531982 0.226223 0.745398 0.000000
H197  H     H_    0.519001 0.197454 0.860596 0.000000
H198  H     H_    0.457814 0.190329 0.839316 0.000000
H199  H     H_    0.434250 0.237861 0.679337 0.000000
H200  H     H_    0.552473 0.235971 0.719370 0.000000
Br51  Br    Br    0.260523 0.209787 0.172795 0.000000
C351  C     C_R   0.296524 0.222210 0.126514 0.000000
C352  C     C_R   0.295529 0.185440 0.094561 0.000000
C353  C     C_R   0.321997 0.193227 0.061594 0.000000
C354  C     C_R   0.348975 0.238165 0.061753 0.000000
N101  N     N_R   0.378514 0.252075 0.035714 0.000000
C355  C     C_R   0.397499 0.298106 0.053256 0.000000
N102  N     N_R   0.381211 0.312510 0.089950 0.000000
C356  C     C_R   0.350341 0.274147 0.093618 0.000000
C357  C     C_R   0.323980 0.267306 0.126005 0.000000
H201  H     H_    0.274039 0.150315 0.095714 0.000000
H202  H     H_    0.321420 0.164596 0.037102 0.000000
H203  H     H_    0.423765 0.319261 0.041312 0.000000
H204  H     H_    0.324102 0.295798 0.150189 0.000000
Br52  Br    Br    0.499865 0.113211 0.921392 0.000000
C358  C     C_R   0.497191 0.154861 0.971986 0.000000
C359  C     C_R   0.524402 0.169484 0.005338 0.000000
C360  C     C_R   0.522755 0.197922 0.043781 0.000000
C361  C     C_R   0.493436 0.210835 0.047830 0.000000
N103  N     N_R   0.485288 0.236190 0.082882 0.000000
C362  C     C_R   0.452205 0.234861 0.070230 0.000000
N104  N     N_R   0.440603 0.212210 0.027921 0.000000
C363  C     C_R   0.466830 0.196682 0.015010 0.000000
C364  C     C_R   0.467952 0.168972 0.976276 0.000000
H205  H     H_    0.546855 0.157830 0.001593 0.000000
H206  H     H_    0.543306 0.208021 0.070127 0.000000
H207  H     H_    0.436270 0.248836 0.092064 0.000000
H208  H     H_    0.446397 0.157333 0.950967 0.000000
Br53  Br    Br    0.206733 0.561668 0.474558 0.000000
C365  C     C_R   0.167019 0.511456 0.447130 0.000000
C366  C     C_R   0.134223 0.517190 0.445880 0.000000
C367  C     C_R   0.105130 0.482023 0.424740 0.000000
C368  C     C_R   0.109875 0.441600 0.405352 0.000000
N105  N     N_R   0.085566 0.403109 0.383119 0.000000
C369  C     C_R   0.106224 0.377294 0.367157 0.000000
N106  N     N_R   0.140811 0.395338 0.382835 0.000000
C370  C     C_R   0.142388 0.436542 0.405813 0.000000
C371  C     C_R   0.171364 0.470467 0.427182 0.000000
H209  H     H_    0.131495 0.549700 0.461217 0.000000
H210  H     H_    0.079821 0.486775 0.422899 0.000000
H211  H     H_    0.097114 0.346631 0.343301 0.000000
H212  H     H_    0.196869 0.466185 0.427208 0.000000
Br54  Br    Br    0.262592 0.593667 0.183482 0.000000
C372  C     C_R   0.298972 0.620233 0.138271 0.000000
C373  C     C_R   0.296835 0.655688 0.106817 0.000000
C374  C     C_R   0.323278 0.675919 0.074236 0.000000
C375  C     C_R   0.351079 0.659292 0.073862 0.000000
N107  N     N_R   0.380208 0.675348 0.047037 0.000000
C376  C     C_R   0.399319 0.647261 0.062112 0.000000
N108  N     N_R   0.383272 0.615089 0.097577 0.000000
C377  C     C_R   0.352892 0.623669 0.103989 0.000000
C378  C     C_R   0.327366 0.604128 0.137276 0.000000
H213  H     H_    0.274504 0.667879 0.108097 0.000000
H214  H     H_    0.321832 0.703582 0.049981 0.000000
H215  H     H_    0.425674 0.652655 0.049759 0.000000
H216  H     H_    0.328983 0.577157 0.161934 0.000000
Br55  Br    Br    0.357115 0.870932 0.137169 0.000000
C379  C     C_R   0.346293 0.848259 0.073915 0.000000
C380  C     C_R   0.325936 0.867403 0.045732 0.000000
C381  C     C_R   0.318443 0.852600 0.999222 0.000000
C382  C     C_R   0.330720 0.817303 0.982894 0.000000
N109  N     N_R   0.328156 0.799142 0.938862 0.000000
C383  C     C_R   0.346933 0.768080 0.941725 0.000000
N110  N     N_R   0.361209 0.766794 0.985566 0.000000
C384  C     C_R   0.350503 0.798223 0.010637 0.000000
C385  C     C_R   0.359153 0.813426 0.056269 0.000000
H217  H     H_    0.316246 0.894615 0.060156 0.000000
H218  H     H_    0.303424 0.868142 0.976760 0.000000
H219  H     H_    0.351854 0.748974 0.911550 0.000000
H220  H     H_    0.375392 0.798845 0.077588 0.000000
Br56  Br    Br    0.283578 0.549230 0.951639 0.000000
C386  C     C_R   0.322585 0.595331 0.919684 0.000000
C387  C     C_R   0.324931 0.592940 0.871292 0.000000
C388  C     C_R   0.352182 0.627731 0.847794 0.000000
C389  C     C_R   0.377805 0.663214 0.873580 0.000000
N111  N     N_R   0.403702 0.703934 0.857710 0.000000
C390  C     C_R   0.416368 0.730387 0.897981 0.000000
N112  N     N_R   0.400109 0.706708 0.937726 0.000000
C391  C     C_R   0.375812 0.664861 0.921091 0.000000
C392  C     C_R   0.347714 0.632154 0.944849 0.000000
H221  H     H_    0.304655 0.564788 0.851611 0.000000
H222  H     H_    0.352091 0.626686 0.810246 0.000000
H223  H     H_    0.433348 0.768433 0.897481 0.000000
H224  H     H_    0.343881 0.635103 0.981666 0.000000
Br57  Br    Br    0.570287 0.948930 0.986390 0.000000
C393  C     C_R   0.530049 0.891226 0.996625 0.000000
C394  C     C_R   0.502982 0.877753 0.963109 0.000000
C395  C     C_R   0.471643 0.839165 0.971261 0.000000
C396  C     C_R   0.468799 0.814376 0.012806 0.000000
N113  N     N_R   0.441020 0.776381 0.028356 0.000000
C397  C     C_R   0.451926 0.767856 0.071914 0.000000
N114  N     N_R   0.485904 0.797045 0.083172 0.000000
C398  C     C_R   0.495652 0.826721 0.045410 0.000000
C399  C     C_R   0.526917 0.865042 0.038191 0.000000
H225  H     H_    0.505848 0.899075 0.931257 0.000000
H226  H     H_    0.449660 0.830883 0.946978 0.000000
H227  H     H_    0.434841 0.740972 0.094563 0.000000
H228  H     H_    0.547645 0.875843 0.064597 0.000000
Br58  Br    Br    0.811940 0.326051 0.390711 0.000000
C400  C     C_R   0.823764 0.347766 0.454058 0.000000
C401  C     C_R   0.797435 0.335166 0.487920 0.000000
C402  C     C_R   0.804733 0.353281 0.533415 0.000000
C403  C     C_R   0.838702 0.383610 0.543901 0.000000
N115  N     N_R   0.851141 0.408619 0.584152 0.000000
C404  C     C_R   0.885978 0.434219 0.574092 0.000000
N116  N     N_R   0.894785 0.428370 0.528542 0.000000
C405  C     C_R   0.864720 0.395177 0.510914 0.000000
C406  C     C_R   0.858122 0.377324 0.465645 0.000000
H229  H     H_    0.770858 0.311520 0.478460 0.000000
H230  H     H_    0.784245 0.343563 0.559345 0.000000
H231  H     H_    0.904026 0.458672 0.598862 0.000000
H232  H     H_    0.878754 0.386277 0.439647 0.000000
Br59  Br    Br    0.903272 0.696368 0.445988 0.000000
C407  C     C_R   0.922784 0.649535 0.468179 0.000000
C408  C     C_R   0.933952 0.622192 0.436319 0.000000
C409  C     C_R   0.945852 0.585859 0.452041 0.000000
C410  C     C_R   0.946596 0.578208 0.499678 0.000000
N117  N     N_R   0.950775 0.539879 0.522221 0.000000
C411  C     C_R   0.950620 0.552664 0.568902 0.000000
N118  N     N_R   0.944318 0.595757 0.575565 0.000000
C412  C     C_R   0.940307 0.609378 0.531050 0.000000
C413  C     C_R   0.925653 0.643034 0.516001 0.000000
H233  H     H_    0.932113 0.628148 0.399027 0.000000
H234  H     H_    0.955636 0.565933 0.427375 0.000000
H235  H     H_    0.951124 0.528622 0.597561 0.000000
H236  H     H_    0.914330 0.661927 0.539644 0.000000
Br60  Br    Br    0.105281 0.444291 0.579270 0.000000
C414  C     C_R   0.063147 0.444892 0.549128 0.000000
C415  C     C_R   0.042077 0.467021 0.571589 0.000000
C416  C     C_R   0.011314 0.467959 0.550398 0.000000
C417  C     C_R   0.002903 0.446972 0.506592 0.000000
N119  N     N_R   0.974649 0.443745 0.479631 0.000000
C418  C     C_R   0.979760 0.419560 0.440188 0.000000
N120  N     N_R   0.010747 0.410150 0.440753 0.000000
C419  C     C_R   0.024063 0.426344 0.483896 0.000000
C420  C     C_R   0.054018 0.423714 0.504902 0.000000
H237  H     H_    0.049691 0.483382 0.606056 0.000000
H238  H     H_    0.994603 0.484566 0.567743 0.000000
H239  H     H_    0.961297 0.408934 0.411117 0.000000
H240  H     H_    0.069946 0.405764 0.487764 0.000000
Br61  Br    Br    0.796756 0.507456 0.439499 0.000000
C421  C     C_R   0.834204 0.495428 0.407574 0.000000
C422  C     C_R   0.834786 0.495351 0.358487 0.000000
C423  C     C_R   0.862819 0.489492 0.334532 0.000000
C424  C     C_R   0.889545 0.483663 0.361050 0.000000
N121  N     N_R   0.920363 0.481009 0.346190 0.000000
C425  C     C_R   0.937654 0.479488 0.387068 0.000000
N122  N     N_R   0.918392 0.478293 0.426325 0.000000
C426  C     C_R   0.888496 0.482480 0.409025 0.000000
C427  C     C_R   0.861241 0.488565 0.433533 0.000000
H241  H     H_    0.813558 0.501104 0.338867 0.000000
H242  H     H_    0.864048 0.491132 0.296572 0.000000
H243  H     H_    0.964832 0.484050 0.389022 0.000000
H244  H     H_    0.861377 0.489546 0.471586 0.000000
Br62  Br    Br    0.047916 0.102423 0.635801 0.000000
C428  C     C_R   0.021302 0.034936 0.623063 0.000000
C429  C     C_R   0.024927 0.998731 0.652242 0.000000
C430  C     C_R   0.004472 0.949843 0.644638 0.000000
C431  C     C_R   0.981612 0.938451 0.606872 0.000000
N123  N     N_R   0.956580 0.894874 0.595876 0.000000
C432  C     C_R   0.942988 0.904382 0.553936 0.000000
N124  N     N_R   0.957755 0.952736 0.540143 0.000000
C433  C     C_R   0.980953 0.973226 0.575367 0.000000
C434  C     C_R   0.998765 0.022351 0.584429 0.000000
H245  H     H_    0.043253 0.008862 0.681688 0.000000
H246  H     H_    0.007787 0.921732 0.666512 0.000000
H247  H     H_    0.920076 0.878097 0.536742 0.000000
H248  H     H_    0.995018 0.050653 0.563099 0.000000
Br63  Br    Br    0.088502 0.989083 0.491818 0.000000
C435  C     C_R   0.067978 0.037200 0.477506 0.000000
C436  C     C_R   0.089151 0.083137 0.461215 0.000000
C437  C     C_R   0.074286 0.117493 0.448547 0.000000
C438  C     C_R   0.038566 0.105598 0.454528 0.000000
N125  N     N_R   0.018118 0.130237 0.438816 0.000000
C439  C     C_R   0.984769 0.100435 0.452677 0.000000
N126  N     N_R   0.983911 0.058064 0.475098 0.000000
C440  C     C_R   0.018221 0.062022 0.474073 0.000000
C441  C     C_R   0.031991 0.025926 0.483165 0.000000
H249  H     H_    0.117283 0.091648 0.457164 0.000000
H250  H     H_    0.090623 0.152913 0.435812 0.000000
H251  H     H_    0.961340 0.105571 0.440233 0.000000
H252  H     H_    0.015483 0.989350 0.493145 0.000000
Br64  Br    Br    0.792671 0.229366 0.260194 0.000000
C442  C     C_R   0.828210 0.292455 0.252432 0.000000
C443  C     C_R   0.856335 0.307162 0.284392 0.000000
C444  C     C_R   0.881103 0.354280 0.283295 0.000000
C445  C     C_R   0.877093 0.385031 0.249083 0.000000
N127  N     N_R   0.895754 0.433211 0.244521 0.000000
C446  C     C_R   0.878252 0.447027 0.209214 0.000000
N128  N     N_R   0.851118 0.408993 0.189538 0.000000
C447  C     C_R   0.850309 0.370391 0.216410 0.000000
C448  C     C_R   0.825017 0.323984 0.217351 0.000000
H253  H     H_    0.858061 0.282043 0.311483 0.000000
H254  H     H_    0.902066 0.366822 0.309373 0.000000
H255  H     H_    0.882627 0.484643 0.201562 0.000000
H256  H     H_    0.802739 0.313161 0.193175 0.000000
Br65  Br    Br    0.982463 0.256659 0.210579 0.000000
C449  C     C_R   0.979718 0.316907 0.233412 0.000000
C450  C     C_R   0.959825 0.339624 0.208849 0.000000
C451  C     C_R   0.957340 0.383292 0.225018 0.000000
C452  C     C_R   0.975173 0.403194 0.265815 0.000000
N129  N     N_R   0.974993 0.443384 0.289542 0.000000
C453  C     C_R   0.997953 0.445993 0.326437 0.000000
N130  N     N_R   0.009547 0.407047 0.328342 0.000000
C454  C     C_R   0.995336 0.381382 0.289205 0.000000
C455  C     C_R   0.997799 0.337856 0.274224 0.000000
H257  H     H_    0.946132 0.323009 0.176799 0.000000
H258  H     H_    0.942448 0.401294 0.205498 0.000000
H259  H     H_    0.005721 0.474728 0.352478 0.000000
H260  H     H_    0.013650 0.320775 0.293052 0.000000
Br66  Br    Br    0.997246 0.749939 0.315993 0.000000
C456  C     C_R   0.983161 0.682769 0.297038 0.000000
C457  C     C_R   0.984952 0.647571 0.329124 0.000000
C458  C     C_R   0.974728 0.598488 0.316159 0.000000
C459  C     C_R   0.963430 0.586372 0.270636 0.000000
N131  N     N_R   0.952779 0.541698 0.250111 0.000000
C460  C     C_R   0.945612 0.551379 0.204766 0.000000
N132  N     N_R   0.948828 0.599378 0.197468 0.000000
C461  C     C_R   0.961297 0.620759 0.239288 0.000000
C462  C     C_R   0.971354 0.669540 0.251355 0.000000
H261  H     H_    0.994585 0.658709 0.364491 0.000000
H262  H     H_    0.976580 0.571157 0.340649 0.000000
H263  H     H_    0.937698 0.523555 0.177906 0.000000
H264  H     H_    0.971018 0.696986 0.226057 0.000000
Br67  Br    Br    0.602437 0.793210 0.816358 0.000000
C463  C     C_R   0.555077 0.788155 0.802451 0.000000
C464  C     C_R   0.529532 0.773523 0.837108 0.000000
C465  C     C_R   0.494583 0.766196 0.826483 0.000000
C466  C     C_R   0.486099 0.775064 0.781345 0.000000
N133  N     N_R   0.453504 0.763828 0.762339 0.000000
C467  C     C_R   0.460225 0.770494 0.714976 0.000000
N134  N     N_R   0.495646 0.785893 0.704252 0.000000
C468  C     C_R   0.511164 0.788695 0.746972 0.000000
C469  C     C_R   0.546001 0.795783 0.756918 0.000000
H265  H     H_    0.536772 0.766195 0.872269 0.000000
H266  H     H_    0.474785 0.752082 0.852707 0.000000
H267  H     H_    0.439574 0.759059 0.688406 0.000000
H268  H     H_    0.566019 0.805636 0.730586 0.000000
Br68  Br    Br    0.264931 0.583651 0.749433 0.000000
C470  C     C_R   0.284257 0.649869 0.771613 0.000000
C471  C     C_R   0.263651 0.668655 0.798927 0.000000
C472  C     C_R   0.277886 0.715341 0.818242 0.000000
C473  C     C_R   0.312620 0.742849 0.808771 0.000000
N135  N     N_R   0.332503 0.785946 0.829027 0.000000
C474  C     C_R   0.366453 0.789570 0.817250 0.000000
N136  N     N_R   0.367763 0.751104 0.789520 0.000000
C475  C     C_R   0.333308 0.723347 0.783863 0.000000
C476  C     C_R   0.319515 0.677366 0.763838 0.000000
H269  H     H_    0.236580 0.645995 0.806475 0.000000
H270  H     H_    0.262509 0.728037 0.842270 0.000000
H271  H     H_    0.389677 0.815601 0.834081 0.000000
H272  H     H_    0.335785 0.662118 0.744034 0.000000
Br69  Br    Br    0.463610 0.582356 0.878528 0.000000
C477  C     C_R   0.436530 0.582302 0.823275 0.000000
C478  C     C_R   0.425720 0.541539 0.793743 0.000000
C479  C     C_R   0.409739 0.543480 0.750975 0.000000
C480  C     C_R   0.404152 0.586045 0.739672 0.000000
N137  N     N_R   0.395672 0.600016 0.697561 0.000000
C481  C     C_R   0.392953 0.644926 0.707026 0.000000
N138  N     N_R   0.400254 0.659218 0.753141 0.000000
C482  C     C_R   0.409611 0.622736 0.771562 0.000000
C483  C     C_R   0.428389 0.623408 0.812408 0.000000
H273  H     H_    0.431292 0.508992 0.803142 0.000000
H274  H     H_    0.401159 0.511823 0.728187 0.000000
H275  H     H_    0.390192 0.669444 0.679978 0.000000
H276  H     H_    0.438829 0.655668 0.834185 0.000000
Br70  Br    Br    0.434124 0.920269 0.458829 0.000000
C484  C     C_R   0.476860 0.976107 0.457394 0.000000
C485  C     C_R   0.475539 0.022865 0.451001 0.000000
C486  C     C_R   0.505631 0.064347 0.457290 0.000000
C487  C     C_R   0.535902 0.057265 0.472224 0.000000
N139  N     N_R   0.565256 0.090721 0.491178 0.000000
C488  C     C_R   0.585278 0.063424 0.503941 0.000000
N140  N     N_R   0.568825 0.014339 0.494033 0.000000
C489  C     C_R   0.537643 0.011807 0.475294 0.000000
C490  C     C_R   0.508639 0.970134 0.467366 0.000000
H277  H     H_    0.450472 0.026955 0.443433 0.000000
H278  H     H_    0.504204 0.100711 0.455512 0.000000
H279  H     H_    0.610721 0.078957 0.521266 0.000000
H280  H     H_    0.509707 0.933985 0.473064 0.000000
Br71  Br    Br    0.475215 0.944689 0.718368 0.000000
C491  C     C_R   0.496200 0.933872 0.661540 0.000000
C492  C     C_R   0.513389 0.973107 0.632460 0.000000
C493  C     C_R   0.528803 0.965882 0.591198 0.000000
C494  C     C_R   0.526222 0.918764 0.579290 0.000000
N141  N     N_R   0.542810 0.904443 0.544062 0.000000
C495  C     C_R   0.537268 0.856291 0.555437 0.000000
N142  N     N_R   0.517771 0.840653 0.595814 0.000000
C496  C     C_R   0.510779 0.880639 0.609258 0.000000
C497  C     C_R   0.495380 0.887239 0.650446 0.000000
H281  H     H_    0.515128 0.009819 0.642354 0.000000
H282  H     H_    0.543470 0.997309 0.570979 0.000000
H283  H     H_    0.551567 0.835799 0.538702 0.000000
H284  H     H_    0.482783 0.857444 0.673771 0.000000
Br72  Br    Br    0.624679 0.781315 0.335096 0.000000
C498  C     C_R   0.611135 0.828918 0.368065 0.000000
C499  C     C_R   0.610814 0.828899 0.417142 0.000000
C500  C     C_R   0.600687 0.862846 0.441834 0.000000
C501  C     C_R   0.591075 0.896024 0.416098 0.000000
N143  N     N_R   0.580206 0.931792 0.432162 0.000000
C502  C     C_R   0.575010 0.954071 0.391471 0.000000
N144  N     N_R   0.582018 0.932941 0.351245 0.000000
C503  C     C_R   0.592096 0.896667 0.368092 0.000000
C504  C     C_R   0.601747 0.863266 0.342886 0.000000
H285  H     H_    0.618375 0.801952 0.436183 0.000000
H286  H     H_    0.600231 0.862927 0.479838 0.000000
H287  H     H_    0.566651 0.985476 0.391074 0.000000
H288  H     H_    0.601900 0.863569 0.304855 0.000000
Br73  Br    Br    0.580838 0.365105 0.327173 0.000000
C505  C     C_R   0.573971 0.306122 0.361287 0.000000
C506  C     C_R   0.573498 0.306827 0.410260 0.000000
C507  C     C_R   0.569707 0.264713 0.435727 0.000000
C508  C     C_R   0.565803 0.222526 0.411005 0.000000
N145  N     N_R   0.565128 0.179037 0.428068 0.000000
C509  C     C_R   0.565045 0.152362 0.388109 0.000000
N146  N     N_R   0.565533 0.177814 0.347373 0.000000
C510  C     C_R   0.566333 0.221885 0.363047 0.000000
C511  C     C_R   0.570667 0.263293 0.337119 0.000000
H289  H     H_    0.576792 0.340784 0.428634 0.000000
H290  H     H_    0.570817 0.265593 0.473574 0.000000
H291  H     H_    0.566279 0.115853 0.388656 0.000000
H292  H     H_    0.572674 0.263122 0.299386 0.000000
Br74  Br    Br    0.713151 0.221596 0.385890 0.000000
C512  C     C_R   0.693651 0.234257 0.328138 0.000000
C513  C     C_R   0.716296 0.265334 0.295654 0.000000
C514  C     C_R   0.704218 0.271684 0.251330 0.000000
C515  C     C_R   0.669220 0.246483 0.240822 0.000000
N147  N     N_R   0.651593 0.246815 0.200418 0.000000
C516  C     C_R   0.618294 0.214534 0.209407 0.000000
N148  N     N_R   0.614240 0.196086 0.253805 0.000000
C517  C     C_R   0.646847 0.216352 0.272821 0.000000
C518  C     C_R   0.658117 0.209784 0.317208 0.000000
H293  H     H_    0.743928 0.283644 0.304676 0.000000
H294  H     H_    0.722284 0.294133 0.225770 0.000000
H295  H     H_    0.596901 0.204374 0.184599 0.000000
H296  H     H_    0.640409 0.184986 0.341926 0.000000
Br75  Br    Br    0.432801 0.916727 0.335873 0.000000
C519  C     C_R   0.475091 0.972489 0.328899 0.000000
C520  C     C_R   0.474849 0.019661 0.336258 0.000000
C521  C     C_R   0.504023 0.060445 0.324697 0.000000
C522  C     C_R   0.531652 0.052186 0.302854 0.000000
N149  N     N_R   0.560005 0.085076 0.282022 0.000000
C523  C     C_R   0.579385 0.056845 0.268576 0.000000
N150  N     N_R   0.563467 0.007845 0.279900 0.000000
C524  C     C_R   0.533109 0.006412 0.299892 0.000000
C525  C     C_R   0.505257 0.965656 0.313052 0.000000
H297  H     H_    0.451213 0.024552 0.349165 0.000000
H298  H     H_    0.503399 0.097120 0.328378 0.000000
H299  H     H_    0.604936 0.072161 0.252131 0.000000
H300  H     H_    0.505525 0.929320 0.307419 0.000000
Br76  Br    Br    0.380351 0.099174 0.174726 0.000000
C526  C     C_R   0.429226 0.119193 0.191725 0.000000
C527  C     C_R   0.442103 0.086906 0.214988 0.000000
C528  C     C_R   0.477026 0.102161 0.230336 0.000000
C529  C     C_R   0.497922 0.150571 0.224289 0.000000
N151  N     N_R   0.531815 0.175137 0.238523 0.000000
C530  C     C_R   0.539372 0.219812 0.216683 0.000000
N152  N     N_R   0.512097 0.223063 0.189669 0.000000
C531  C     C_R   0.486058 0.180013 0.196834 0.000000
C532  C     C_R   0.451948 0.165747 0.180181 0.000000
H301  H     H_    0.424757 0.049413 0.221000 0.000000
H302  H     H_    0.487384 0.075900 0.244059 0.000000
H303  H     H_    0.564727 0.249241 0.219062 0.000000
H304  H     H_    0.442658 0.190791 0.160860 0.000000
Br77  Br    Br    0.498536 0.614997 0.305716 0.000000
C533  C     C_R   0.451084 0.574625 0.290141 0.000000
C534  C     C_R   0.434071 0.532475 0.315746 0.000000
C535  C     C_R   0.399636 0.503180 0.304730 0.000000
C536  C     C_R   0.382394 0.517784 0.268893 0.000000
N153  N     N_R   0.350039 0.492726 0.250423 0.000000
C537  C     C_R   0.351195 0.515056 0.207572 0.000000
N154  N     N_R   0.382300 0.554170 0.200505 0.000000
C538  C     C_R   0.400524 0.555859 0.240708 0.000000
C539  C     C_R   0.434505 0.586027 0.251590 0.000000
H305  H     H_    0.447988 0.521947 0.343969 0.000000
H306  H     H_    0.388259 0.468311 0.321935 0.000000
H307  H     H_    0.332070 0.498968 0.179835 0.000000
H308  H     H_    0.447766 0.618926 0.232388 0.000000
Br78  Br    Br    0.375475 0.517439 0.934077 0.000000
C540  C     C_R   0.388249 0.490877 0.989650 0.000000
C541  C     C_R   0.387936 0.442910 0.989255 0.000000
C542  C     C_R   0.395930 0.422173 0.029627 0.000000
C543  C     C_R   0.404698 0.450679 0.069599 0.000000
N155  N     N_R   0.410648 0.437179 0.113402 0.000000
C544  C     C_R   0.415244 0.479019 0.139413 0.000000
N156  N     N_R   0.411764 0.517044 0.113496 0.000000
C545  C     C_R   0.405316 0.498033 0.069752 0.000000
C546  C     C_R   0.396915 0.519028 0.030365 0.000000
H309  H     H_    0.380834 0.421292 0.957263 0.000000
H310  H     H_    0.395033 0.384862 0.029241 0.000000
H311  H     H_    0.418535 0.480622 0.177266 0.000000
H312  H     H_    0.396635 0.555923 0.030980 0.000000
Br79  Br    Br    0.061649 0.850506 0.548931 0.000000
C547  C     C_R   0.019928 0.798444 0.567961 0.000000
C548  C     C_R   0.019812 0.750842 0.570387 0.000000
C549  C     C_R   0.990226 0.713284 0.586129 0.000000
C550  C     C_R   0.960560 0.723977 0.596885 0.000000
N157  N     N_R   0.930996 0.693988 0.617851 0.000000
C551  C     C_R   0.913767 0.725453 0.629794 0.000000
N158  N     N_R   0.931656 0.773356 0.616051 0.000000
C552  C     C_R   0.960636 0.770595 0.594806 0.000000
C553  C     C_R   0.990565 0.808877 0.581472 0.000000
H313  H     H_    0.043384 0.743353 0.561521 0.000000
H314  H     H_    0.991378 0.677274 0.591273 0.000000
H315  H     H_    0.891779 0.714968 0.653688 0.000000
H316  H     H_    0.992250 0.846378 0.582180 0.000000
Br80  Br    Br    0.930943 0.854498 0.875719 0.000000
C554  C     C_R   0.946511 0.860708 0.939621 0.000000
C555  C     C_R   0.928203 0.877193 0.972729 0.000000
C556  C     C_R   0.935444 0.875622 0.020137 0.000000
C557  C     C_R   0.960536 0.856279 0.033248 0.000000
N159  N     N_R   0.966195 0.841778 0.076608 0.000000
C558  C     C_R   0.990989 0.820096 0.068536 0.000000
N160  N     N_R   0.999913 0.819627 0.021854 0.000000
C559  C     C_R   0.980162 0.842714 0.000655 0.000000
C560  C     C_R   0.973937 0.845372 0.953224 0.000000
H317  H     H_    0.907190 0.889639 0.961466 0.000000
H318  H     H_    0.920934 0.888058 0.045544 0.000000
H319  H     H_    0.999442 0.800204 0.095319 0.000000
H320  H     H_    0.988726 0.834171 0.927146 0.000000
Br81  Br    Br    0.850450 0.642631 0.318902 0.000000
C561  C     C_R   0.873137 0.684416 0.268096 0.000000
C562  C     C_R   0.873870 0.732711 0.266695 0.000000
C563  C     C_R   0.890323 0.763769 0.230110 0.000000
C564  C     C_R   0.905891 0.745170 0.195926 0.000000
N161  N     N_R   0.923098 0.767943 0.157293 0.000000
C565  C     C_R   0.932033 0.731952 0.135611 0.000000
N162  N     N_R   0.921786 0.688478 0.159717 0.000000
C566  C     C_R   0.905093 0.697841 0.197330 0.000000
C567  C     C_R   0.888739 0.666324 0.232858 0.000000
H321  H     H_    0.861402 0.746100 0.294405 0.000000
H322  H     H_    0.890705 0.801047 0.228555 0.000000
H323  H     H_    0.945030 0.736952 0.102282 0.000000
H324  H     H_    0.888046 0.628820 0.233367 0.000000
Br82  Br    Br    0.138746 0.092127 0.310366 0.000000
C568  C     C_R   0.139654 0.156266 0.325840 0.000000
C569  C     C_R   0.171761 0.195617 0.324998 0.000000
C570  C     C_R   0.174206 0.241597 0.341336 0.000000
C571  C     C_R   0.144065 0.246452 0.358738 0.000000
N163  N     N_R   0.141102 0.286146 0.380041 0.000000
C572  C     C_R   0.106444 0.268427 0.395067 0.000000
N164  N     N_R   0.087154 0.220881 0.380381 0.000000
C573  C     C_R   0.112174 0.208024 0.358522 0.000000
C574  C     C_R   0.109050 0.162540 0.341285 0.000000
H325  H     H_    0.195309 0.189792 0.313025 0.000000
H326  H     H_    0.199320 0.271783 0.342586 0.000000
H327  H     H_    0.095606 0.290222 0.416495 0.000000
H328  H     H_    0.084230 0.131872 0.342851 0.000000
Br83  Br    Br    0.872604 0.259438 0.420061 0.000000
C575  C     C_R   0.915526 0.248163 0.409326 0.000000
C576  C     C_R   0.915007 0.200115 0.406916 0.000000
C577  C     C_R   0.945891 0.190840 0.399657 0.000000
C578  C     C_R   0.976760 0.230498 0.395940 0.000000
N165  N     N_R   0.009531 0.230548 0.387768 0.000000
C579  C     C_R   0.028482 0.279025 0.380926 0.000000
N166  N     N_R   0.009904 0.309476 0.387363 0.000000
C580  C     C_R   0.977069 0.277669 0.396341 0.000000
C581  C     C_R   0.946757 0.287719 0.403035 0.000000
H329  H     H_    0.890160 0.169710 0.410062 0.000000
H330  H     H_    0.945262 0.153839 0.394985 0.000000
H331  H     H_    0.054310 0.290898 0.367864 0.000000
H332  H     H_    0.946950 0.324824 0.402682 0.000000
Br84  Br    Br    0.079229 0.678616 0.206969 0.000000
C582  C     C_R   0.056322 0.691555 0.152352 0.000000
C583  C     C_R   0.074548 0.729869 0.122695 0.000000
C584  C     C_R   0.058175 0.739447 0.082946 0.000000
C585  C     C_R   0.023889 0.709380 0.073371 0.000000
N167  N     N_R   0.002716 0.714338 0.038459 0.000000
C586  C     C_R   0.969947 0.681328 0.050989 0.000000
N168  N     N_R   0.970550 0.656282 0.091992 0.000000
C587  C     C_R   0.005225 0.673878 0.104052 0.000000
C588  C     C_R   0.021205 0.663620 0.143521 0.000000
H333  H     H_    0.101598 0.752628 0.130913 0.000000
H334  H     H_    0.071809 0.770675 0.061335 0.000000
H335  H     H_    0.945574 0.680324 0.034487 0.000000
H336  H     H_    0.007801 0.633869 0.166501 0.000000
Br85  Br    Br    0.275308 0.632663 0.629686 0.000000
C589  C     C_R   0.291140 0.583949 0.603141 0.000000
C590  C     C_R   0.269234 0.549403 0.571878 0.000000
C591  C     C_R   0.280972 0.515855 0.549333 0.000000
C592  C     C_R   0.314481 0.517171 0.559870 0.000000
N169  N     N_R   0.332027 0.490005 0.540799 0.000000
C593  C     C_R   0.365495 0.511771 0.559326 0.000000
N170  N     N_R   0.368538 0.548301 0.591413 0.000000
C594  C     C_R   0.336154 0.551570 0.590187 0.000000
C595  C     C_R   0.325043 0.585068 0.612918 0.000000
H337  H     H_    0.243064 0.549590 0.564283 0.000000
H338  H     H_    0.264861 0.491380 0.522798 0.000000
H339  H     H_    0.387701 0.501935 0.549492 0.000000
H340  H     H_    0.342505 0.612832 0.635803 0.000000
Br86  Br    Br    0.373920 0.203130 0.283271 0.000000
C596  C     C_R   0.361392 0.259903 0.274788 0.000000
C597  C     C_R   0.341980 0.273119 0.309236 0.000000
C598  C     C_R   0.332855 0.314545 0.303985 0.000000
C599  C     C_R   0.343668 0.341631 0.263843 0.000000
N171  N     N_R   0.338917 0.383576 0.251699 0.000000
C600  C     C_R   0.355774 0.394666 0.209127 0.000000
N172  N     N_R   0.371417 0.362132 0.195185 0.000000
C601  C     C_R   0.362879 0.328782 0.230163 0.000000
C602  C     C_R   0.372011 0.287858 0.234487 0.000000
H341  H     H_    0.333996 0.250856 0.340477 0.000000
H342  H     H_    0.317695 0.324935 0.330382 0.000000
H343  H     H_    0.357026 0.426361 0.188791 0.000000
H344  H     H_    0.387161 0.277990 0.207661 0.000000
Br87  Br    Br    0.441532 0.996971 0.587008 0.000000
C603  C     C_R   0.462942 0.066868 0.588718 0.000000
C604  C     C_R   0.447420 0.094055 0.614757 0.000000
C605  C     C_R   0.463005 0.144653 0.617060 0.000000
C606  C     C_R   0.492680 0.166772 0.590633 0.000000
N173  N     N_R   0.513120 0.214534 0.590072 0.000000
C607  C     C_R   0.538753 0.216453 0.558119 0.000000
N174  N     N_R   0.535349 0.171512 0.539585 0.000000
C608  C     C_R   0.506558 0.140666 0.562100 0.000000
C609  C     C_R   0.493549 0.090076 0.563585 0.000000
H345  H     H_    0.423515 0.075510 0.634223 0.000000
H346  H     H_    0.451260 0.165765 0.637629 0.000000
H347  H     H_    0.561000 0.249599 0.551141 0.000000
H348  H     H_    0.507023 0.068329 0.548029 0.000000
Br88  Br    Br    0.729403 0.380538 0.445952 0.000000
C610  C     C_R   0.694650 0.321283 0.467774 0.000000
C611  C     C_R   0.672104 0.288990 0.435728 0.000000
C612  C     C_R   0.646951 0.245624 0.450869 0.000000
C613  C     C_R   0.643425 0.237411 0.498443 0.000000
N175  N     N_R   0.617186 0.202658 0.520952 0.000000
C614  C     C_R   0.624726 0.214085 0.567371 0.000000
N176  N     N_R   0.654072 0.255508 0.574460 0.000000
C615  C     C_R   0.665342 0.269147 0.530181 0.000000
C616  C     C_R   0.691861 0.311107 0.515408 0.000000
H349  H     H_    0.674630 0.297416 0.398584 0.000000
H350  H     H_    0.630985 0.219401 0.425656 0.000000
H351  H     H_    0.607007 0.194984 0.594751 0.000000
H352  H     H_    0.710105 0.336117 0.539159 0.000000
Br89  Br    Br    0.789194 0.429823 0.882018 0.000000
C617  C     C_R   0.804221 0.416806 0.942587 0.000000
C618  C     C_R   0.817754 0.455036 0.974397 0.000000
C619  C     C_R   0.825337 0.445775 0.020038 0.000000
C620  C     C_R   0.817964 0.397724 0.033484 0.000000
N177  N     N_R   0.817620 0.380200 0.077450 0.000000
C621  C     C_R   0.803234 0.330143 0.070786 0.000000
N178  N     N_R   0.793669 0.316162 0.024653 0.000000
C622  C     C_R   0.804390 0.359911 0.002142 0.000000
C623  C     C_R   0.799079 0.369069 0.955765 0.000000
H353  H     H_    0.821738 0.492282 0.963733 0.000000
H354  H     H_    0.835534 0.476025 0.043765 0.000000
H355  H     H_    0.796184 0.305628 0.100237 0.000000
H356  H     H_    0.791186 0.340653 0.929844 0.000000
Br90  Br    Br    0.807307 0.111072 0.184520 0.000000
C624  C     C_R   0.791216 0.135860 0.130219 0.000000
C625  C     C_R   0.784377 0.179344 0.132495 0.000000
C626  C     C_R   0.775338 0.199109 0.092332 0.000000
C627  C     C_R   0.775769 0.176429 0.050306 0.000000
N179  N     N_R   0.768695 0.189984 0.007284 0.000000
C628  C     C_R   0.766889 0.150045 0.979756 0.000000
N180  N     N_R   0.773004 0.113193 0.004694 0.000000
C629  C     C_R   0.779199 0.131717 0.048615 0.000000
C630  C     C_R   0.786381 0.110040 0.088388 0.000000
H357  H     H_    0.785894 0.197785 0.165688 0.000000
H358  H     H_    0.766965 0.230095 0.094193 0.000000
H359  H     H_    0.758780 0.146421 0.943176 0.000000
H360  H     H_    0.789081 0.074705 0.087732 0.000000
Br91  Br    Br    0.667314 0.367571 0.940310 0.000000
C631  C     C_R   0.692933 0.333344 0.908290 0.000000
C632  C     C_R   0.695587 0.335895 0.859536 0.000000
C633  C     C_R   0.715006 0.312490 0.835910 0.000000
C634  C     C_R   0.730608 0.285998 0.862084 0.000000
N181  N     N_R   0.751870 0.262640 0.846857 0.000000
C635  C     C_R   0.761868 0.245722 0.887817 0.000000
N182  N     N_R   0.747756 0.258423 0.927482 0.000000
C636  C     C_R   0.727800 0.283085 0.909791 0.000000
C637  C     C_R   0.709532 0.307220 0.933980 0.000000
H361  H     H_    0.683078 0.357259 0.840014 0.000000
H362  H     H_    0.718545 0.316473 0.798451 0.000000
H363  H     H_    0.779625 0.225416 0.888996 0.000000
H364  H     H_    0.708624 0.307109 0.971685 0.000000
Br92  Br    Br    0.648588 0.049560 0.031049 0.000000
C638  C     C_R   0.656826 0.115011 0.051205 0.000000
C639  C     C_R   0.635633 0.123739 0.085828 0.000000
C640  C     C_R   0.641124 0.171204 0.100813 0.000000
C641  C     C_R   0.668095 0.208815 0.080631 0.000000
N183  N     N_R   0.679135 0.257270 0.090536 0.000000
C642  C     C_R   0.706242 0.277087 0.059636 0.000000
N184  N     N_R   0.713671 0.242618 0.033524 0.000000
C643  C     C_R   0.688707 0.200142 0.046627 0.000000
C644  C     C_R   0.683698 0.153524 0.030956 0.000000
H365  H     H_    0.614530 0.093223 0.100964 0.000000
H366  H     H_    0.624163 0.178020 0.126540 0.000000
H367  H     H_    0.720927 0.315941 0.056418 0.000000
H368  H     H_    0.699475 0.146852 0.003205 0.000000

loop_
_geom_bond_atom_site_label_1
_geom_bond_atom_site_label_2
_geom_bond_distance
_geom_bond_site_symmetry_2
_ccdc_geom_bond_type
Zn1   N2    2.055 .      S
Zn1   N4    2.022 .      S
Zn1   N24   2.040 .      S
Zn1   N115  2.020 .      S
Zn2   N10   2.031 .      S
Zn2   N29   2.032 .      S
Zn2   N147  2.002 .      S
Zn2   N183  1.994 .      S
Zn3   N6    2.040 .      S
Zn3   N57   2.008 .      S
Zn3   N134  2.043 .      S
Zn3   N142  2.034 .      S
Zn4   N7    2.049 .      S
Zn4   N9    2.014 .      S
Zn4   N128  2.000 .      S
Zn4   N177  2.041 .      S
Zn5   N12   2.008 .      S
Zn5   N68   2.006 .      S
Zn5   N100  2.015 .      S
Zn5   N173  1.984 .      S
Zn6   N14   2.049 .      S
Zn6   N16   2.030 .      S
Zn6   N17   2.022 .      S
Zn6   N89   2.041 .      S
Zn7   N18   2.018 1_556  S
Zn7   N20   1.990 1_556  S
Zn7   N80   2.021 .      S
Zn7   N180  2.019 1_556  S
Zn8   N21   1.985 .      S
Zn8   N23   2.032 .      S
Zn8   N81   1.992 .      S
Zn8   N181  2.014 .      S
Zn9   N26   1.999 .      S
Zn9   N27   2.021 .      S
Zn9   N144  2.026 .      S
Zn9   N150  2.026 1_565  S
Zn10  N30   2.017 .      S
Zn10  N31   2.029 .      S
Zn10  N103  2.013 .      S
Zn10  N152  1.989 .      S
Zn11  N37   2.090 .      S
Zn11  N41   2.075 .      S
Zn11  N106  2.066 .      S
Zn11  N163  2.080 .      S
Zn12  N3    2.034 .      S
Zn12  N11   2.020 .      S
Zn12  N22   2.003 .      S
Zn12  N176  2.009 .      S
Zn13  N15   2.031 .      S
Zn13  N19   2.024 .      S
Zn13  N25   2.021 .      S
Zn13  N36   2.025 .      S
Zn14  N47   2.124 .      S
Zn14  N56   1.980 1_455  S
Zn14  N160  2.043 1_456  S
Zn14  N167  2.049 1_556  S
Zn15  N28   2.032 .      S
Zn15  N34   2.047 .      S
Zn15  N35   2.026 .      S
Zn15  N114  2.018 .      S
Zn16  N38   2.062 .      S
Zn16  N39   1.992 .      S
Zn16  N153  2.031 .      S
Zn16  N171  2.015 .      S
Zn17  N40   1.991 .      S
Zn17  N42   2.070 .      S
Zn17  N72   2.033 .      S
Zn17  N169  2.045 .      S
Zn18  N44   2.096 .      S
Zn18  N45   2.071 .      S
Zn18  N48   2.097 .      S
Zn18  N50   2.087 .      S
Zn19  N46   2.080 .      S
Zn19  N52   2.007 1_455  S
Zn19  N54   2.053 .      S
Zn19  N55   1.991 1_455  S
Zn20  N58   2.031 .      S
Zn20  N59   1.946 .      S
Zn20  N62   1.988 .      S
Zn20  N63   2.009 .      S
Zn21  N66   2.046 .      S
Zn21  N67   2.031 .      S
Zn21  N70   2.017 .      S
Zn21  N71   2.045 .      S
Zn22  N49   2.097 1_545  S
Zn22  N73   2.049 .      S
Zn22  N75   2.044 .      S
Zn22  N77   2.021 1_545  S
Zn23  N61   1.968 .      S
Zn23  N79   2.023 .      S
Zn23  N82   1.979 .      S
Zn23  N88   2.039 .      S
Zn24  N64   2.034 .      S
Zn24  N84   2.020 .      S
Zn24  N86   2.018 .      S
Zn24  N87   2.021 .      S
Zn25  N90   1.996 .      S
Zn25  N92   2.012 .      S
Zn25  N93   2.044 1_565  S
Zn25  N96   2.045 .      S
Zn26  N65   2.026 .      S
Zn26  N74   2.063 .      S
Zn26  N98   1.989 .      S
Zn26  N99   2.021 .      S
Zn27  N76   2.070 .      S
Zn27  N97   2.003 .      S
Zn27  N101  2.028 1_556  S
Zn27  N104  1.991 1_556  S
Zn28  N105  2.106 .      S
Zn28  N120  2.052 .      S
Zn28  N130  2.024 .      S
Zn28  N166  2.012 .      S
Zn29  N107  2.033 .      S
Zn29  N110  2.026 1_554  S
Zn29  N112  1.963 1_554  S
Zn29  N113  1.992 .      S
Zn30  N116  2.015 .      S
Zn30  N117  2.039 .      S
Zn30  N119  2.047 .      S
Zn30  N122  1.985 .      S
Zn31  N43   2.086 .      S
Zn31  N78   1.999 .      S
Zn31  N109  2.019 .      S
Zn31  N135  2.073 .      S
Zn32  N85   2.014 .      S
Zn32  N91   1.988 .      S
Zn32  N124  2.035 .      S
Zn32  N126  2.063 1_565  S
Zn33  N121  1.979 .      S
Zn33  N127  1.995 .      S
Zn33  N129  2.059 .      S
Zn33  N131  2.014 .      S
Zn34  N111  1.997 .      S
Zn34  N133  2.014 .      S
Zn34  N136  2.045 .      S
Zn34  N138  2.016 .      S
Zn35  N60   1.942 .      S
Zn35  N140  1.972 1_565  S
Zn35  N141  2.053 .      S
Zn35  N143  2.019 .      S
Zn36  N146  2.007 .      S
Zn36  N148  1.977 .      S
Zn36  N149  2.018 .      S
Zn36  N151  2.058 .      S
Zn37  N51   2.015 .      S
Zn37  N83   2.013 .      S
Zn37  N123  2.035 .      S
Zn37  N158  2.015 .      S
Zn38  N33   2.007 .      S
Zn38  N108  2.037 .      S
Zn38  N154  2.017 .      S
Zn38  N156  2.027 .      S
Zn39  N1    2.024 .      S
Zn39  N53   2.038 .      S
Zn39  N118  2.045 .      S
Zn39  N157  2.014 .      S
Zn40  N13   2.010 .      S
Zn40  N95   2.042 .      S
Zn40  N159  2.061 .      S
Zn40  N161  2.010 .      S
Zn41  N94   2.021 .      S
Zn41  N125  2.052 .      S
Zn41  N164  2.114 .      S
Zn41  N165  2.000 .      S
Zn42  N8    2.053 .      S
Zn42  N132  2.030 .      S
Zn42  N162  2.010 .      S
Zn42  N168  2.049 .      S
Zn43  N5    2.029 .      S
Zn43  N69   2.019 .      S
Zn43  N137  2.001 .      S
Zn43  N170  2.022 .      S
Zn44  N32   2.038 .      S
Zn44  N102  2.060 .      S
Zn44  N155  2.050 .      S
Zn44  N172  2.039 .      S
Zn45  N139  1.968 .      S
Zn45  N145  2.010 .      S
Zn45  N174  2.019 .      S
Zn45  N175  1.978 .      S
Zn46  N178  2.076 1_556  S
Zn46  N179  2.034 1_556  S
Zn46  N182  2.030 .      S
Zn46  N184  1.979 1_556  S
Br1   C1    1.904 .      S
C2    H1    1.081 .      S
C3    H2    1.081 .      S
C5    H3    1.069 .      S
C7    H4    1.081 .      S
Br2   C8    1.905 .      S
C9    H5    1.081 .      S
C10   H6    1.080 .      S
C12   H7    1.067 .      S
C14   H8    1.080 .      S
Br3   C15   1.907 .      S
C16   H9    1.081 .      S
C17   H10   1.079 .      S
C19   H11   1.078 .      S
C21   H12   1.075 .      S
Br4   C22   1.901 .      S
C23   H13   1.081 .      S
C24   H14   1.076 .      S
C26   H15   1.076 .      S
C28   H16   1.074 .      S
Br5   C29   1.904 .      S
C30   H17   1.081 .      S
C31   H18   1.081 .      S
C33   H19   1.062 .      S
C35   H20   1.081 .      S
Br6   C36   1.904 .      S
C37   H21   1.081 .      S
C38   H22   1.079 .      S
C40   H23   1.073 .      S
C42   H24   1.080 .      S
Br7   C43   1.897 .      S
C44   H25   1.081 .      S
C45   H26   1.081 .      S
C47   H27   1.056 .      S
C49   H28   1.081 .      S
Br8   C50   1.904 .      S
C51   H29   1.080 .      S
C52   H30   1.080 .      S
C54   H31   1.069 .      S
C56   H32   1.080 .      S
Br9   C57   1.905 .      S
C58   H33   1.081 .      S
C59   H34   1.077 .      S
C61   H35   1.078 .      S
N18   Zn7   2.018 1_554  S
C63   H36   1.081 1_554  S
H36   C63   1.081 1_556  S
Br10  C64   1.898 .      S
C65   H37   1.081 .      S
C66   H38   1.068 .      S
C68   H39   1.070 1_565  S
N20   Zn7   1.990 1_554  S
C70   H40   1.075 .      S
H39   C68   1.070 1_545  S
Br11  C71   1.906 .      S
C72   H41   1.080 .      S
C73   H42   1.080 .      S
C75   H43   1.073 .      S
C77   H44   1.075 .      S
Br12  C78   1.905 .      S
C79   H45   1.081 .      S
C80   H46   1.079 .      S
C82   H47   1.073 .      S
C84   H48   1.077 .      S
Br13  C85   1.891 .      S
C86   H49   1.077 .      S
C87   H50   1.075 .      S
C89   H51   1.076 .      S
C91   H52   1.080 .      S
Br14  C92   1.905 .      S
C93   H53   1.081 .      S
C94   H54   1.075 .      S
C96   H55   1.075 .      S
C98   H56   1.072 .      S
Br15  C99   1.906 .      S
C100  H57   1.081 .      S
C101  H58   1.078 .      S
C103  H59   1.071 .      S
C105  H60   1.079 .      S
Br16  C106  1.906 .      S
C107  H61   1.081 .      S
C108  H62   1.079 .      S
C110  H63   1.073 .      S
C112  H64   1.079 .      S
Br17  C113  1.904 .      S
C114  H65   1.081 .      S
C115  H66   1.078 .      S
C117  H67   1.071 .      S
C119  H68   1.078 .      S
Br18  C120  1.900 .      S
C121  H69   1.081 .      S
C122  H70   1.080 .      S
C124  H71   1.063 .      S
C126  H72   1.081 .      S
Br19  C127  1.905 .      S
C128  H73   1.080 .      S
C129  H74   1.080 .      S
C131  H75   1.075 .      S
C133  H76   1.081 .      S
Br20  C134  1.905 .      S
C135  H77   1.081 .      S
C136  H78   1.075 .      S
C138  H79   1.080 .      S
C140  H80   1.063 .      S
Br21  C141  1.905 .      S
C142  H81   1.080 .      S
C143  H82   1.081 .      S
C145  H83   1.071 .      S
C147  H84   1.081 .      S
Br22  C148  1.905 .      S
C149  H85   1.081 .      S
C150  H86   1.074 .      S
C152  H87   1.081 .      S
C154  H88   1.067 .      S
Br23  C155  1.906 .      S
C156  H89   1.081 .      S
C157  H90   1.080 .      S
C159  H91   1.079 .      S
C161  H92   1.079 .      S
Br24  C162  1.905 .      S
C163  H93   1.081 .      S
C164  H94   1.073 .      S
C166  H95   1.081 .      S
C168  H96   1.071 .      S
Br25  C169  1.905 .      S
C170  H97   1.081 .      S
C171  H98   1.081 .      S
N49   Zn22  2.097 1_565  S
C173  H99   1.072 .      S
C175  H100  1.081 .      S
Br26  C176  1.906 .      S
C177  H101  1.081 .      S
C178  H102  1.081 .      S
C180  H103  1.072 .      S
N52   Zn19  2.007 1_655  S
C182  H104  1.081 .      S
Br27  C183  1.906 .      S
C184  H105  1.081 .      S
C185  H106  1.077 .      S
C187  H107  1.079 .      S
C189  H108  1.079 .      S
Br28  C190  1.906 .      S
C191  H109  1.081 .      S
C192  H110  1.078 .      S
N55   Zn19  1.991 1_655  S
C194  H111  1.067 .      S
N56   Zn14  1.980 1_655  S
C196  H112  1.078 .      S
Br29  C197  1.905 .      S
C198  H113  1.081 .      S
C199  H114  1.080 .      S
C201  H115  1.080 .      S
C203  H116  1.078 .      S
Br30  C204  1.903 .      S
C205  H117  1.078 .      S
C206  H118  1.079 .      S
C208  H119  1.070 .      S
C210  H120  1.080 .      S
Br31  C211  1.906 .      S
C212  H121  1.081 .      S
C213  H122  1.081 .      S
C215  H123  1.074 .      S
C217  H124  1.074 .      S
Br32  C218  1.901 .      S
C219  H125  1.081 .      S
C220  H126  1.079 .      S
C222  H127  1.070 .      S
C224  H128  1.078 .      S
Br33  C225  1.906 .      S
C226  H129  1.081 .      S
C227  H130  1.081 .      S
C229  H131  1.065 .      S
C231  H132  1.080 .      S
Br34  C232  1.906 .      S
C233  H133  1.081 .      S
C234  H134  1.073 .      S
C236  H135  1.073 .      S
C238  H136  1.075 .      S
Br35  C239  1.906 .      S
C240  H137  1.081 .      S
C241  H138  1.081 .      S
C243  H139  1.075 .      S
C245  H140  1.080 .      S
Br36  C246  1.905 .      S
C247  H141  1.078 .      S
C248  H142  1.080 .      S
C250  H143  1.070 .      S
C252  H144  1.078 .      S
Br37  C253  1.903 .      S
C254  H145  1.081 .      S
C255  H146  1.080 .      S
C257  H147  1.079 .      S
C259  H148  1.080 .      S
Br38  C260  1.905 .      S
C261  H149  1.079 1_545  S
C262  H150  1.080 1_545  S
C264  H151  1.071 .      S
C266  H152  1.075 .      S
H149  C261  1.079 1_565  S
H150  C262  1.080 1_565  S
Br39  C267  1.899 .      S
C268  H153  1.078 .      S
C269  H154  1.080 .      S
N77   Zn22  2.021 1_565  S
C271  H155  1.076 .      S
C273  H156  1.080 .      S
Br40  C274  1.903 .      S
C275  H157  1.081 .      S
C276  H158  1.076 .      S
C278  H159  1.080 .      S
C280  H160  1.079 .      S
Br41  C281  1.905 .      S
C282  H161  1.081 .      S
C283  H162  1.071 .      S
C285  H163  1.080 .      S
C287  H164  1.080 .      S
Br42  C288  1.905 .      S
C289  H165  1.081 .      S
C290  H166  1.077 .      S
C292  H167  1.077 .      S
C294  H168  1.079 .      S
Br43  C295  1.903 .      S
C296  H169  1.080 .      S
C297  H170  1.070 .      S
C299  H171  1.070 .      S
C301  H172  1.081 .      S
Br44  C302  1.905 .      S
C303  H173  1.081 .      S
C304  H174  1.079 .      S
C306  H175  1.068 .      S
C308  H176  1.067 .      S
Br45  C309  1.907 .      S
C310  H177  1.081 .      S
C311  H178  1.075 .      S
C313  H179  1.069 .      S
C315  H180  1.081 .      S
Br46  C316  1.905 .      S
C317  H181  1.081 .      S
C318  H182  1.080 .      S
C320  H183  1.075 1_565  S
C322  H184  1.080 .      S
H183  C320  1.075 1_545  S
Br47  C323  1.904 .      S
C324  H185  1.081 .      S
C325  H186  1.081 1_455  S
N93   Zn25  2.044 1_545  S
C327  H187  1.069 .      S
C329  H188  1.081 .      S
H186  C325  1.081 1_655  S
Br48  C330  1.901 1_545  S
C330  Br48  1.901 1_565  S
C331  H189  1.081 .      S
C332  H190  1.075 .      S
C334  H191  1.080 .      S
C336  H192  1.077 1_565  S
H192  C336  1.077 1_545  S
Br49  C337  1.905 .      S
C338  H193  1.081 .      S
C339  H194  1.079 .      S
C341  H195  1.065 .      S
C343  H196  1.080 .      S
Br50  C344  1.907 .      S
C345  H197  1.077 .      S
C346  H198  1.080 .      S
C348  H199  1.079 .      S
C350  H200  1.075 .      S
Br51  C351  1.905 .      S
C352  H201  1.081 .      S
C353  H202  1.077 .      S
N101  Zn27  2.028 1_554  S
C355  H203  1.078 .      S
C357  H204  1.074 .      S
Br52  C358  1.905 .      S
C359  H205  1.081 .      S
C360  H206  1.073 .      S
C362  H207  1.075 .      S
N104  Zn27  1.991 1_554  S
C364  H208  1.081 .      S
Br53  C365  1.904 .      S
C366  H209  1.081 .      S
C367  H210  1.080 .      S
C369  H211  1.072 .      S
C371  H212  1.081 .      S
Br54  C372  1.906 .      S
C373  H213  1.081 .      S
C374  H214  1.077 .      S
C376  H215  1.081 .      S
C378  H216  1.071 .      S
Br55  C379  1.905 .      S
C380  H217  1.081 .      S
C381  H218  1.081 .      S
C383  H219  1.078 .      S
N110  Zn29  2.026 1_556  S
C385  H220  1.081 .      S
Br56  C386  1.905 .      S
C387  H221  1.081 .      S
C388  H222  1.067 .      S
C390  H223  1.075 .      S
N112  Zn29  1.963 1_556  S
C392  H224  1.066 .      S
Br57  C393  1.901 .      S
C394  H225  1.081 .      S
C395  H226  1.077 .      S
C397  H227  1.061 .      S
C399  H228  1.079 .      S
Br58  C400  1.905 .      S
C401  H229  1.081 .      S
C402  H230  1.073 .      S
C404  H231  1.074 .      S
C406  H232  1.079 .      S
Br59  C407  1.905 .      S
C408  H233  1.080 .      S
C409  H234  1.071 .      S
C411  H235  1.079 .      S
C413  H236  1.069 .      S
Br60  C414  1.905 .      S
C415  H237  1.081 .      S
C416  H238  1.080 1_455  S
C418  H239  1.077 .      S
C420  H240  1.080 .      S
H238  C416  1.080 1_655  S
Br61  C421  1.905 .      S
C422  H241  1.081 .      S
C423  H242  1.080 .      S
C425  H243  1.059 .      S
C427  H244  1.081 .      S
Br62  C428  1.905 .      S
C429  H245  1.081 1_565  S
C430  H246  1.072 .      S
C432  H247  1.081 .      S
C434  H248  1.075 .      S
H245  C429  1.081 1_545  S
Br63  C435  1.905 1_565  S
C435  Br63  1.905 1_545  S
C436  H249  1.081 .      S
C437  H250  1.072 .      S
C439  H251  1.067 .      S
N126  Zn32  2.063 1_545  S
C441  H252  1.075 1_545  S
H252  C441  1.075 1_565  S
Br64  C442  1.900 .      S
C443  H253  1.080 .      S
C444  H254  1.081 .      S
C446  H255  1.067 .      S
C448  H256  1.081 .      S
Br65  C449  1.907 .      S
C450  H257  1.081 .      S
C451  H258  1.078 .      S
C453  H259  1.073 1_655  S
C455  H260  1.079 1_655  S
H259  C453  1.073 1_455  S
H260  C455  1.079 1_455  S
Br66  C456  1.905 .      S
C457  H261  1.081 .      S
C458  H262  1.079 .      S
C460  H263  1.072 .      S
C462  H264  1.078 .      S
Br67  C463  1.904 .      S
C464  H265  1.081 .      S
C465  H266  1.068 .      S
C467  H267  1.081 .      S
C469  H268  1.068 .      S
Br68  C470  1.906 .      S
C471  H269  1.081 .      S
C472  H270  1.075 .      S
C474  H271  1.081 .      S
C476  H272  1.075 .      S
Br69  C477  1.905 .      S
C478  H273  1.081 .      S
C479  H274  1.074 .      S
C481  H275  1.081 .      S
C483  H276  1.074 .      S
Br70  C484  1.905 .      S
C485  H277  1.081 .      S
C486  H278  1.080 .      S
C488  H279  1.079 .      S
N140  Zn35  1.972 1_545  S
C490  H280  1.079 .      S
Br71  C491  1.905 .      S
C492  H281  1.081 1_565  S
C493  H282  1.067 .      S
C495  H283  1.078 .      S
C497  H284  1.069 .      S
H281  C492  1.081 1_545  S
Br72  C498  1.906 .      S
C499  H285  1.081 .      S
C500  H286  1.079 .      S
C502  H287  1.080 .      S
C504  H288  1.080 .      S
Br73  C505  1.905 .      S
C506  H289  1.081 .      S
C507  H290  1.075 .      S
C509  H291  1.080 .      S
C511  H292  1.075 .      S
Br74  C512  1.906 .      S
C513  H293  1.081 .      S
C514  H294  1.076 .      S
C516  H295  1.067 .      S
C518  H296  1.080 .      S
Br75  C519  1.904 .      S
C520  H297  1.081 .      S
C521  H298  1.080 .      S
C523  H299  1.079 .      S
N150  Zn9   2.026 1_545  S
C525  H300  1.072 .      S
Br76  C526  1.907 .      S
C527  H301  1.081 .      S
C528  H302  1.066 .      S
C530  H303  1.078 .      S
C532  H304  1.079 .      S
Br77  C533  1.906 .      S
C534  H305  1.081 .      S
C535  H306  1.073 .      S
C537  H307  1.081 .      S
C539  H308  1.068 .      S
Br78  C540  1.905 .      S
C541  H309  1.081 .      S
C542  H310  1.072 .      S
C544  H311  1.081 .      S
C546  H312  1.077 .      S
Br79  C547  1.905 .      S
C548  H313  1.081 .      S
C549  H314  1.074 .      S
C551  H315  1.077 .      S
C553  H316  1.068 .      S
Br80  C554  1.903 .      S
C555  H317  1.081 .      S
C556  H318  1.073 .      S
C558  H319  1.080 .      S
N160  Zn14  2.043 1_654  S
C560  H320  1.075 .      S
Br81  C561  1.906 .      S
C562  H321  1.081 .      S
C563  H322  1.079 .      S
C565  H323  1.071 .      S
C567  H324  1.081 .      S
Br82  C568  1.902 .      S
C569  H325  1.081 .      S
C570  H326  1.080 .      S
C572  H327  1.078 .      S
C574  H328  1.081 .      S
Br83  C575  1.902 .      S
C576  H329  1.081 .      S
C577  H330  1.075 .      S
C579  H331  1.047 .      S
C581  H332  1.076 .      S
Br84  C582  1.905 .      S
C583  H333  1.081 .      S
C584  H334  1.075 .      S
N167  Zn14  2.049 1_554  S
C586  H335  1.078 .      S
C588  H336  1.069 .      S
Br85  C589  1.905 .      S
C590  H337  1.079 .      S
C591  H338  1.077 .      S
C593  H339  1.072 .      S
C595  H340  1.076 .      S
Br86  C596  1.906 .      S
C597  H341  1.081 .      S
C598  H342  1.080 .      S
C600  H343  1.074 .      S
C602  H344  1.081 .      S
Br87  C603  1.905 1_565  S
C603  Br87  1.905 1_545  S
C604  H345  1.081 .      S
C605  H346  1.074 .      S
C607  H347  1.079 .      S
C609  H348  1.067 .      S
Br88  C610  1.903 .      S
C611  H349  1.081 .      S
C612  H350  1.073 .      S
C614  H351  1.074 .      S
C616  H352  1.066 .      S
Br89  C617  1.902 .      S
C618  H353  1.081 .      S
C619  H354  1.064 .      S
C621  H355  1.072 .      S
N178  Zn46  2.076 1_554  S
C623  H356  1.064 .      S
Br90  C624  1.908 .      S
C625  H357  1.074 .      S
C626  H358  1.070 .      S
N179  Zn46  2.034 1_554  S
C628  H359  1.080 .      S
N180  Zn7   2.019 1_554  S
C630  H360  1.071 .      S
Br91  C631  1.905 .      S
C632  H361  1.081 .      S
C633  H362  1.075 .      S
C635  H363  1.079 .      S
C637  H364  1.072 .      S
Br92  C638  1.898 .      S
C639  H365  1.081 .      S
C640  H366  1.071 .      S
C642  H367  1.078 .      S
N184  Zn46  1.979 1_554  S
C644  H368  1.077 .      S
C1    C2    1.394 .      A
C1    C7    1.387 .      A
C2    C3    1.386 .      A
C3    C4    1.370 .      A
C4    N1    1.344 .      A
C4    C6    1.370 .      A
N1    C5    1.373 .      A
C5    N2    1.372 .      A
N2    C6    1.349 .      A
C6    C7    1.371 .      A
C8    C9    1.393 .      A
C8    C14   1.385 .      A
C9    C10   1.386 .      A
C10   C11   1.372 .      A
C11   N3    1.350 .      A
C11   C13   1.368 .      A
N3    C12   1.366 .      A
C12   N4    1.369 .      A
N4    C13   1.345 .      A
C13   C14   1.371 .      A
C15   C16   1.393 .      A
C15   C21   1.386 .      A
C16   C17   1.386 .      A
C17   C18   1.371 .      A
C18   N5    1.344 .      A
C18   C20   1.368 .      A
N5    C19   1.375 .      A
C19   N6    1.375 .      A
N6    C20   1.348 .      A
C20   C21   1.370 .      A
C22   C23   1.389 .      A
C22   C28   1.385 .      A
C23   C24   1.381 .      A
C24   C25   1.370 .      A
C25   N7    1.344 .      A
C25   C27   1.367 .      A
N7    C26   1.377 .      A
C26   N8    1.376 .      A
N8    C27   1.352 .      A
C27   C28   1.374 .      A
C29   C30   1.394 .      A
C29   C35   1.387 .      A
C30   C31   1.385 .      A
C31   C32   1.371 .      A
C32   N9    1.345 .      A
C32   C34   1.368 .      A
N9    C33   1.365 .      A
C33   N10   1.369 .      A
N10   C34   1.348 .      A
C34   C35   1.371 .      A
C36   C37   1.391 .      A
C36   C42   1.388 .      A
C37   C38   1.383 .      A
C38   C39   1.370 .      A
C39   N11   1.347 .      A
C39   C41   1.367 .      A
N11   C40   1.369 .      A
C40   N12   1.369 .      A
N12   C41   1.345 .      A
C41   C42   1.372 .      A
C43   C44   1.392 .      A
C43   C49   1.388 .      A
C44   C45   1.382 .      A
C45   C46   1.368 .      A
C46   N13   1.340 .      A
C46   C48   1.370 .      A
N13   C47   1.363 .      A
C47   N14   1.372 .      A
N14   C48   1.350 .      A
C48   C49   1.371 .      A
C50   C51   1.393 .      A
C50   C56   1.386 .      A
C51   C52   1.386 .      A
C52   C53   1.371 .      A
C53   N15   1.346 .      A
C53   C55   1.369 .      A
N15   C54   1.372 .      A
C54   N16   1.369 .      A
N16   C55   1.346 .      A
C55   C56   1.371 .      A
C57   C58   1.393 .      A
C57   C63   1.385 .      A
C58   C59   1.386 .      A
C59   C60   1.370 .      A
C60   N17   1.347 1_545  A
C60   C62   1.366 .      A
N17   C60   1.347 1_565  A
N17   C61   1.373 .      A
C61   N18   1.370 1_565  A
N18   C61   1.370 1_545  A
N18   C62   1.345 .      A
C62   C63   1.371 .      A
C64   C65   1.386 .      A
C64   C70   1.380 .      A
C65   C66   1.382 1_556  A
C66   C65   1.382 1_554  A
C66   C67   1.374 .      A
C67   N19   1.352 .      A
C67   C69   1.363 1_554  A
N19   C68   1.371 .      A
C68   N20   1.365 1_565  A
N20   C68   1.365 1_545  A
N20   C69   1.343 1_544  A
C69   C67   1.363 1_556  A
C69   N20   1.343 1_566  A
C69   C70   1.372 .      A
C71   C72   1.392 .      A
C71   C77   1.385 .      A
C72   C73   1.386 .      A
C73   C74   1.371 .      A
C74   N21   1.344 .      A
C74   C76   1.364 .      A
N21   C75   1.362 .      A
C75   N22   1.366 .      A
N22   C76   1.347 .      A
C76   C77   1.370 .      A
C78   C79   1.390 .      A
C78   C84   1.383 .      A
C79   C80   1.386 .      A
C80   C81   1.373 .      A
C81   N23   1.348 .      A
C81   C83   1.366 .      A
N23   C82   1.371 .      A
C82   N24   1.374 .      A
N24   C83   1.346 .      A
C83   C84   1.371 .      A
C85   C86   1.388 .      A
C85   C91   1.380 .      A
C86   C87   1.384 .      A
C87   C88   1.369 1_545  A
C88   C87   1.369 1_565  A
C88   N25   1.345 .      A
C88   C90   1.365 .      A
N25   C89   1.373 .      A
C89   N26   1.365 .      A
N26   C90   1.341 .      A
C90   C91   1.366 1_565  A
C91   C90   1.366 1_545  A
C92   C93   1.388 .      A
C92   C98   1.385 .      A
C93   C94   1.382 .      A
C94   C95   1.375 .      A
C95   N27   1.348 .      A
C95   C97   1.364 .      A
N27   C96   1.369 .      A
C96   N28   1.374 .      A
N28   C97   1.349 .      A
C97   C98   1.374 .      A
C99   C100  1.393 .      A
C99   C105  1.385 .      A
C100  C101  1.386 .      A
C101  C102  1.372 .      A
C102  N29   1.348 .      A
C102  C104  1.368 .      A
N29   C103  1.371 .      A
C103  N30   1.370 .      A
N30   C104  1.345 .      A
C104  C105  1.371 .      A
C106  C107  1.392 .      A
C106  C112  1.385 .      A
C107  C108  1.386 .      A
C108  C109  1.372 .      A
C109  N31   1.345 .      A
C109  C111  1.367 .      A
N31   C110  1.373 .      A
C110  N32   1.373 .      A
N32   C111  1.348 .      A
C111  C112  1.372 .      A
C113  C114  1.392 .      A
C113  C119  1.385 .      A
C114  C115  1.385 .      A
C115  C116  1.371 .      A
C116  N33   1.345 .      A
C116  C118  1.366 .      A
N33   C117  1.366 .      A
C117  N34   1.373 .      A
N34   C118  1.349 .      A
C118  C119  1.371 .      A
C120  C121  1.391 .      A
C120  C126  1.388 .      A
C121  C122  1.382 .      A
C122  C123  1.369 .      A
C123  N35   1.345 .      A
C123  C125  1.369 .      A
N35   C124  1.366 .      A
C124  N36   1.367 .      A
N36   C125  1.348 .      A
C125  C126  1.372 .      A
C127  C128  1.393 .      A
C127  C133  1.386 .      A
C128  C129  1.386 .      A
C129  C130  1.371 .      A
C130  N37   1.350 .      A
C130  C132  1.374 .      A
N37   C131  1.380 .      A
C131  N38   1.380 .      A
N38   C132  1.345 .      A
C132  C133  1.370 .      A
C134  C135  1.383 .      A
C134  C140  1.380 .      A
C135  C136  1.380 .      A
C136  C137  1.378 .      A
C137  N39   1.346 .      A
C137  C139  1.352 .      A
N39   C138  1.372 .      A
C138  N40   1.373 .      A
N40   C139  1.350 .      A
C139  C140  1.376 .      A
C141  C142  1.394 .      A
C141  C147  1.386 .      A
C142  C143  1.386 .      A
C143  C144  1.370 .      A
C144  N41   1.346 .      A
C144  C146  1.372 .      A
N41   C145  1.380 .      A
C145  N42   1.377 .      A
N42   C146  1.347 .      A
C146  C147  1.371 .      A
C148  C149  1.386 .      A
C148  C154  1.381 .      A
C149  C150  1.382 .      A
C150  C151  1.376 .      A
C151  N43   1.348 .      A
C151  C153  1.364 .      A
N43   C152  1.386 .      A
C152  N44   1.389 .      A
N44   C153  1.349 .      A
C153  C154  1.373 .      A
C155  C156  1.393 .      A
C155  C161  1.385 .      A
C156  C157  1.385 .      A
C157  C158  1.372 .      A
C158  N45   1.348 .      A
C158  C160  1.370 .      A
N45   C159  1.380 .      A
C159  N46   1.382 .      A
N46   C160  1.348 .      A
C160  C161  1.372 .      A
C162  C163  1.386 .      A
C162  C168  1.381 .      A
C163  C164  1.382 .      A
C164  C165  1.376 .      A
C165  N47   1.352 .      A
C165  C167  1.368 .      A
N47   C166  1.392 .      A
C166  N48   1.393 .      A
N48   C167  1.346 .      A
C167  C168  1.373 .      A
C169  C170  1.394 .      A
C169  C175  1.386 1_545  A
C170  C171  1.386 .      A
C171  C172  1.371 .      A
C172  N49   1.348 1_545  A
C172  C174  1.375 1_545  A
N49   C172  1.348 1_565  A
N49   C173  1.382 .      A
C173  N50   1.383 .      A
N50   C174  1.347 .      A
C174  C172  1.375 1_565  A
C174  C175  1.371 .      A
C175  C169  1.386 1_565  A
C176  C177  1.395 1_455  A
C176  C182  1.386 .      A
C177  C176  1.395 1_655  A
C177  C178  1.387 .      A
C178  C179  1.371 .      A
C179  N51   1.348 .      A
C179  C181  1.366 .      A
N51   C180  1.370 .      A
C180  N52   1.367 .      A
N52   C181  1.344 .      A
C181  C182  1.370 1_655  A
C182  C181  1.370 1_455  A
C183  C184  1.393 .      A
C183  C189  1.385 .      A
C184  C185  1.386 .      A
C185  C186  1.371 .      A
C186  N53   1.347 1_455  A
C186  C188  1.371 .      A
N53   C186  1.347 1_655  A
N53   C187  1.375 .      A
C187  N54   1.378 1_655  A
N54   C187  1.378 1_455  A
N54   C188  1.346 .      A
C188  C189  1.371 .      A
C190  C191  1.393 .      A
C190  C196  1.385 .      A
C191  C192  1.386 .      A
C192  C193  1.371 .      A
C193  N55   1.346 .      A
C193  C195  1.365 .      A
N55   C194  1.364 1_655  A
C194  N55   1.364 1_455  A
C194  N56   1.363 1_455  A
N56   C194  1.363 1_655  A
N56   C195  1.345 .      A
C195  C196  1.370 .      A
C197  C198  1.393 .      A
C197  C203  1.386 .      A
C198  C199  1.385 .      A
C199  C200  1.371 .      A
C200  N57   1.344 .      A
C200  C202  1.368 .      A
N57   C201  1.371 .      A
C201  N58   1.373 .      A
N58   C202  1.348 .      A
C202  C203  1.372 .      A
C204  C205  1.392 .      A
C204  C210  1.385 .      A
C205  C206  1.384 .      A
C206  C207  1.369 1_545  A
C207  C206  1.369 1_565  A
C207  N59   1.343 .      A
C207  C209  1.360 1_565  A
N59   C208  1.358 .      A
C208  N60   1.357 .      A
N60   C209  1.344 1_565  A
C209  C207  1.360 1_545  A
C209  N60   1.344 1_545  A
C209  C210  1.370 .      A
C211  C212  1.394 1_565  A
C211  C217  1.386 .      A
C212  C211  1.394 1_545  A
C212  C213  1.386 .      A
C213  C214  1.370 .      A
C214  N61   1.341 .      A
C214  C216  1.363 1_545  A
N61   C215  1.362 1_545  A
C215  N61   1.362 1_565  A
C215  N62   1.365 .      A
N62   C216  1.348 .      A
C216  C214  1.363 1_565  A
C216  C217  1.370 .      A
C218  C219  1.390 .      A
C218  C224  1.388 .      A
C219  C220  1.381 .      A
C220  C221  1.371 .      A
C221  N63   1.342 .      A
C221  C223  1.365 .      A
N63   C222  1.368 .      A
C222  N64   1.373 .      A
N64   C223  1.350 .      A
C223  C224  1.374 .      A
C225  C226  1.394 .      A
C225  C231  1.385 .      A
C226  C227  1.386 .      A
C227  C228  1.371 .      A
C228  N65   1.345 .      A
C228  C230  1.369 .      A
N65   C229  1.369 .      A
C229  N66   1.372 .      A
N66   C230  1.348 .      A
C230  C231  1.371 .      A
C232  C233  1.389 .      A
C232  C238  1.384 .      A
C233  C234  1.384 .      A
C234  C235  1.373 .      A
C235  N67   1.349 .      A
C235  C237  1.365 .      A
N67   C236  1.373 .      A
C236  N68   1.368 .      A
N68   C237  1.345 .      A
C237  C238  1.373 .      A
C239  C240  1.394 .      A
C239  C245  1.386 .      A
C240  C241  1.386 .      A
C241  C242  1.371 .      A
C242  N69   1.346 .      A
C242  C244  1.368 .      A
N69   C243  1.370 .      A
C243  N70   1.368 .      A
N70   C244  1.346 .      A
C244  C245  1.370 .      A
C246  C247  1.392 .      A
C246  C252  1.384 .      A
C247  C248  1.385 .      A
C248  C249  1.371 .      A
C249  N71   1.347 .      A
C249  C251  1.368 .      A
N71   C250  1.371 .      A
C250  N72   1.373 .      A
N72   C251  1.346 .      A
C251  C252  1.371 .      A
C253  C254  1.393 .      A
C253  C259  1.387 .      A
C254  C255  1.384 .      A
C255  C256  1.370 .      A
C256  N73   1.345 .      A
C256  C258  1.370 .      A
N73   C257  1.378 .      A
C257  N74   1.379 .      A
N74   C258  1.348 .      A
C258  C259  1.371 .      A
C260  C261  1.388 .      A
C260  C266  1.387 .      A
C261  C262  1.382 1_554  A
C262  C261  1.382 1_556  A
C262  C263  1.372 .      A
C263  N75   1.344 .      A
C263  C265  1.369 1_556  A
N75   C264  1.373 .      A
C264  N76   1.379 .      A
N76   C265  1.352 1_556  A
C265  C263  1.369 1_554  A
C265  N76   1.352 1_554  A
C265  C266  1.375 .      A
C267  C268  1.389 1_565  A
C267  C273  1.387 .      A
C268  C267  1.389 1_545  A
C268  C269  1.381 .      A
C269  C270  1.369 1_545  A
C270  C269  1.369 1_565  A
C270  N77   1.345 .      A
C270  C272  1.366 .      A
N77   C271  1.370 .      A
C271  N78   1.370 .      A
N78   C272  1.346 .      A
C272  C273  1.372 .      A
C274  C275  1.392 .      A
C274  C280  1.384 .      A
C275  C276  1.385 .      A
C276  C277  1.370 .      A
C277  N79   1.344 1_565  A
C277  C279  1.361 .      A
N79   C277  1.344 1_545  A
N79   C278  1.377 .      A
C278  N80   1.373 .      A
N80   C279  1.345 1_545  A
C279  N80   1.345 1_565  A
C279  C280  1.371 .      A
C281  C282  1.390 .      A
C281  C287  1.383 .      A
C282  C283  1.385 .      A
C283  C284  1.369 .      A
C284  N81   1.345 .      A
C284  C286  1.351 .      A
N81   C285  1.373 .      A
C285  N82   1.371 .      A
N82   C286  1.343 .      A
C286  C287  1.374 .      A
C288  C289  1.393 .      A
C288  C294  1.385 .      A
C289  C290  1.386 .      A
C290  C291  1.370 .      A
C291  N83   1.346 .      A
C291  C293  1.368 .      A
N83   C292  1.370 .      A
C292  N84   1.371 .      A
N84   C293  1.345 .      A
C293  C294  1.370 .      A
C295  C296  1.390 .      A
C295  C301  1.385 .      A
C296  C297  1.384 .      A
C297  C298  1.369 .      A
C298  N85   1.349 1_545  A
C298  C300  1.366 .      A
N85   C298  1.349 1_565  A
N85   C299  1.369 .      A
C299  N86   1.367 .      A
N86   C300  1.345 1_565  A
C300  N86   1.345 1_545  A
C300  C301  1.372 .      A
C302  C303  1.388 .      A
C302  C308  1.384 .      A
C303  C304  1.382 .      A
C304  C305  1.373 .      A
C305  N87   1.343 1_545  A
C305  C307  1.364 .      A
N87   C305  1.343 1_565  A
N87   C306  1.370 .      A
C306  N88   1.371 1_565  A
N88   C306  1.371 1_545  A
N88   C307  1.354 .      A
C307  C308  1.374 .      A
C309  C310  1.393 1_545  A
C309  C315  1.383 .      A
C310  C309  1.393 1_565  A
C310  C311  1.387 .      A
C311  C312  1.373 .      A
C312  N89   1.351 .      A
C312  C314  1.366 .      A
N89   C313  1.374 .      A
C313  N90   1.363 .      A
N90   C314  1.341 .      A
C314  C315  1.370 1_565  A
C315  C314  1.370 1_545  A
C316  C317  1.394 .      A
C316  C322  1.385 .      A
C317  C318  1.386 .      A
C318  C319  1.370 .      A
C319  N91   1.344 .      A
C319  C321  1.365 .      A
N91   C320  1.366 .      A
C320  N92   1.368 .      A
N92   C321  1.346 .      A
C321  C322  1.370 .      A
C323  C324  1.394 .      A
C323  C329  1.386 .      A
C324  C325  1.386 .      A
C325  C326  1.371 1_455  A
C326  C325  1.371 1_655  A
C326  N93   1.348 .      A
C326  C328  1.369 1_655  A
N93   C327  1.371 .      A
C327  N94   1.370 1_655  A
N94   C327  1.370 1_455  A
N94   C328  1.344 .      A
C328  C326  1.369 1_455  A
C328  C329  1.370 .      A
C330  C331  1.389 .      A
C330  C336  1.385 .      A
C331  C332  1.382 .      A
C332  C333  1.371 1_455  A
C333  C332  1.371 1_655  A
C333  N95   1.345 .      A
C333  C335  1.368 .      A
N95   C334  1.378 .      A
C334  N96   1.376 .      A
N96   C335  1.349 .      A
C335  C336  1.372 1_655  A
C336  C335  1.372 1_455  A
C337  C338  1.393 .      A
C337  C343  1.384 .      A
C338  C339  1.386 .      A
C339  C340  1.372 .      A
C340  N97   1.348 .      A
C340  C342  1.364 .      A
N97   C341  1.366 .      A
C341  N98   1.362 .      A
N98   C342  1.344 .      A
C342  C343  1.371 .      A
C344  C345  1.390 .      A
C344  C350  1.383 .      A
C345  C346  1.385 .      A
C346  C347  1.372 .      A
C347  N99   1.347 .      A
C347  C349  1.365 .      A
N99   C348  1.372 .      A
C348  N100  1.371 .      A
N100  C349  1.345 .      A
C349  C350  1.371 .      A
C351  C352  1.390 .      A
C351  C357  1.384 .      A
C352  C353  1.384 .      A
C353  C354  1.372 .      A
C354  N101  1.344 .      A
C354  C356  1.368 .      A
N101  C355  1.375 .      A
C355  N102  1.378 .      A
N102  C356  1.351 .      A
C356  C357  1.373 .      A
C358  C359  1.391 1_556  A
C358  C364  1.387 .      A
C359  C358  1.391 1_554  A
C359  C360  1.384 .      A
C360  C361  1.369 .      A
C361  N103  1.348 .      A
C361  C363  1.364 .      A
N103  C362  1.368 .      A
C362  N104  1.366 .      A
N104  C363  1.344 .      A
C363  C364  1.373 1_554  A
C364  C363  1.373 1_556  A
C365  C366  1.393 .      A
C365  C371  1.385 .      A
C366  C367  1.386 .      A
C367  C368  1.371 .      A
C368  N105  1.350 .      A
C368  C370  1.372 .      A
N105  C369  1.384 .      A
C369  N106  1.376 .      A
N106  C370  1.344 .      A
C370  C371  1.370 .      A
C372  C373  1.390 .      A
C372  C378  1.385 .      A
C373  C374  1.383 .      A
C374  C375  1.371 .      A
C375  N107  1.345 .      A
C375  C377  1.366 .      A
N107  C376  1.375 .      A
C376  N108  1.376 .      A
N108  C377  1.350 .      A
C377  C378  1.371 .      A
C379  C380  1.394 .      A
C379  C385  1.386 .      A
C380  C381  1.386 1_554  A
C381  C380  1.386 1_556  A
C381  C382  1.370 .      A
C382  N109  1.345 .      A
C382  C384  1.369 1_556  A
N109  C383  1.372 .      A
C383  N110  1.374 .      A
N110  C384  1.346 1_556  A
C384  C382  1.369 1_554  A
C384  N110  1.346 1_554  A
C384  C385  1.370 .      A
C386  C387  1.381 .      A
C386  C392  1.379 .      A
C387  C388  1.380 .      A
C388  C389  1.378 .      A
C389  N111  1.352 .      A
C389  C391  1.354 .      A
N111  C390  1.367 .      A
C390  N112  1.368 .      A
N112  C391  1.345 .      A
C391  C392  1.377 .      A
C393  C394  1.390 .      A
C393  C399  1.388 1_556  A
C394  C395  1.383 .      A
C395  C396  1.368 1_556  A
C396  C395  1.368 1_554  A
C396  N113  1.343 .      A
C396  C398  1.367 .      A
N113  C397  1.362 .      A
C397  N114  1.368 .      A
N114  C398  1.348 .      A
C398  C399  1.372 .      A
C399  C393  1.388 1_554  A
C400  C401  1.389 .      A
C400  C406  1.385 .      A
C401  C402  1.384 .      A
C402  C403  1.372 .      A
C403  N115  1.348 .      A
C403  C405  1.364 .      A
N115  C404  1.371 .      A
C404  N116  1.370 .      A
N116  C405  1.346 .      A
C405  C406  1.374 .      A
C407  C408  1.383 .      A
C407  C413  1.381 .      A
C408  C409  1.380 .      A
C409  C410  1.373 .      A
C410  N117  1.347 .      A
C410  C412  1.358 .      A
N117  C411  1.377 .      A
C411  N118  1.377 .      A
N118  C412  1.351 .      A
C412  C413  1.378 .      A
C414  C415  1.393 .      A
C414  C420  1.386 .      A
C415  C416  1.385 .      A
C416  C417  1.370 .      A
C417  N119  1.345 1_455  A
C417  C419  1.370 .      A
N119  C417  1.345 1_655  A
N119  C418  1.377 .      A
C418  N120  1.373 1_655  A
N120  C418  1.373 1_455  A
N120  C419  1.349 .      A
C419  C420  1.371 .      A
C421  C422  1.394 .      A
C421  C427  1.385 .      A
C422  C423  1.387 .      A
C423  C424  1.371 .      A
C424  N121  1.345 .      A
C424  C426  1.363 .      A
N121  C425  1.359 .      A
C425  N122  1.358 .      A
N122  C426  1.345 .      A
C426  C427  1.370 .      A
C428  C429  1.388 1_545  A
C428  C434  1.383 1_455  A
C429  C428  1.388 1_565  A
C429  C430  1.382 .      A
C430  C431  1.371 1_455  A
C431  C430  1.371 1_655  A
C431  N123  1.345 .      A
C431  C433  1.358 .      A
N123  C432  1.377 .      A
C432  N124  1.377 .      A
N124  C433  1.349 .      A
C433  C434  1.374 1_565  A
C434  C428  1.383 1_655  A
C434  C433  1.374 1_545  A
C435  C436  1.388 .      A
C435  C441  1.383 .      A
C436  C437  1.383 .      A
C437  C438  1.371 .      A
C438  N125  1.345 .      A
C438  C440  1.363 .      A
N125  C439  1.379 1_455  A
C439  N125  1.379 1_655  A
C439  N126  1.377 .      A
N126  C440  1.350 1_655  A
C440  N126  1.350 1_455  A
C440  C441  1.375 .      A
C442  C443  1.391 .      A
C442  C448  1.391 .      A
C443  C444  1.380 .      A
C444  C445  1.369 .      A
C445  N127  1.341 .      A
C445  C447  1.367 .      A
N127  C446  1.363 .      A
C446  N128  1.365 .      A
N128  C447  1.349 .      A
C447  C448  1.373 .      A
C449  C450  1.392 .      A
C449  C455  1.384 .      A
C450  C451  1.386 .      A
C451  C452  1.373 .      A
C452  N129  1.350 .      A
C452  C454  1.366 .      A
N129  C453  1.378 .      A
C453  N130  1.371 1_655  A
N130  C453  1.371 1_455  A
N130  C454  1.343 1_455  A
C454  N130  1.343 1_655  A
C454  C455  1.371 .      A
C456  C457  1.392 .      A
C456  C462  1.384 .      A
C457  C458  1.385 .      A
C458  C459  1.371 .      A
C459  N131  1.345 .      A
C459  C461  1.365 .      A
N131  C460  1.369 .      A
C460  N132  1.371 .      A
N132  C461  1.348 .      A
C461  C462  1.371 .      A
C463  C464  1.386 .      A
C463  C469  1.381 .      A
C464  C465  1.382 .      A
C465  C466  1.373 .      A
C466  N133  1.347 .      A
C466  C468  1.366 .      A
N133  C467  1.375 .      A
C467  N134  1.376 .      A
N134  C468  1.350 .      A
C468  C469  1.375 .      A
C470  C471  1.387 .      A
C470  C476  1.383 .      A
C471  C472  1.383 .      A
C472  C473  1.375 .      A
C473  N135  1.349 .      A
C473  C475  1.365 .      A
N135  C474  1.381 .      A
C474  N136  1.383 .      A
N136  C475  1.346 .      A
C475  C476  1.372 .      A
C477  C478  1.386 .      A
C477  C483  1.382 .      A
C478  C479  1.382 .      A
C479  C480  1.373 .      A
C480  N137  1.344 .      A
C480  C482  1.354 .      A
N137  C481  1.375 .      A
C481  N138  1.371 .      A
N138  C482  1.351 .      A
C482  C483  1.377 .      A
C484  C485  1.391 1_565  A
C484  C490  1.382 .      A
C485  C484  1.391 1_545  A
C485  C486  1.385 .      A
C486  C487  1.374 .      A
C487  N139  1.346 .      A
C487  C489  1.351 .      A
N139  C488  1.367 .      A
C488  N140  1.371 .      A
N140  C489  1.341 .      A
C489  C490  1.370 1_545  A
C490  C489  1.370 1_565  A
C491  C492  1.384 .      A
C491  C497  1.380 .      A
C492  C493  1.381 .      A
C493  C494  1.378 .      A
C494  N141  1.353 .      A
C494  C496  1.365 .      A
N141  C495  1.376 .      A
C495  N142  1.380 .      A
N142  C496  1.345 .      A
C496  C497  1.374 .      A
C498  C499  1.394 .      A
C498  C504  1.385 .      A
C499  C500  1.386 .      A
C500  C501  1.371 .      A
C501  N143  1.344 .      A
C501  C503  1.364 .      A
N143  C502  1.376 .      A
C502  N144  1.374 .      A
N144  C503  1.346 .      A
C503  C504  1.370 .      A
C505  C506  1.391 .      A
C505  C511  1.384 .      A
C506  C507  1.385 .      A
C507  C508  1.371 .      A
C508  N145  1.346 .      A
C508  C510  1.362 .      A
N145  C509  1.372 .      A
C509  N146  1.371 .      A
N146  C510  1.345 .      A
C510  C511  1.370 .      A
C512  C513  1.390 .      A
C512  C518  1.389 .      A
C513  C514  1.383 .      A
C514  C515  1.372 .      A
C515  N147  1.347 .      A
C515  C517  1.365 .      A
N147  C516  1.366 .      A
C516  N148  1.359 .      A
N148  C517  1.345 .      A
C517  C518  1.373 .      A
C519  C520  1.390 1_565  A
C519  C525  1.381 .      A
C520  C519  1.390 1_545  A
C520  C521  1.385 .      A
C521  C522  1.374 .      A
C522  N149  1.346 .      A
C522  C524  1.355 .      A
N149  C523  1.375 .      A
C523  N150  1.379 .      A
N150  C524  1.343 .      A
C524  C525  1.368 1_545  A
C525  C524  1.368 1_565  A
C526  C527  1.390 .      A
C526  C532  1.380 .      A
C527  C528  1.386 .      A
C528  C529  1.372 .      A
C529  N151  1.358 .      A
C529  C531  1.363 .      A
N151  C530  1.374 .      A
C530  N152  1.368 .      A
N152  C531  1.335 .      A
C531  C532  1.370 .      A
C533  C534  1.384 .      A
C533  C539  1.380 .      A
C534  C535  1.382 .      A
C535  C536  1.379 .      A
C536  N153  1.351 .      A
C536  C538  1.356 .      A
N153  C537  1.374 .      A
C537  N154  1.379 .      A
N154  C538  1.345 .      A
C538  C539  1.373 .      A
C540  C541  1.390 .      A
C540  C546  1.384 1_556  A
C541  C542  1.385 1_556  A
C542  C541  1.385 1_554  A
C542  C543  1.372 .      A
C543  N155  1.350 .      A
C543  C545  1.368 .      A
N155  C544  1.376 .      A
C544  N156  1.377 .      A
N156  C545  1.344 .      A
C545  C546  1.372 .      A
C546  C540  1.384 1_554  A
C547  C548  1.384 .      A
C547  C553  1.381 1_455  A
C548  C549  1.380 1_455  A
C549  C548  1.380 1_655  A
C549  C550  1.377 .      A
C550  N157  1.347 .      A
C550  C552  1.356 .      A
N157  C551  1.375 .      A
C551  N158  1.380 .      A
N158  C552  1.348 .      A
C552  C553  1.377 .      A
C553  C547  1.381 1_655  A
C554  C555  1.386 .      A
C554  C560  1.386 .      A
C555  C556  1.380 1_556  A
C556  C555  1.380 1_554  A
C556  C557  1.372 .      A
C557  N159  1.346 .      A
C557  C559  1.368 .      A
N159  C558  1.380 .      A
C558  N160  1.378 .      A
N160  C559  1.351 .      A
C559  C560  1.376 1_554  A
C560  C559  1.376 1_556  A
C561  C562  1.394 .      A
C561  C567  1.385 .      A
C562  C563  1.387 .      A
C563  C564  1.371 .      A
C564  N161  1.346 .      A
C564  C566  1.365 .      A
N161  C565  1.369 .      A
C565  N162  1.369 .      A
N162  C566  1.345 .      A
C566  C567  1.370 .      A
C568  C569  1.392 .      A
C568  C574  1.386 .      A
C569  C570  1.384 .      A
C570  C571  1.370 .      A
C571  N163  1.345 .      A
C571  C573  1.373 .      A
N163  C572  1.380 .      A
C572  N164  1.385 .      A
N164  C573  1.350 .      A
C573  C574  1.372 .      A
C575  C576  1.391 .      A
C575  C581  1.386 .      A
C576  C577  1.384 .      A
C577  C578  1.370 .      A
C578  N165  1.345 1_655  A
C578  C580  1.367 .      A
N165  C578  1.345 1_455  A
N165  C579  1.359 .      A
C579  N166  1.361 .      A
N166  C580  1.347 1_455  A
C580  N166  1.347 1_655  A
C580  C581  1.371 .      A
C582  C583  1.387 .      A
C582  C588  1.382 .      A
C583  C584  1.382 .      A
C584  C585  1.375 .      A
C585  N167  1.345 .      A
C585  C587  1.361 .      A
N167  C586  1.381 1_455  A
C586  N167  1.381 1_655  A
C586  N168  1.379 .      A
N168  C587  1.350 1_655  A
C587  N168  1.350 1_455  A
C587  C588  1.374 .      A
C589  C590  1.390 .      A
C589  C595  1.384 .      A
C590  C591  1.384 .      A
C591  C592  1.371 .      A
C592  N169  1.350 .      A
C592  C594  1.368 .      A
N169  C593  1.373 .      A
C593  N170  1.369 .      A
N170  C594  1.345 .      A
C594  C595  1.371 .      A
C596  C597  1.394 .      A
C596  C602  1.385 .      A
C597  C598  1.387 .      A
C598  C599  1.370 .      A
C599  N171  1.345 .      A
C599  C601  1.368 .      A
N171  C600  1.374 .      A
C600  N172  1.370 .      A
N172  C601  1.348 .      A
C601  C602  1.370 .      A
C603  C604  1.386 .      A
C603  C609  1.384 .      A
C604  C605  1.380 .      A
C605  C606  1.372 .      A
C606  N173  1.340 .      A
C606  C608  1.362 .      A
N173  C607  1.368 .      A
C607  N174  1.368 .      A
N174  C608  1.356 .      A
C608  C609  1.376 .      A
C610  C611  1.384 .      A
C610  C616  1.382 .      A
C611  C612  1.380 .      A
C612  C613  1.372 .      A
C613  N175  1.344 .      A
C613  C615  1.361 .      A
N175  C614  1.364 .      A
C614  N176  1.370 .      A
N176  C615  1.352 .      A
C615  C616  1.376 .      A
C617  C618  1.381 .      A
C617  C623  1.381 .      A
C618  C619  1.378 1_556  A
C619  C618  1.378 1_554  A
C619  C620  1.376 .      A
C620  N177  1.348 .      A
C620  C622  1.364 .      A
N177  C621  1.374 .      A
C621  N178  1.382 .      A
N178  C622  1.353 .      A
C622  C623  1.374 1_554  A
C623  C622  1.374 1_556  A
C624  C625  1.388 .      A
C624  C630  1.379 .      A
C625  C626  1.382 .      A
C626  C627  1.365 .      A
C627  N179  1.344 .      A
C627  C629  1.356 .      A
N179  C628  1.378 1_554  A
C628  N179  1.378 1_556  A
C628  N180  1.378 1_556  A
N180  C628  1.378 1_554  A
N180  C629  1.343 .      A
C629  C630  1.373 .      A
C631  C632  1.389 .      A
C631  C637  1.384 .      A
C632  C633  1.383 .      A
C633  C634  1.372 .      A
C634  N181  1.343 .      A
C634  C636  1.361 .      A
N181  C635  1.376 .      A
C635  N182  1.374 .      A
N182  C636  1.350 .      A
C636  C637  1.372 .      A
C638  C639  1.389 .      A
C638  C644  1.383 .      A
C639  C640  1.383 .      A
C640  C641  1.370 .      A
C641  N183  1.346 .      A
C641  C643  1.360 .      A
N183  C642  1.367 .      A
C642  N184  1.363 .      A
N184  C643  1.343 .      A
C643  C644  1.370 .      A
