data_str_m1_o12004_CGS
_audit_creation_date              2015-10-01T06:29:37-0700
_symmetry_space_group_name_H-M    P1
_symmetry_Int_Tables_number       1
_space_group_crystal_system       triclinic
loop_
_symmetry_equiv_pos_as_xyz
  x,y,z
_cell_length_a                    17.6589940
_cell_length_b                    30.7421003
_cell_length_c                    32.8949705
_cell_angle_alpha                 91.9775799
_cell_angle_beta                  88.5103620
_cell_angle_gamma                 93.6401270
_cell_volume                      17806.1264003

loop_
_atom_site_label
_atom_site_type_symbol
_atom_site_description
_atom_site_fract_x
_atom_site_fract_y
_atom_site_fract_z
_atom_type_partial_charge
Zn1   Zn    Zn3+2 0.393629 0.973179 0.815963 0.000000
Zn2   Zn    Zn3+2 0.258914 0.665481 0.324938 0.000000
Zn3   Zn    Zn3+2 0.241154 0.460104 0.330660 0.000000
Zn4   Zn    Zn3+2 0.387452 0.171722 0.812411 0.000000
Zn5   Zn    Zn3+2 0.174961 0.955429 0.964165 0.000000
Zn6   Zn    Zn3+2 0.983034 0.462738 0.993800 0.000000
Zn7   Zn    Zn3+2 0.898399 0.180459 0.620732 0.000000
Zn8   Zn    Zn3+2 0.741334 0.468066 0.134041 0.000000
Zn9   Zn    Zn3+2 0.753969 0.676208 0.131493 0.000000
Zn10  Zn    Zn3+2 0.892142 0.974741 0.632917 0.000000
Zn11  Zn    Zn3+2 0.497702 0.324951 0.610721 0.000000
Zn12  Zn    Zn3+2 0.963429 0.821961 0.857486 0.000000
Zn13  Zn    Zn3+2 0.160328 0.322369 0.097848 0.000000
Zn14  Zn    Zn3+2 0.653870 0.316369 0.355714 0.000000
Zn15  Zn    Zn3+2 0.676984 0.813396 0.359254 0.000000
Zn16  Zn    Zn3+2 0.180397 0.809252 0.105916 0.000000
Zn17  Zn    Zn3+2 0.991773 0.309329 0.857389 0.000000
Zn18  Zn    Zn3+2 0.474803 0.767624 0.207368 0.000000
Zn19  Zn    Zn3+2 0.163275 0.877441 0.704204 0.000000
Zn20  Zn    Zn3+2 0.945020 0.374040 0.250496 0.000000
Zn21  Zn    Zn3+2 0.692931 0.271218 0.756145 0.000000
Zn22  Zn    Zn3+2 0.680142 0.867540 0.750413 0.000000
Zn23  Zn    Zn3+2 0.974740 0.760039 0.257800 0.000000
Zn24  Zn    Zn3+2 0.647562 0.961536 0.500704 0.000000
Zn25  Zn    Zn3+2 0.455545 0.362254 0.205959 0.000000
Zn26  Zn    Zn3+2 0.149246 0.169582 0.961834 0.000000
Zn27  Zn    Zn3+2 0.976768 0.677843 0.990651 0.000000
Zn28  Zn    Zn3+2 0.473887 0.677350 0.465244 0.000000
Zn29  Zn    Zn3+2 0.477090 0.457461 0.468079 0.000000
Zn30  Zn    Zn3+2 0.186322 0.272312 0.702004 0.000000
Zn31  Zn    Zn3+2 0.649668 0.177464 0.492750 0.000000
Zn32  Zn    Zn3+2 0.461679 0.816352 0.608166 0.000000
C1    C     C_3   0.478309 0.081976 0.916918 0.000000
N1    N     N_3   0.422621 0.106482 0.897371 0.000000
C2    C     C_3   0.375954 0.077035 0.871591 0.000000
C3    C     C_R   0.407384 0.074840 0.829409 0.000000
N2    N     N_R   0.416669 0.110512 0.805625 0.000000
C4    C     C_R   0.439907 0.093667 0.769671 0.000000
C5    C     C_R   0.452905 0.115038 0.734143 0.000000
C6    C     C_R   0.460151 0.090057 0.698515 0.000000
C7    C     C_R   0.453448 0.045074 0.699468 0.000000
C8    C     C_R   0.441421 0.024905 0.736088 0.000000
C9    C     C_R   0.437863 0.049953 0.770816 0.000000
N3    N     N_R   0.419596 0.036500 0.808383 0.000000
H1    H     H_    0.508732 0.062054 0.893931 0.000000
H2    H     H_    0.519606 0.104977 0.932677 0.000000
H3    H     H_    0.449883 0.060607 0.939784 0.000000
H4    H     H_    0.451168 0.129394 0.879105 0.000000
H5    H     H_    0.372432 0.044807 0.884152 0.000000
H6    H     H_    0.317953 0.088067 0.871176 0.000000
H7    H     H_    0.453671 0.150080 0.734253 0.000000
H8    H     H_    0.468419 0.105235 0.669552 0.000000
H9    H     H_    0.456652 0.025833 0.671446 0.000000
H10   H     H_    0.435257 0.990472 0.737898 0.000000
C10   C     C_3   0.178360 0.573556 0.449366 0.000000
N4    N     N_3   0.173379 0.572560 0.405334 0.000000
C11   C     C_3   0.248120 0.566110 0.387448 0.000000
C12   C     C_R   0.242837 0.563830 0.342347 0.000000
N5    N     N_R   0.237972 0.599958 0.318946 0.000000
C13   C     C_R   0.227507 0.582067 0.281682 0.000000
C14   C     C_R   0.229262 0.603121 0.245809 0.000000
C15   C     C_R   0.217690 0.578422 0.210645 0.000000
C16   C     C_R   0.208048 0.533786 0.211995 0.000000
C17   C     C_R   0.210690 0.512922 0.248598 0.000000
C18   C     C_R   0.224264 0.538102 0.282680 0.000000
N6    N     N_R   0.237451 0.524931 0.320138 0.000000
H11   H     H_    0.221147 0.599300 0.459348 0.000000
H12   H     H_    0.122357 0.580673 0.463181 0.000000
H13   H     H_    0.194282 0.541438 0.459589 0.000000
H14   H     H_    0.155789 0.602291 0.396256 0.000000
H15   H     H_    0.289313 0.592771 0.397012 0.000000
H16   H     H_    0.267401 0.535068 0.397835 0.000000
H17   H     H_    0.237793 0.638005 0.245304 0.000000
H18   H     H_    0.218208 0.593345 0.181655 0.000000
H19   H     H_    0.206888 0.515597 0.183430 0.000000
H20   H     H_    0.209574 0.477987 0.249834 0.000000
C19   C     C_3   0.345276 0.341170 0.782781 0.000000
N7    N     N_3   0.349839 0.299506 0.760873 0.000000
C20   C     C_3   0.306653 0.265685 0.783098 0.000000
C21   C     C_R   0.291663 0.225983 0.756740 0.000000
N8    N     N_R   0.236412 0.223895 0.728175 0.000000
C22   C     C_R   0.227357 0.181255 0.718767 0.000000
C23   C     C_R   0.163225 0.159866 0.704137 0.000000
C24   C     C_R   0.160764 0.115441 0.697422 0.000000
C25   C     C_R   0.221305 0.092954 0.708086 0.000000
C26   C     C_R   0.278357 0.113969 0.730314 0.000000
C27   C     C_R   0.280467 0.159068 0.736659 0.000000
N9    N     N_R   0.320579 0.186304 0.763432 0.000000
H21   H     H_    0.374617 0.367185 0.764609 0.000000
H22   H     H_    0.285593 0.348864 0.788217 0.000000
H23   H     H_    0.373020 0.340231 0.812333 0.000000
H24   H     H_    0.406724 0.292193 0.760704 0.000000
H25   H     H_    0.337565 0.256341 0.809374 0.000000
H26   H     H_    0.252133 0.277618 0.794289 0.000000
H27   H     H_    0.113661 0.176940 0.700468 0.000000
H28   H     H_    0.110848 0.098148 0.685116 0.000000
H29   H     H_    0.219648 0.057988 0.703518 0.000000
H30   H     H_    0.312618 0.093058 0.745449 0.000000
C28   C     C_3   0.229361 0.860310 0.830699 0.000000
N10   N     N_3   0.225092 0.886796 0.868196 0.000000
C29   C     C_3   0.220742 0.933303 0.862092 0.000000
C30   C     C_R   0.278409 0.958045 0.886731 0.000000
N11   N     N_R   0.351159 0.965299 0.872209 0.000000
C31   C     C_R   0.392052 0.969252 0.906087 0.000000
C32   C     C_R   0.469675 0.972058 0.908583 0.000000
C33   C     C_R   0.500322 0.973277 0.946914 0.000000
C34   C     C_R   0.453182 0.971690 0.981380 0.000000
C35   C     C_R   0.374952 0.968763 0.977979 0.000000
C36   C     C_R   0.345265 0.968083 0.939544 0.000000
N12   N     N_R   0.271688 0.961709 0.928302 0.000000
H31   H     H_    0.287604 0.850608 0.825011 0.000000
H32   H     H_    0.193648 0.829854 0.834165 0.000000
H33   H     H_    0.209840 0.876705 0.804238 0.000000
H34   H     H_    0.274234 0.882247 0.883545 0.000000
H35   H     H_    0.229896 0.939585 0.830668 0.000000
H36   H     H_    0.164716 0.944725 0.870623 0.000000
H37   H     H_    0.505718 0.972741 0.881601 0.000000
H38   H     H_    0.561241 0.975336 0.950051 0.000000
H39   H     H_    0.477790 0.972376 0.011159 0.000000
H40   H     H_    0.338837 0.966621 0.004916 0.000000
C37   C     C_3   0.045892 0.498081 0.114146 0.000000
N13   N     N_3   0.996875 0.473473 0.085956 0.000000
C38   C     C_3   0.920088 0.484774 0.093827 0.000000
C39   C     C_R   0.866607 0.460799 0.066579 0.000000
N14   N     N_R   0.879070 0.456041 0.025282 0.000000
C40   C     C_R   0.807321 0.447465 0.012080 0.000000
C41   C     C_R   0.778493 0.456026 0.975047 0.000000
C42   C     C_R   0.701962 0.446462 0.968687 0.000000
C43   C     C_R   0.654817 0.431017 0.000010 0.000000
C44   C     C_R   0.682498 0.430034 0.038801 0.000000
C45   C     C_R   0.757766 0.441646 0.044131 0.000000
N15   N     N_R   0.792393 0.452452 0.079127 0.000000
H41   H     H_    0.021064 0.495351 0.144438 0.000000
H42   H     H_    0.103414 0.485529 0.112543 0.000000
H43   H     H_    0.049128 0.532866 0.108724 0.000000
H44   H     H_    0.996352 0.442178 0.096490 0.000000
H45   H     H_    0.902941 0.473251 0.123943 0.000000
H46   H     H_    0.915155 0.520024 0.090314 0.000000
H47   H     H_    0.812660 0.472887 0.952362 0.000000
H48   H     H_    0.678635 0.451673 0.939320 0.000000
H49   H     H_    0.595371 0.422809 0.994734 0.000000
H50   H     H_    0.646244 0.420148 0.063983 0.000000
C46   C     C_3   0.221492 0.155601 0.598460 0.000000
N16   N     N_3   0.190336 0.192109 0.621494 0.000000
C47   C     C_3   0.109557 0.182491 0.621556 0.000000
C48   C     C_R   0.063634 0.215014 0.643074 0.000000
N17   N     N_R   0.093522 0.252106 0.664046 0.000000
C49   C     C_R   0.044006 0.281628 0.653676 0.000000
C50   C     C_R   0.039251 0.324175 0.666159 0.000000
C51   C     C_R   0.999877 0.350827 0.642332 0.000000
C52   C     C_R   0.961834 0.333497 0.608573 0.000000
C53   C     C_R   0.954208 0.288819 0.602172 0.000000
C54   C     C_R   0.991763 0.263611 0.627743 0.000000
N18   N     N_R   0.996069 0.220543 0.625075 0.000000
H51   H     H_    0.283711 0.159134 0.596344 0.000000
H52   H     H_    0.206022 0.124490 0.613475 0.000000
H53   H     H_    0.200473 0.154165 0.567003 0.000000
H54   H     H_    0.200895 0.219886 0.604333 0.000000
H55   H     H_    0.092838 0.183755 0.589619 0.000000
H56   H     H_    0.094884 0.150175 0.633737 0.000000
H57   H     H_    0.066526 0.337132 0.692852 0.000000
H58   H     H_    0.000025 0.385392 0.649593 0.000000
H59   H     H_    0.933761 0.354624 0.589014 0.000000
H60   H     H_    0.920708 0.274602 0.577599 0.000000
C55   C     C_3   0.608280 0.125312 0.583025 0.000000
N19   N     N_3   0.638391 0.169656 0.579699 0.000000
C56   C     C_3   0.714249 0.174208 0.594879 0.000000
C57   C     C_R   0.769258 0.182493 0.561476 0.000000
N20   N     N_R   0.751049 0.183688 0.521212 0.000000
C58   C     C_R   0.819635 0.191251 0.502901 0.000000
C59   C     C_R   0.837986 0.186970 0.462196 0.000000
C60   C     C_R   0.913711 0.192980 0.450364 0.000000
C61   C     C_R   0.969162 0.202612 0.479069 0.000000
C62   C     C_R   0.950066 0.204129 0.520135 0.000000
C63   C     C_R   0.874896 0.196831 0.531219 0.000000
N21   N     N_R   0.844880 0.189768 0.568630 0.000000
H61   H     H_    0.550774 0.122038 0.570223 0.000000
H62   H     H_    0.645379 0.103664 0.565955 0.000000
H63   H     H_    0.604116 0.116327 0.615153 0.000000
H64   H     H_    0.605175 0.188506 0.598823 0.000000
H65   H     H_    0.719188 0.202874 0.615390 0.000000
H66   H     H_    0.727528 0.145537 0.611532 0.000000
H67   H     H_    0.795346 0.178069 0.439995 0.000000
H68   H     H_    0.929868 0.190189 0.418521 0.000000
H69   H     H_    0.027909 0.207648 0.469334 0.000000
H70   H     H_    0.993328 0.210288 0.542505 0.000000
C64   C     C_3   0.692861 0.074879 0.692180 0.000000
N22   N     N_3   0.773537 0.084676 0.686111 0.000000
C65   C     C_3   0.797767 0.068887 0.646187 0.000000
C66   C     C_R   0.880991 0.075743 0.639427 0.000000
N23   N     N_R   0.916233 0.113118 0.623027 0.000000
C67   C     C_R   0.981034 0.097691 0.607521 0.000000
C68   C     C_R   0.020999 0.112047 0.573804 0.000000
C69   C     C_R   0.081692 0.089059 0.559547 0.000000
C70   C     C_R   0.101797 0.052791 0.579637 0.000000
C71   C     C_R   0.054198 0.035681 0.609831 0.000000
C72   C     C_R   0.989692 0.056654 0.619663 0.000000
N24   N     N_R   0.925091 0.040230 0.637159 0.000000
H71   H     H_    0.675686 0.086351 0.723187 0.000000
H72   H     H_    0.661518 0.092137 0.669851 0.000000
H73   H     H_    0.679934 0.039197 0.689482 0.000000
H74   H     H_    0.799224 0.066316 0.707014 0.000000
H75   H     H_    0.786399 0.033609 0.644589 0.000000
H76   H     H_    0.768194 0.084073 0.622072 0.000000
H77   H     H_    0.004312 0.139672 0.558127 0.000000
H78   H     H_    0.114738 0.100123 0.533346 0.000000
H79   H     H_    0.151523 0.036161 0.569773 0.000000
H80   H     H_    0.066699 0.006479 0.624390 0.000000
C73   C     C_3   0.519785 0.600560 0.117733 0.000000
N25   N     N_3   0.600254 0.608363 0.125875 0.000000
C74   C     C_3   0.634562 0.566939 0.122286 0.000000
C75   C     C_R   0.714570 0.571289 0.134159 0.000000
N26   N     N_R   0.755139 0.610907 0.135670 0.000000
C76   C     C_R   0.824996 0.599689 0.143711 0.000000
C77   C     C_R   0.891166 0.625290 0.139724 0.000000
C78   C     C_R   0.957100 0.608741 0.150261 0.000000
C79   C     C_R   0.955094 0.569574 0.168961 0.000000
C80   C     C_R   0.889939 0.542391 0.167957 0.000000
C81   C     C_R   0.825471 0.556912 0.151135 0.000000
N27   N     N_R   0.757026 0.536269 0.142145 0.000000
H81   H     H_    0.490733 0.631274 0.122660 0.000000
H82   H     H_    0.512464 0.588896 0.085723 0.000000
H83   H     H_    0.493312 0.576139 0.138566 0.000000
H84   H     H_    0.605317 0.619839 0.155779 0.000000
H85   H     H_    0.604503 0.544166 0.143345 0.000000
H86   H     H_    0.633766 0.556373 0.089940 0.000000
H87   H     H_    0.893831 0.657162 0.127382 0.000000
H88   H     H_    0.009385 0.626838 0.143871 0.000000
H89   H     H_    0.006594 0.558608 0.181015 0.000000
H90   H     H_    0.894745 0.510687 0.178609 0.000000
C82   C     C_3   0.587019 0.175428 0.679969 0.000000
N28   N     N_3   0.575725 0.218513 0.697047 0.000000
C83   C     C_3   0.596302 0.249530 0.666056 0.000000
C84   C     C_R   0.597068 0.295049 0.682938 0.000000
N29   N     N_R   0.562844 0.327065 0.663151 0.000000
C85   C     C_R   0.576933 0.362208 0.688271 0.000000
C86   C     C_R   0.547502 0.402373 0.686741 0.000000
C87   C     C_R   0.570866 0.434274 0.715202 0.000000
C88   C     C_R   0.622463 0.425549 0.744521 0.000000
C89   C     C_R   0.649051 0.384338 0.746787 0.000000
C90   C     C_R   0.623308 0.352622 0.719059 0.000000
N30   N     N_R   0.637491 0.309949 0.716955 0.000000
H91   H     H_    0.578247 0.151350 0.703696 0.000000
H92   H     H_    0.546554 0.167574 0.655497 0.000000
H93   H     H_    0.646413 0.173297 0.669358 0.000000
H94   H     H_    0.618632 0.222888 0.717601 0.000000
H95   H     H_    0.653048 0.243702 0.654290 0.000000
H96   H     H_    0.557119 0.245092 0.640658 0.000000
H97   H     H_    0.507895 0.409165 0.663919 0.000000
H98   H     H_    0.549516 0.466402 0.714278 0.000000
H99   H     H_    0.641347 0.451027 0.766082 0.000000
H100  H     H_    0.689350 0.378021 0.769525 0.000000
C91   C     C_3   0.388585 0.180366 0.652536 0.000000
N31   N     N_3   0.338611 0.215936 0.655247 0.000000
C92   C     C_3   0.383282 0.254078 0.668783 0.000000
C93   C     C_R   0.347486 0.293837 0.657250 0.000000
N32   N     N_R   0.389503 0.324574 0.635578 0.000000
C94   C     C_R   0.342960 0.357536 0.635115 0.000000
C95   C     C_R   0.360194 0.400273 0.625024 0.000000
C96   C     C_R   0.302695 0.428519 0.624869 0.000000
C97   C     C_R   0.229834 0.414059 0.635821 0.000000
C98   C     C_R   0.215733 0.372431 0.649702 0.000000
C99   C     C_R   0.273831 0.345120 0.651456 0.000000
N33   N     N_R   0.274460 0.305183 0.667910 0.000000
H101  H     H_    0.422025 0.181473 0.623567 0.000000
H102  H     H_    0.426866 0.183480 0.678441 0.000000
H103  H     H_    0.354747 0.148833 0.653903 0.000000
H104  H     H_    0.324185 0.222414 0.625938 0.000000
H105  H     H_    0.392867 0.253338 0.701507 0.000000
H106  H     H_    0.438626 0.254675 0.652791 0.000000
H107  H     H_    0.416618 0.412781 0.618225 0.000000
H108  H     H_    0.314726 0.461907 0.616244 0.000000
H109  H     H_    0.184504 0.436086 0.635663 0.000000
H110  H     H_    0.161533 0.363441 0.661157 0.000000
C100  C     C_3   0.617971 0.330075 0.514481 0.000000
N34   N     N_3   0.660122 0.322576 0.550761 0.000000
C101  C     C_3   0.661385 0.276065 0.556424 0.000000
C102  C     C_R   0.584609 0.254396 0.552304 0.000000
N35   N     N_R   0.519663 0.270419 0.570821 0.000000
C103  C     C_R   0.465256 0.242296 0.555364 0.000000
C104  C     C_R   0.387939 0.244716 0.558045 0.000000
C105  C     C_R   0.342951 0.212439 0.538610 0.000000
C106  C     C_R   0.374795 0.175572 0.522254 0.000000
C107  C     C_R   0.452592 0.173663 0.520718 0.000000
C108  C     C_R   0.496374 0.209598 0.532668 0.000000
N36   N     N_R   0.572310 0.216407 0.528560 0.000000
H111  H     H_    0.556606 0.329322 0.520854 0.000000
H112  H     H_    0.636681 0.362392 0.502659 0.000000
H113  H     H_    0.626726 0.304236 0.491170 0.000000
H114  H     H_    0.631476 0.335493 0.575914 0.000000
H115  H     H_    0.700396 0.261549 0.533860 0.000000
H116  H     H_    0.681930 0.270389 0.586902 0.000000
H117  H     H_    0.361440 0.270584 0.574456 0.000000
H118  H     H_    0.282139 0.214514 0.539016 0.000000
H119  H     H_    0.338782 0.148062 0.511458 0.000000
H120  H     H_    0.478277 0.143958 0.513869 0.000000
C109  C     C_3   0.312865 0.324618 0.488815 0.000000
N37   N     N_3   0.386321 0.348563 0.493501 0.000000
C110  C     C_3   0.394730 0.361749 0.535666 0.000000
C111  C     C_R   0.465072 0.389722 0.543028 0.000000
N38   N     N_R   0.510102 0.380062 0.574798 0.000000
C112  C     C_R   0.559084 0.415418 0.577345 0.000000
C113  C     C_R   0.621167 0.422187 0.601646 0.000000
C114  C     C_R   0.661944 0.462033 0.600501 0.000000
C115  C     C_R   0.640218 0.494060 0.575355 0.000000
C116  C     C_R   0.579969 0.485787 0.549576 0.000000
C117  C     C_R   0.541984 0.445362 0.549823 0.000000
N39   N     N_R   0.484778 0.429704 0.525735 0.000000
H121  H     H_    0.292051 0.329167 0.457828 0.000000
H122  H     H_    0.318962 0.289477 0.492993 0.000000
H123  H     H_    0.270092 0.335925 0.511291 0.000000
H124  H     H_    0.386729 0.376830 0.477318 0.000000
H125  H     H_    0.345213 0.378469 0.547481 0.000000
H126  H     H_    0.399130 0.332701 0.553364 0.000000
H127  H     H_    0.639293 0.397054 0.620427 0.000000
H128  H     H_    0.710584 0.468387 0.619591 0.000000
H129  H     H_    0.671445 0.525464 0.575350 0.000000
H130  H     H_    0.563525 0.510944 0.530455 0.000000
C118  C     C_3   0.986755 0.955164 0.812677 0.000000
N40   N     N_3   0.987135 0.908347 0.812616 0.000000
C119  C     C_3   0.064494 0.898103 0.803067 0.000000
C120  C     C_R   0.066090 0.853793 0.785355 0.000000
N41   N     N_R   0.026872 0.820148 0.804070 0.000000
C121  C     C_R   0.034206 0.786752 0.776683 0.000000
C122  C     C_R   0.002160 0.744890 0.778171 0.000000
C123  C     C_R   0.018796 0.715582 0.746892 0.000000
C124  C     C_R   0.066873 0.728373 0.714938 0.000000
C125  C     C_R   0.097818 0.770764 0.713634 0.000000
C126  C     C_R   0.079670 0.799658 0.744579 0.000000
N42   N     N_R   0.100573 0.842559 0.748428 0.000000
H131  H     H_    0.985279 0.965304 0.780875 0.000000
H132  H     H_    0.936357 0.965399 0.829652 0.000000
H133  H     H_    0.037472 0.969951 0.828173 0.000000
H134  H     H_    0.951334 0.896014 0.789858 0.000000
H135  H     H_    0.091359 0.921128 0.781792 0.000000
H136  H     H_    0.094420 0.899073 0.831725 0.000000
H137  H     H_    0.967536 0.734286 0.803559 0.000000
H138  H     H_    0.995182 0.682303 0.747711 0.000000
H139  H     H_    0.080399 0.705038 0.690925 0.000000
H140  H     H_    0.135684 0.780073 0.689218 0.000000
C127  C     C_3   0.654667 0.856855 0.888625 0.000000
N43   N     N_3   0.685624 0.876102 0.851420 0.000000
C128  C     C_3   0.767803 0.878054 0.852964 0.000000
C129  C     C_R   0.801261 0.851297 0.819748 0.000000
N44   N     N_R   0.849911 0.820940 0.832924 0.000000
C130  C     C_R   0.816245 0.783338 0.817979 0.000000
C131  C     C_R   0.828892 0.741790 0.829099 0.000000
C132  C     C_R   0.783324 0.707461 0.813248 0.000000
C133  C     C_R   0.724255 0.715199 0.788103 0.000000
C134  C     C_R   0.709886 0.757335 0.778685 0.000000
C135  C     C_R   0.757597 0.791183 0.793325 0.000000
N45   N     N_R   0.750072 0.834555 0.790921 0.000000
H141  H     H_    0.669684 0.822420 0.890013 0.000000
H142  H     H_    0.675281 0.876393 0.915571 0.000000
H143  H     H_    0.592027 0.857550 0.889055 0.000000
H144  H     H_    0.669650 0.908153 0.852883 0.000000
H145  H     H_    0.790989 0.912186 0.852721 0.000000
H146  H     H_    0.781302 0.861538 0.880660 0.000000
H147  H     H_    0.870796 0.735736 0.850939 0.000000
H148  H     H_    0.792362 0.674488 0.821510 0.000000
H149  H     H_    0.687746 0.688178 0.776741 0.000000
H150  H     H_    0.661346 0.762793 0.760907 0.000000
C136  C     C_3   0.155615 0.785984 0.961367 0.000000
N46   N     N_3   0.097164 0.816357 0.956129 0.000000
C137  C     C_3   0.122907 0.844317 0.923515 0.000000
C138  C     C_R   0.071672 0.880138 0.917807 0.000000
N47   N     N_R   0.003837 0.874546 0.897390 0.000000
C139  C     C_R   0.977680 0.914876 0.902400 0.000000
C140  C     C_R   0.904801 0.926757 0.903442 0.000000
C141  C     C_R   0.890770 0.970378 0.908772 0.000000
C142  C     C_R   0.950960 0.001289 0.911666 0.000000
C143  C     C_R   0.023018 0.987700 0.916669 0.000000
C144  C     C_R   0.031427 0.943689 0.917683 0.000000
N48   N     N_R   0.090491 0.922897 0.930357 0.000000
H151  H     H_    0.128796 0.752711 0.963035 0.000000
H152  H     H_    0.196895 0.786506 0.935385 0.000000
H153  H     H_    0.186028 0.794728 0.989736 0.000000
H154  H     H_    0.094067 0.835689 0.982730 0.000000
H155  H     H_    0.178222 0.859310 0.932303 0.000000
H156  H     H_    0.126600 0.824791 0.894808 0.000000
H157  H     H_    0.860632 0.902593 0.906840 0.000000
H158  H     H_    0.833113 0.980323 0.909630 0.000000
H159  H     H_    0.941139 0.035660 0.912623 0.000000
H160  H     H_    0.070708 0.011014 0.918529 0.000000
C145  C     C_3   0.827210 0.837331 0.965630 0.000000
N49   N     N_3   0.851550 0.802450 0.938146 0.000000
C146  C     C_3   0.921255 0.787737 0.953728 0.000000
C147  C     C_R   0.955039 0.754406 0.926044 0.000000
N50   N     N_R   0.981236 0.715319 0.938664 0.000000
C148  C     C_R   0.030978 0.705576 0.908434 0.000000
C149  C     C_R   0.078801 0.671981 0.906534 0.000000
C150  C     C_R   0.135516 0.672074 0.876873 0.000000
C151  C     C_R   0.146315 0.706913 0.851451 0.000000
C152  C     C_R   0.097461 0.740311 0.853872 0.000000
C153  C     C_R   0.035936 0.737200 0.880397 0.000000
N51   N     N_R   0.984431 0.767110 0.889002 0.000000
H161  H     H_    0.773125 0.848896 0.955241 0.000000
H162  H     H_    0.818288 0.825408 0.996815 0.000000
H163  H     H_    0.870706 0.864886 0.966521 0.000000
H164  H     H_    0.865007 0.816344 0.910331 0.000000
H165  H     H_    0.961452 0.816307 0.955952 0.000000
H166  H     H_    0.912101 0.775232 0.984138 0.000000
H167  H     H_    0.073210 0.646080 0.927361 0.000000
H168  H     H_    0.174026 0.646077 0.874970 0.000000
H169  H     H_    0.194166 0.708522 0.830263 0.000000
H170  H     H_    0.111227 0.768979 0.837102 0.000000
C154  C     C_3   0.067917 0.460961 0.207041 0.000000
N52   N     N_3   0.027601 0.422195 0.191156 0.000000
C155  C     C_3   0.076711 0.396086 0.165841 0.000000
C156  C     C_R   0.051546 0.350012 0.171369 0.000000
N53   N     N_R   0.999717 0.336943 0.201865 0.000000
C157  C     C_R   0.987454 0.293972 0.191898 0.000000
C158  C     C_R   0.932740 0.265018 0.207733 0.000000
C159  C     C_R   0.926757 0.222799 0.191836 0.000000
C160  C     C_R   0.973702 0.210287 0.159776 0.000000
C161  C     C_R   0.025389 0.240220 0.142414 0.000000
C162  C     C_R   0.031301 0.282224 0.158636 0.000000
N54   N     N_R   0.074397 0.317008 0.144914 0.000000
H171  H     H_    0.028513 0.487464 0.211005 0.000000
H172  H     H_    0.088773 0.455568 0.237235 0.000000
H173  H     H_    0.113651 0.470134 0.185370 0.000000
H174  H     H_    0.989710 0.433388 0.171045 0.000000
H175  H     H_    0.069332 0.403619 0.133796 0.000000
H176  H     H_    0.137430 0.402013 0.172240 0.000000
H177  H     H_    0.891035 0.275467 0.229566 0.000000
H178  H     H_    0.883862 0.199707 0.203816 0.000000
H179  H     H_    0.968219 0.177238 0.147389 0.000000
H180  H     H_    0.059751 0.230072 0.116907 0.000000
C163  C     C_3   0.502742 0.346781 0.060783 0.000000
N55   N     N_3   0.458728 0.334282 0.096950 0.000000
C164  C     C_3   0.386158 0.354275 0.095909 0.000000
C165  C     C_R   0.339193 0.345487 0.134332 0.000000
N56   N     N_R   0.264826 0.326897 0.130687 0.000000
C166  C     C_R   0.266554 0.293041 0.155949 0.000000
C167  C     C_R   0.215956 0.257545 0.157371 0.000000
C168  C     C_R   0.230279 0.223461 0.181679 0.000000
C169  C     C_R   0.297240 0.224424 0.202586 0.000000
C170  C     C_R   0.349914 0.259334 0.199019 0.000000
C171  C     C_R   0.332700 0.293995 0.176319 0.000000
N57   N     N_R   0.377577 0.329257 0.166346 0.000000
H181  H     H_    0.554583 0.328199 0.058540 0.000000
H182  H     H_    0.468950 0.339783 0.033189 0.000000
H183  H     H_    0.519592 0.382102 0.062867 0.000000
H184  H     H_    0.489329 0.347320 0.121544 0.000000
H185  H     H_    0.395265 0.388882 0.089640 0.000000
H186  H     H_    0.355968 0.339515 0.069356 0.000000
H187  H     H_    0.169745 0.254889 0.137387 0.000000
H188  H     H_    0.190960 0.195081 0.182758 0.000000
H189  H     H_    0.309995 0.196868 0.220190 0.000000
H190  H     H_    0.404126 0.257499 0.212142 0.000000
C172  C     C_3   0.931393 0.225980 0.004119 0.000000
N58   N     N_3   0.008647 0.244793 0.999300 0.000000
C173  C     C_3   0.045206 0.241222 0.037693 0.000000
C174  C     C_R   0.129170 0.242198 0.032703 0.000000
N59   N     N_R   0.176683 0.266174 0.059070 0.000000
C175  C     C_R   0.242208 0.244495 0.053916 0.000000
C176  C     C_R   0.312167 0.250235 0.071615 0.000000
C177  C     C_R   0.367192 0.221140 0.063754 0.000000
C178  C     C_R   0.353793 0.186157 0.037511 0.000000
C179  C     C_R   0.285568 0.181324 0.018080 0.000000
C180  C     C_R   0.232817 0.211109 0.026393 0.000000
N60   N     N_R   0.164526 0.209803 0.010786 0.000000
H191  H     H_    0.895851 0.238270 0.980387 0.000000
H192  H     H_    0.930682 0.190021 0.000829 0.000000
H193  H     H_    0.907776 0.234617 0.034646 0.000000
H194  H     H_    0.006366 0.277830 0.993738 0.000000
H195  H     H_    0.029502 0.267845 0.058802 0.000000
H196  H     H_    0.026030 0.209613 0.050915 0.000000
H197  H     H_    0.328256 0.275804 0.091073 0.000000
H198  H     H_    0.421462 0.226071 0.078231 0.000000
H199  H     H_    0.397998 0.164042 0.031491 0.000000
H200  H     H_    0.273052 0.154817 0.996882 0.000000
C181  C     C_3   0.876469 0.333209 0.019038 0.000000
N61   N     N_3   0.952108 0.353421 0.012662 0.000000
C182  C     C_3   0.985249 0.363488 0.051996 0.000000
C183  C     C_R   0.058905 0.389497 0.046748 0.000000
N62   N     N_R   0.126912 0.376382 0.061766 0.000000
C184  C     C_R   0.175646 0.408581 0.048535 0.000000
C185  C     C_R   0.251752 0.410779 0.051912 0.000000
C186  C     C_R   0.294879 0.443557 0.032935 0.000000
C187  C     C_R   0.259688 0.475365 0.013022 0.000000
C188  C     C_R   0.181521 0.473561 0.010883 0.000000
C189  C     C_R   0.140232 0.439247 0.028163 0.000000
N63   N     N_R   0.064911 0.429146 0.026742 0.000000
H201  H     H_    0.853104 0.321824 0.989439 0.000000
H202  H     H_    0.878810 0.304938 0.038458 0.000000
H203  H     H_    0.838803 0.357153 0.033296 0.000000
H204  H     H_    0.943541 0.383247 0.000390 0.000000
H205  H     H_    0.945078 0.381993 0.070676 0.000000
H206  H     H_    0.995122 0.333451 0.067725 0.000000
H207  H     H_    0.274881 0.386371 0.068326 0.000000
H208  H     H_    0.356051 0.444556 0.033752 0.000000
H209  H     H_    0.293426 0.501531 0.998895 0.000000
H210  H     H_    0.154847 0.498560 0.995696 0.000000
C190  C     C_3   0.714751 0.453752 0.336868 0.000000
N64   N     N_3   0.730463 0.408030 0.338049 0.000000
C191  C     C_3   0.772053 0.395717 0.302027 0.000000
C192  C     C_R   0.799907 0.351916 0.305857 0.000000
N65   N     N_R   0.764291 0.320401 0.329818 0.000000
C193  C     C_R   0.815272 0.289012 0.327579 0.000000
C194  C     C_R   0.808362 0.247099 0.341240 0.000000
C195  C     C_R   0.870289 0.221711 0.336805 0.000000
C196  C     C_R   0.937649 0.238070 0.318845 0.000000
C197  C     C_R   0.942118 0.279062 0.302695 0.000000
C198  C     C_R   0.878522 0.302615 0.305561 0.000000
N66   N     N_R   0.868709 0.341000 0.288874 0.000000
H211  H     H_    0.670768 0.461129 0.360224 0.000000
H212  H     H_    0.766859 0.474307 0.343811 0.000000
H213  H     H_    0.692741 0.460957 0.306868 0.000000
H214  H     H_    0.679830 0.389896 0.335760 0.000000
H215  H     H_    0.737414 0.397526 0.275505 0.000000
H216  H     H_    0.820511 0.418148 0.299110 0.000000
H217  H     H_    0.756569 0.233289 0.354322 0.000000
H218  H     H_    0.866216 0.188858 0.347708 0.000000
H219  H     H_    0.985873 0.218100 0.316196 0.000000
H220  H     H_    0.993193 0.291502 0.287182 0.000000
C199  C     C_3   0.439706 0.274612 0.431202 0.000000
N67   N     N_3   0.493807 0.310351 0.442572 0.000000
C200  C     C_3   0.489142 0.344208 0.413288 0.000000
C201  C     C_R   0.556083 0.376830 0.416349 0.000000
N68   N     N_R   0.556463 0.417674 0.436599 0.000000
C202  C     C_R   0.631796 0.427267 0.439655 0.000000
C203  C     C_R   0.666758 0.460764 0.461949 0.000000
C204  C     C_R   0.744832 0.462286 0.464986 0.000000
C205  C     C_R   0.786431 0.430462 0.445689 0.000000
C206  C     C_R   0.750750 0.397523 0.422157 0.000000
C207  C     C_R   0.672905 0.396389 0.419781 0.000000
N69   N     N_R   0.626478 0.365753 0.401182 0.000000
H221  H     H_    0.428237 0.253415 0.457516 0.000000
H222  H     H_    0.386098 0.287281 0.421302 0.000000
H223  H     H_    0.463129 0.254996 0.405787 0.000000
H224  H     H_    0.547294 0.298361 0.439094 0.000000
H225  H     H_    0.490098 0.327957 0.382815 0.000000
H226  H     H_    0.435377 0.360231 0.417917 0.000000
H227  H     H_    0.634353 0.485495 0.476264 0.000000
H228  H     H_    0.773562 0.488280 0.482732 0.000000
H229  H     H_    0.847237 0.431474 0.448971 0.000000
H230  H     H_    0.783571 0.373344 0.406675 0.000000
C208  C     C_3   0.843374 0.307142 0.477285 0.000000
N70   N     N_3   0.763103 0.295965 0.471310 0.000000
C209  C     C_3   0.754693 0.275149 0.431395 0.000000
C210  C     C_R   0.678608 0.251319 0.424344 0.000000
N71   N     N_R   0.660760 0.208991 0.436879 0.000000
C211  C     C_R   0.618297 0.191998 0.406140 0.000000
C212  C     C_R   0.607374 0.148923 0.394365 0.000000
C213  C     C_R   0.561738 0.138345 0.361443 0.000000
C214  C     C_R   0.528948 0.170939 0.341207 0.000000
C215  C     C_R   0.549755 0.214208 0.350362 0.000000
C216  C     C_R   0.601067 0.223309 0.380559 0.000000
N72   N     N_R   0.640884 0.261006 0.389741 0.000000
H231  H     H_    0.849816 0.330216 0.503815 0.000000
H232  H     H_    0.873312 0.277713 0.483351 0.000000
H233  H     H_    0.868931 0.322973 0.449954 0.000000
H234  H     H_    0.740300 0.326090 0.469114 0.000000
H235  H     H_    0.761394 0.300727 0.408762 0.000000
H236  H     H_    0.800643 0.253246 0.425114 0.000000
H237  H     H_    0.635831 0.124110 0.409134 0.000000
H238  H     H_    0.550106 0.104561 0.352158 0.000000
H239  H     H_    0.490045 0.162528 0.316924 0.000000
H240  H     H_    0.524673 0.239768 0.334959 0.000000
C217  C     C_3   0.463870 0.399091 0.338433 0.000000
N73   N     N_3   0.543614 0.401472 0.329541 0.000000
C218  C     C_3   0.555362 0.391374 0.287156 0.000000
C219  C     C_R   0.549110 0.343342 0.279646 0.000000
N74   N     N_R   0.587581 0.313619 0.301223 0.000000
C220  C     C_R   0.587465 0.279160 0.274201 0.000000
C221  C     C_R   0.632823 0.244404 0.274500 0.000000
C222  C     C_R   0.631937 0.215481 0.241276 0.000000
C223  C     C_R   0.589995 0.222975 0.207374 0.000000
C224  C     C_R   0.549355 0.259886 0.206049 0.000000
C225  C     C_R   0.548152 0.287194 0.240057 0.000000
N75   N     N_R   0.521802 0.327348 0.242907 0.000000
H241  H     H_    0.453523 0.407510 0.370383 0.000000
H242  H     H_    0.437738 0.423439 0.321121 0.000000
H243  H     H_    0.441477 0.365334 0.334073 0.000000
H244  H     H_    0.561059 0.374253 0.342313 0.000000
H245  H     H_    0.516001 0.407843 0.268421 0.000000
H246  H     H_    0.612292 0.404226 0.278284 0.000000
H247  H     H_    0.669169 0.239983 0.299588 0.000000
H248  H     H_    0.666137 0.187536 0.241199 0.000000
H249  H     H_    0.591851 0.200850 0.181153 0.000000
H250  H     H_    0.521841 0.267728 0.178499 0.000000
C226  C     C_3   0.624126 0.681470 0.309684 0.000000
N76   N     N_3   0.617923 0.727931 0.316330 0.000000
C227  C     C_3   0.556331 0.740014 0.291953 0.000000
C228  C     C_R   0.558286 0.787846 0.287718 0.000000
N77   N     N_R   0.600335 0.818290 0.311547 0.000000
C229  C     C_R   0.597521 0.854679 0.289714 0.000000
C230  C     C_R   0.637955 0.893811 0.295846 0.000000
C231  C     C_R   0.638431 0.924362 0.265872 0.000000
C232  C     C_R   0.601953 0.914621 0.229538 0.000000
C233  C     C_R   0.563162 0.874570 0.223227 0.000000
C234  C     C_R   0.558405 0.845956 0.254651 0.000000
N78   N     N_R   0.530521 0.804129 0.253049 0.000000
H251  H     H_    0.662617 0.669302 0.332204 0.000000
H252  H     H_    0.567517 0.664357 0.312502 0.000000
H253  H     H_    0.646658 0.675272 0.278610 0.000000
H254  H     H_    0.667064 0.743238 0.304029 0.000000
H255  H     H_    0.561444 0.724857 0.261398 0.000000
H256  H     H_    0.501104 0.727807 0.304447 0.000000
H257  H     H_    0.668525 0.900747 0.323151 0.000000
H258  H     H_    0.669619 0.955505 0.270263 0.000000
H259  H     H_    0.605537 0.938005 0.205658 0.000000
H260  H     H_    0.539106 0.865682 0.194011 0.000000
C235  C     C_3   0.445209 0.836819 0.380342 0.000000
N79   N     N_3   0.511604 0.818564 0.397071 0.000000
C236  C     C_3   0.500367 0.771570 0.392190 0.000000
C237  C     C_R   0.566097 0.748113 0.406572 0.000000
N80   N     N_R   0.640667 0.760811 0.396740 0.000000
C238  C     C_R   0.678795 0.736046 0.422100 0.000000
C239  C     C_R   0.755034 0.736664 0.430049 0.000000
C240  C     C_R   0.778788 0.713042 0.462007 0.000000
C241  C     C_R   0.727125 0.688830 0.485703 0.000000
C242  C     C_R   0.651110 0.687523 0.477123 0.000000
C243  C     C_R   0.629323 0.710087 0.444554 0.000000
N81   N     N_R   0.557840 0.714834 0.434324 0.000000
H261  H     H_    0.439519 0.870427 0.392691 0.000000
H262  H     H_    0.451252 0.837609 0.346741 0.000000
H263  H     H_    0.392625 0.817115 0.388494 0.000000
H264  H     H_    0.514267 0.827366 0.427818 0.000000
H265  H     H_    0.449083 0.759479 0.408742 0.000000
H266  H     H_    0.490876 0.764881 0.360024 0.000000
H267  H     H_    0.796898 0.754144 0.412298 0.000000
H268  H     H_    0.838386 0.714044 0.468927 0.000000
H269  H     H_    0.746247 0.671274 0.511033 0.000000
H270  H     H_    0.609748 0.669813 0.496023 0.000000
C244  C     C_3   0.862182 0.680813 0.370370 0.000000
N82   N     N_3   0.876925 0.723269 0.352327 0.000000
C245  C     C_3   0.812452 0.734650 0.328692 0.000000
C246  C     C_R   0.827232 0.779188 0.313838 0.000000
N83   N     N_R   0.784786 0.812144 0.329640 0.000000
C247  C     C_R   0.832555 0.847873 0.323977 0.000000
C248  C     C_R   0.824548 0.890151 0.338110 0.000000
C249  C     C_R   0.885460 0.920372 0.334465 0.000000
C250  C     C_R   0.954183 0.908002 0.318334 0.000000
C251  C     C_R   0.961722 0.865596 0.304428 0.000000
C252  C     C_R   0.898943 0.836450 0.305584 0.000000
N84   N     N_R   0.895750 0.793353 0.295483 0.000000
H271  H     H_    0.802185 0.668780 0.366662 0.000000
H272  H     H_    0.900393 0.656962 0.356671 0.000000
H273  H     H_    0.875704 0.683518 0.403005 0.000000
H274  H     H_    0.925311 0.722463 0.333683 0.000000
H275  H     H_    0.798891 0.712170 0.303322 0.000000
H276  H     H_    0.761344 0.734697 0.348432 0.000000
H277  H     H_    0.774140 0.900238 0.353210 0.000000
H278  H     H_    0.880198 0.953519 0.345733 0.000000
H279  H     H_    0.002290 0.931509 0.316895 0.000000
H280  H     H_    0.016022 0.855892 0.292732 0.000000
C253  C     C_3   0.547481 0.976824 0.359538 0.000000
N85   N     N_3   0.608899 0.960732 0.382283 0.000000
C254  C     C_3   0.583980 0.918254 0.397640 0.000000
C255  C     C_R   0.647671 0.899624 0.418156 0.000000
N86   N     N_R   0.685645 0.864809 0.401777 0.000000
C256  C     C_R   0.742389 0.862476 0.428057 0.000000
C257  C     C_R   0.804098 0.837455 0.424544 0.000000
C258  C     C_R   0.853336 0.836715 0.456164 0.000000
C259  C     C_R   0.837390 0.858865 0.491939 0.000000
C260  C     C_R   0.776482 0.884717 0.494445 0.000000
C261  C     C_R   0.734059 0.890129 0.460344 0.000000
N87   N     N_R   0.675650 0.915997 0.454947 0.000000
H281  H     H_    0.556880 0.012607 0.356671 0.000000
H282  H     H_    0.546012 0.961160 0.328758 0.000000
H283  H     H_    0.492174 0.969359 0.375219 0.000000
H284  H     H_    0.619886 0.982043 0.407043 0.000000
H285  H     H_    0.535897 0.920728 0.419564 0.000000
H286  H     H_    0.566535 0.896519 0.371750 0.000000
H287  H     H_    0.816604 0.819212 0.397740 0.000000
H288  H     H_    0.901668 0.816820 0.453663 0.000000
H289  H     H_    0.871853 0.855542 0.518158 0.000000
H290  H     H_    0.761027 0.896932 0.523873 0.000000
C262  C     C_3   0.291089 0.658812 0.134045 0.000000
N88   N     N_3   0.274852 0.703066 0.146820 0.000000
C263  C     C_3   0.342217 0.729842 0.137638 0.000000
C264  C     C_R   0.335127 0.775877 0.151673 0.000000
N89   N     N_R   0.282443 0.803784 0.138252 0.000000
C265  C     C_R   0.305898 0.841544 0.157744 0.000000
C266  C     C_R   0.278628 0.881857 0.154029 0.000000
C267  C     C_R   0.305429 0.915772 0.179474 0.000000
C268  C     C_R   0.357119 0.908378 0.208991 0.000000
C269  C     C_R   0.386592 0.867956 0.210940 0.000000
C270  C     C_R   0.364310 0.836018 0.182793 0.000000
N90   N     N_R   0.386905 0.795194 0.178638 0.000000
H291  H     H_    0.237259 0.639013 0.131107 0.000000
H292  H     H_    0.320816 0.658141 0.103966 0.000000
H293  H     H_    0.326629 0.644660 0.156904 0.000000
H294  H     H_    0.270379 0.703970 0.178464 0.000000
H295  H     H_    0.389835 0.716957 0.153710 0.000000
H296  H     H_    0.355031 0.728042 0.104923 0.000000
H297  H     H_    0.239840 0.887517 0.130933 0.000000
H298  H     H_    0.284049 0.947755 0.177221 0.000000
H299  H     H_    0.374180 0.934171 0.230639 0.000000
H300  H     H_    0.420676 0.860970 0.236003 0.000000
C271  C     C_3   0.116696 0.669212 0.185803 0.000000
N91   N     N_3   0.097492 0.711752 0.201601 0.000000
C272  C     C_3   0.089478 0.738268 0.166982 0.000000
C273  C     C_R   0.080234 0.784042 0.180174 0.000000
N92   N     N_R   0.032175 0.797012 0.211708 0.000000
C274  C     C_R   0.028742 0.839994 0.204473 0.000000
C275  C     C_R   0.973970 0.867571 0.217001 0.000000
C276  C     C_R   0.984652 0.911181 0.208500 0.000000
C277  C     C_R   0.045738 0.925454 0.184373 0.000000
C278  C     C_R   0.088924 0.895347 0.163994 0.000000
C279  C     C_R   0.077661 0.852292 0.173633 0.000000
N93   N     N_R   0.108118 0.817134 0.155803 0.000000
H301  H     H_    0.172266 0.662549 0.196907 0.000000
H302  H     H_    0.075552 0.643826 0.197140 0.000000
H303  H     H_    0.118441 0.667768 0.152129 0.000000
H304  H     H_    0.144577 0.725158 0.217052 0.000000
H305  H     H_    0.141379 0.738081 0.147454 0.000000
H306  H     H_    0.039801 0.725386 0.149479 0.000000
H307  H     H_    0.921985 0.855684 0.231410 0.000000
H308  H     H_    0.944512 0.933982 0.220031 0.000000
H309  H     H_    0.054249 0.959656 0.177817 0.000000
H310  H     H_    0.128932 0.906069 0.141063 0.000000
C280  C     C_3   0.004314 0.957441 0.088855 0.000000
N94   N     N_3   0.079781 0.951287 0.071376 0.000000
C281  C     C_3   0.081442 0.905903 0.057842 0.000000
C282  C     C_R   0.159336 0.894572 0.045890 0.000000
N95   N     N_R   0.196239 0.911010 0.011255 0.000000
C283  C     C_R   0.257202 0.886222 0.008563 0.000000
C284  C     C_R   0.304372 0.878500 0.975581 0.000000
C285  C     C_R   0.364971 0.852982 0.979287 0.000000
C286  C     C_R   0.376082 0.833820 0.015599 0.000000
C287  C     C_R   0.322011 0.836372 0.046344 0.000000
C288  C     C_R   0.260271 0.860567 0.041138 0.000000
N96   N     N_R   0.196484 0.861823 0.064385 0.000000
H311  H     H_    0.001630 0.991376 0.101118 0.000000
H312  H     H_    0.960836 0.950518 0.065478 0.000000
H313  H     H_    0.990237 0.934592 0.113352 0.000000
H314  H     H_    0.119373 0.957615 0.094132 0.000000
H315  H     H_    0.062063 0.885042 0.082931 0.000000
H316  H     H_    0.044564 0.899972 0.031258 0.000000
H317  H     H_    0.293655 0.889992 0.946650 0.000000
H318  H     H_    0.403707 0.848138 0.953781 0.000000
H319  H     H_    0.424884 0.814993 0.019151 0.000000
H320  H     H_    0.330829 0.820302 0.073651 0.000000
C289  C     C_3   0.943792 0.829652 0.054933 0.000000
N97   N     N_3   0.006712 0.808466 0.071851 0.000000
C290  C     C_3   0.993530 0.761805 0.065658 0.000000
C291  C     C_R   0.064381 0.740744 0.055504 0.000000
N98   N     N_R   0.136310 0.754911 0.068928 0.000000
C292  C     C_R   0.179844 0.726873 0.047795 0.000000
C293  C     C_R   0.257106 0.728835 0.043876 0.000000
C294  C     C_R   0.290974 0.698906 0.018045 0.000000
C295  C     C_R   0.247105 0.667851 0.996127 0.000000
C296  C     C_R   0.168890 0.667275 0.999029 0.000000
C297  C     C_R   0.136664 0.697532 0.024580 0.000000
N99   N     N_R   0.062930 0.705717 0.028035 0.000000
H321  H     H_    0.935057 0.860657 0.071998 0.000000
H322  H     H_    0.957753 0.837618 0.023106 0.000000
H323  H     H_    0.890363 0.808909 0.056994 0.000000
H324  H     H_    0.004312 0.814819 0.103061 0.000000
H325  H     H_    0.966382 0.746647 0.092530 0.000000
H326  H     H_    0.956859 0.754579 0.039726 0.000000
H327  H     H_    0.290292 0.753820 0.059462 0.000000
H328  H     H_    0.352029 0.699794 0.014721 0.000000
H329  H     H_    0.274126 0.644308 0.976388 0.000000
H330  H     H_    0.134804 0.642808 0.982653 0.000000
C298  C     C_3   0.894054 0.398704 0.743051 0.000000
N100  N     N_3   0.839925 0.364639 0.757206 0.000000
C299  C     C_3   0.879207 0.325677 0.764588 0.000000
C300  C     C_R   0.844036 0.305422 0.801145 0.000000
N101  N     N_R   0.881813 0.303667 0.837291 0.000000
C301  C     C_R   0.826170 0.290667 0.863405 0.000000
C302  C     C_R   0.834408 0.282443 0.903837 0.000000
C303  C     C_R   0.772513 0.265174 0.925486 0.000000
C304  C     C_R   0.705844 0.254071 0.905766 0.000000
C305  C     C_R   0.699856 0.261118 0.864764 0.000000
C306  C     C_R   0.759747 0.281773 0.843720 0.000000
N102  N     N_R   0.768197 0.291227 0.803450 0.000000
H331  H     H_    0.863221 0.423351 0.727388 0.000000
H332  H     H_    0.923105 0.414946 0.769416 0.000000
H333  H     H_    0.936049 0.384897 0.721436 0.000000
H334  H     H_    0.801625 0.356745 0.734231 0.000000
H335  H     H_    0.874207 0.302570 0.738194 0.000000
H336  H     H_    0.939411 0.334465 0.770275 0.000000
H337  H     H_    0.888119 0.289330 0.918411 0.000000
H338  H     H_    0.776591 0.258804 0.957404 0.000000
H339  H     H_    0.658401 0.238583 0.922316 0.000000
H340  H     H_    0.649512 0.248547 0.851199 0.000000
C307  C     C_3   0.012705 0.181750 0.771469 0.000000
N103  N     N_3   0.051262 0.220206 0.755281 0.000000
C308  C     C_3   0.087445 0.242100 0.789514 0.000000
C309  C     C_R   0.096530 0.288633 0.782193 0.000000
N104  N     N_R   0.141218 0.306539 0.751408 0.000000
C310  C     C_R   0.136420 0.349707 0.759612 0.000000
C311  C     C_R   0.178601 0.384189 0.743475 0.000000
C312  C     C_R   0.160450 0.426007 0.755172 0.000000
C313  C     C_R   0.101294 0.432579 0.782849 0.000000
C314  C     C_R   0.063556 0.397447 0.801324 0.000000
C315  C     C_R   0.085174 0.356391 0.790523 0.000000
N105  N     N_R   0.061264 0.318182 0.806906 0.000000
H341  H     H_    0.013337 0.154962 0.748256 0.000000
H342  H     H_    0.041940 0.171218 0.797994 0.000000
H343  H     H_    0.955441 0.190235 0.781784 0.000000
H344  H     H_    0.009580 0.239920 0.745696 0.000000
H345  H     H_    0.050243 0.238692 0.816670 0.000000
H346  H     H_    0.142579 0.228402 0.794811 0.000000
H347  H     H_    0.228501 0.379081 0.725177 0.000000
H348  H     H_    0.192852 0.453735 0.742841 0.000000
H349  H     H_    0.086693 0.465362 0.791238 0.000000
H350  H     H_    0.018926 0.402411 0.823640 0.000000
C316  C     C_3   0.782939 0.400835 0.867074 0.000000
N106  N     N_3   0.860540 0.388613 0.870991 0.000000
C317  C     C_3   0.876094 0.387317 0.914042 0.000000
C318  C     C_R   0.958365 0.388501 0.920307 0.000000
N107  N     N_R   0.006434 0.364254 0.896156 0.000000
C319  C     C_R   0.073224 0.387879 0.900072 0.000000
C320  C     C_R   0.141202 0.381729 0.880386 0.000000
C321  C     C_R   0.198980 0.414145 0.883609 0.000000
C322  C     C_R   0.186621 0.452887 0.904754 0.000000
C323  C     C_R   0.117892 0.458214 0.924706 0.000000
C324  C     C_R   0.064570 0.423939 0.924288 0.000000
N108  N     N_R   0.994124 0.424067 0.940340 0.000000
H351  H     H_    0.766165 0.395955 0.834925 0.000000
H352  H     H_    0.744014 0.380277 0.886494 0.000000
H353  H     H_    0.778863 0.435719 0.876112 0.000000
H354  H     H_    0.895844 0.413655 0.858803 0.000000
H355  H     H_    0.859136 0.417220 0.927916 0.000000
H356  H     H_    0.844450 0.360337 0.929181 0.000000
H357  H     H_    0.148473 0.353716 0.861058 0.000000
H358  H     H_    0.252420 0.410301 0.867521 0.000000
H359  H     H_    0.230033 0.479312 0.904804 0.000000
H360  H     H_    0.104286 0.489448 0.937683 0.000000
C325  C     C_3   0.253173 0.299993 0.884602 0.000000
N109  N     N_3   0.177845 0.279688 0.878871 0.000000
C326  C     C_3   0.143532 0.271571 0.918545 0.000000
C327  C     C_R   0.075189 0.241934 0.912930 0.000000
N110  N     N_R   0.015838 0.251932 0.888902 0.000000
C328  C     C_R   0.970209 0.214753 0.890959 0.000000
C329  C     C_R   0.905601 0.202963 0.869884 0.000000
C330  C     C_R   0.862032 0.166359 0.881616 0.000000
C331  C     C_R   0.889483 0.138085 0.908585 0.000000
C332  C     C_R   0.960259 0.146798 0.924660 0.000000
C333  C     C_R   0.998704 0.185911 0.916401 0.000000
N111  N     N_R   0.067045 0.201144 0.929891 0.000000
H361  H     H_    0.293345 0.274454 0.880769 0.000000
H362  H     H_    0.266481 0.324180 0.860955 0.000000
H363  H     H_    0.257679 0.316419 0.915072 0.000000
H364  H     H_    0.184363 0.249494 0.864210 0.000000
H365  H     H_    0.183858 0.255949 0.937801 0.000000
H366  H     H_    0.126946 0.302602 0.933366 0.000000
H367  H     H_    0.888362 0.221272 0.844984 0.000000
H368  H     H_    0.806232 0.159511 0.869591 0.000000
H369  H     H_    0.856278 0.108619 0.916234 0.000000
H370  H     H_    0.983214 0.123670 0.943665 0.000000
C334  C     C_3   0.236023 0.813210 0.269906 0.000000
N112  N     N_3   0.257466 0.768690 0.262118 0.000000
C335  C     C_3   0.333262 0.764819 0.277137 0.000000
C336  C     C_R   0.361573 0.721819 0.264160 0.000000
N113  N     N_R   0.340870 0.683079 0.282370 0.000000
C337  C     C_R   0.389637 0.655450 0.264393 0.000000
C338  C     C_R   0.402999 0.613484 0.274393 0.000000
C339  C     C_R   0.465246 0.594464 0.257170 0.000000
C340  C     C_R   0.509154 0.615271 0.227841 0.000000
C341  C     C_R   0.492948 0.656272 0.216452 0.000000
C342  C     C_R   0.435031 0.676438 0.236497 0.000000
N114  N     N_R   0.419516 0.718640 0.235984 0.000000
H371  H     H_    0.173421 0.813953 0.269919 0.000000
H372  H     H_    0.257660 0.826140 0.299542 0.000000
H373  H     H_    0.258746 0.834239 0.245488 0.000000
H374  H     H_    0.260299 0.763607 0.230649 0.000000
H375  H     H_    0.371864 0.790888 0.264396 0.000000
H376  H     H_    0.334023 0.768266 0.310643 0.000000
H377  H     H_    0.371756 0.596689 0.297942 0.000000
H378  H     H_    0.478790 0.562432 0.265627 0.000000
H379  H     H_    0.556722 0.599176 0.214562 0.000000
H380  H     H_    0.526688 0.671759 0.193371 0.000000
C343  C     C_3   0.726067 0.816949 0.231650 0.000000
N115  N     N_3   0.667866 0.797424 0.205078 0.000000
C344  C     C_3   0.676355 0.750953 0.202992 0.000000
C345  C     C_R   0.625214 0.729710 0.172504 0.000000
N116  N     N_R   0.555101 0.744792 0.165774 0.000000
C346  C     C_R   0.543871 0.731901 0.126602 0.000000
C347  C     C_R   0.498411 0.749606 0.099261 0.000000
C348  C     C_R   0.498491 0.732747 0.059665 0.000000
C349  C     C_R   0.546240 0.700312 0.047633 0.000000
C350  C     C_R   0.599183 0.687330 0.074153 0.000000
C351  C     C_R   0.598612 0.705339 0.113008 0.000000
N117  N     N_R   0.652279 0.703755 0.141052 0.000000
H381  H     H_    0.782019 0.805443 0.223460 0.000000
H382  H     H_    0.728604 0.852911 0.229814 0.000000
H383  H     H_    0.713392 0.807101 0.262946 0.000000
H384  H     H_    0.678252 0.809202 0.175968 0.000000
H385  H     H_    0.732950 0.746697 0.192005 0.000000
H386  H     H_    0.670040 0.736389 0.232904 0.000000
H387  H     H_    0.465956 0.777159 0.107658 0.000000
H388  H     H_    0.461879 0.745359 0.037750 0.000000
H389  H     H_    0.545822 0.687527 0.016607 0.000000
H390  H     H_    0.641432 0.665156 0.064047 0.000000
C352  C     C_3   0.355316 0.928303 0.682631 0.000000
N118  N     N_3   0.385649 0.902491 0.714346 0.000000
C353  C     C_3   0.330964 0.890825 0.746004 0.000000
C354  C     C_R   0.286342 0.926479 0.753236 0.000000
N119  N     N_R   0.308487 0.961889 0.776459 0.000000
C355  C     C_R   0.251226 0.987933 0.771818 0.000000
C356  C     C_R   0.228951 0.018142 0.800161 0.000000
C357  C     C_R   0.154477 0.028521 0.799495 0.000000
C358  C     C_R   0.110441 0.018352 0.765935 0.000000
C359  C     C_R   0.132574 0.986859 0.738273 0.000000
C360  C     C_R   0.199893 0.968915 0.745097 0.000000
N120  N     N_R   0.219675 0.928605 0.734029 0.000000
H391  H     H_    0.349162 0.962692 0.692466 0.000000
H392  H     H_    0.396298 0.929473 0.656914 0.000000
H393  H     H_    0.301213 0.913630 0.671143 0.000000
H394  H     H_    0.425463 0.922603 0.729531 0.000000
H395  H     H_    0.288464 0.865675 0.737280 0.000000
H396  H     H_    0.359490 0.882295 0.773539 0.000000
H397  H     H_    0.262557 0.026502 0.826465 0.000000
H398  H     H_    0.129468 0.043300 0.826136 0.000000
H399  H     H_    0.054463 0.030414 0.764520 0.000000
H400  H     H_    0.093859 0.973680 0.715873 0.000000
C361  C     C_3   0.354012 0.726123 0.723830 0.000000
N121  N     N_3   0.338084 0.753257 0.690105 0.000000
C362  C     C_3   0.342273 0.798482 0.704629 0.000000
C363  C     C_R   0.317076 0.826511 0.671511 0.000000
N122  N     N_R   0.349315 0.819124 0.633442 0.000000
C364  C     C_R   0.286688 0.813689 0.610623 0.000000
C365  C     C_R   0.282184 0.799225 0.571222 0.000000
C366  C     C_R   0.211817 0.794569 0.553537 0.000000
C367  C     C_R   0.146612 0.802184 0.576336 0.000000
C368  C     C_R   0.151861 0.816385 0.616533 0.000000
C369  C     C_R   0.223121 0.823159 0.632499 0.000000
N123  N     N_R   0.240834 0.836537 0.670542 0.000000
H401  H     H_    0.409086 0.737355 0.737279 0.000000
H402  H     H_    0.307990 0.727449 0.747358 0.000000
H403  H     H_    0.357130 0.691877 0.712497 0.000000
H404  H     H_    0.282222 0.745054 0.681737 0.000000
H405  H     H_    0.304393 0.799962 0.731833 0.000000
H406  H     H_    0.401443 0.808696 0.712728 0.000000
H407  H     H_    0.332145 0.790937 0.555204 0.000000
H408  H     H_    0.207521 0.784375 0.521921 0.000000
H409  H     H_    0.091677 0.797434 0.562548 0.000000
H410  H     H_    0.101317 0.822247 0.634497 0.000000
C370  C     C_3   0.897730 0.831931 0.719032 0.000000
N124  N     N_3   0.946535 0.852892 0.688434 0.000000
C371  C     C_3   0.970221 0.896756 0.702787 0.000000
C372  C     C_R   0.016531 0.917814 0.670552 0.000000
N125  N     N_R   0.090301 0.906286 0.664699 0.000000
C373  C     C_R   0.102853 0.914452 0.625028 0.000000
C374  C     C_R   0.167947 0.910541 0.602147 0.000000
C375  C     C_R   0.162613 0.910070 0.560207 0.000000
C376  C     C_R   0.092237 0.911201 0.542725 0.000000
C377  C     C_R   0.028733 0.918200 0.566916 0.000000
C378  C     C_R   0.038223 0.925983 0.607762 0.000000
N126  N     N_R   0.984572 0.933762 0.636529 0.000000
H411  H     H_    0.841212 0.845354 0.719062 0.000000
H412  H     H_    0.892566 0.796352 0.712047 0.000000
H413  H     H_    0.921692 0.837468 0.749407 0.000000
H414  H     H_    0.994652 0.835152 0.684403 0.000000
H415  H     H_    0.921510 0.914873 0.712059 0.000000
H416  H     H_    0.006965 0.895642 0.728586 0.000000
H417  H     H_    0.220819 0.906185 0.616347 0.000000
H418  H     H_    0.212202 0.905071 0.541092 0.000000
H419  H     H_    0.086891 0.906146 0.510216 0.000000
H420  H     H_    0.972892 0.914290 0.554467 0.000000
C379  C     C_3   0.213470 0.346265 0.224760 0.000000
N127  N     N_3   0.190655 0.381726 0.250360 0.000000
C380  C     C_3   0.128814 0.365866 0.275487 0.000000
C381  C     C_R   0.095070 0.403340 0.294841 0.000000
N128  N     N_R   0.132194 0.433817 0.320574 0.000000
C382  C     C_R   0.073999 0.452492 0.339340 0.000000
C383  C     C_R   0.078454 0.483850 0.369849 0.000000
C384  C     C_R   0.012012 0.495236 0.389131 0.000000
C385  C     C_R   0.944201 0.472757 0.379283 0.000000
C386  C     C_R   0.941916 0.440427 0.348884 0.000000
C387  C     C_R   0.006842 0.433741 0.326191 0.000000
N129  N     N_R   0.018356 0.405734 0.293992 0.000000
H421  H     H_    0.229600 0.319176 0.243303 0.000000
H422  H     H_    0.167325 0.333211 0.205756 0.000000
H423  H     H_    0.260709 0.359964 0.205910 0.000000
H424  H     H_    0.173826 0.406292 0.232726 0.000000
H425  H     H_    0.085846 0.347293 0.257481 0.000000
H426  H     H_    0.147285 0.343859 0.298534 0.000000
H427  H     H_    0.132724 0.497123 0.379862 0.000000
H428  H     H_    0.013508 0.519548 0.413682 0.000000
H429  H     H_    0.893158 0.479652 0.396385 0.000000
H430  H     H_    0.892663 0.418867 0.346471 0.000000
C388  C     C_3   0.828133 0.309275 0.119169 0.000000
N130  N     N_3   0.825556 0.337316 0.155370 0.000000
C389  C     C_3   0.861220 0.379844 0.147317 0.000000
C390  C     C_R   0.846399 0.411748 0.181852 0.000000
N131  N     N_R   0.796928 0.443720 0.177787 0.000000
C391  C     C_R   0.799462 0.465305 0.213679 0.000000
C392  C     C_R   0.755204 0.497777 0.227802 0.000000
C393  C     C_R   0.776286 0.518913 0.263795 0.000000
C394  C     C_R   0.845978 0.512605 0.280225 0.000000
C395  C     C_R   0.888544 0.479496 0.264855 0.000000
C396  C     C_R   0.857076 0.452240 0.235225 0.000000
N132  N     N_R   0.882448 0.414980 0.218837 0.000000
H431  H     H_    0.804592 0.276146 0.126696 0.000000
H432  H     H_    0.792901 0.321980 0.095431 0.000000
H433  H     H_    0.887764 0.307050 0.108603 0.000000
H434  H     H_    0.857831 0.323900 0.176801 0.000000
H435  H     H_    0.922339 0.377238 0.141485 0.000000
H436  H     H_    0.836217 0.391544 0.119754 0.000000
H437  H     H_    0.704033 0.504979 0.212748 0.000000
H438  H     H_    0.738663 0.540228 0.279378 0.000000
H439  H     H_    0.864928 0.531979 0.306452 0.000000
H440  H     H_    0.944182 0.475726 0.275396 0.000000
C397  C     C_3   0.603392 0.153867 0.864339 0.000000
N133  N     N_3   0.645130 0.163737 0.826982 0.000000
C398  C     C_3   0.593960 0.163392 0.792951 0.000000
C399  C     C_R   0.555942 0.205417 0.791818 0.000000
N134  N     N_R   0.597306 0.244255 0.785457 0.000000
C400  C     C_R   0.554697 0.273422 0.805312 0.000000
C401  C     C_R   0.578293 0.315233 0.817078 0.000000
C402  C     C_R   0.535926 0.336834 0.846337 0.000000
C403  C     C_R   0.473186 0.315522 0.864591 0.000000
C404  C     C_R   0.451178 0.273181 0.852514 0.000000
C405  C     C_R   0.491115 0.253382 0.821696 0.000000
N135  N     N_R   0.486379 0.210791 0.810872 0.000000
H441  H     H_    0.643418 0.155781 0.889849 0.000000
H442  H     H_    0.559733 0.177592 0.870826 0.000000
H443  H     H_    0.578220 0.120116 0.861762 0.000000
H444  H     H_    0.678690 0.137358 0.821597 0.000000
H445  H     H_    0.627217 0.158367 0.764550 0.000000
H446  H     H_    0.552734 0.135989 0.796458 0.000000
H447  H     H_    0.632789 0.328883 0.807489 0.000000
H448  H     H_    0.554639 0.369336 0.856901 0.000000
H449  H     H_    0.442498 0.331635 0.889016 0.000000
H450  H     H_    0.406417 0.255176 0.868185 0.000000
C406  C     C_3   0.794886 0.353085 0.651132 0.000000
N136  N     N_3   0.759219 0.311744 0.664021 0.000000
C407  C     C_3   0.811847 0.277915 0.657142 0.000000
C408  C     C_R   0.793034 0.236667 0.679372 0.000000
N137  N     N_R   0.758473 0.234318 0.717705 0.000000
C409  C     C_R   0.785852 0.198231 0.731876 0.000000
C410  C     C_R   0.780571 0.184279 0.770733 0.000000
C411  C     C_R   0.815973 0.146869 0.779139 0.000000
C412  C     C_R   0.866085 0.129630 0.751111 0.000000
C413  C     C_R   0.878370 0.148184 0.713902 0.000000
C414  C     C_R   0.831525 0.179361 0.703706 0.000000
N138  N     N_R   0.834120 0.201038 0.669222 0.000000
H451  H     H_    0.756355 0.379406 0.658808 0.000000
H452  H     H_    0.848892 0.360886 0.666689 0.000000
H453  H     H_    0.804528 0.351690 0.617711 0.000000
H454  H     H_    0.718423 0.305524 0.642207 0.000000
H455  H     H_    0.813428 0.269347 0.624230 0.000000
H456  H     H_    0.867889 0.290376 0.667833 0.000000
H457  H     H_    0.750893 0.202469 0.793773 0.000000
H458  H     H_    0.809455 0.132308 0.808275 0.000000
H459  H     H_    0.900757 0.104133 0.759446 0.000000
H460  H     H_    0.923977 0.138417 0.694156 0.000000
C415  C     C_3   0.637745 0.014135 0.833889 0.000000
N139  N     N_3   0.578843 0.013722 0.803911 0.000000
C416  C     C_3   0.590466 0.979911 0.772660 0.000000
C417  C     C_R   0.555529 0.936955 0.785745 0.000000
N140  N     N_R   0.485646 0.933650 0.805774 0.000000
C418  C     C_R   0.482489 0.892034 0.817765 0.000000
C419  C     C_R   0.430482 0.871791 0.843427 0.000000
C420  C     C_R   0.436025 0.827988 0.850447 0.000000
C421  C     C_R   0.493542 0.805345 0.831766 0.000000
C422  C     C_R   0.547716 0.826974 0.807512 0.000000
C423  C     C_R   0.542093 0.870636 0.802218 0.000000
N141  N     N_R   0.590825 0.897616 0.781678 0.000000
H461  H     H_    0.618807 0.031728 0.861904 0.000000
H462  H     H_    0.649349 0.980581 0.841667 0.000000
H463  H     H_    0.689530 0.031916 0.821897 0.000000
H464  H     H_    0.586364 0.043596 0.789731 0.000000
H465  H     H_    0.565077 0.989061 0.744489 0.000000
H466  H     H_    0.650441 0.978589 0.765079 0.000000
H467  H     H_    0.387073 0.889555 0.857961 0.000000
H468  H     H_    0.395031 0.811292 0.870376 0.000000
H469  H     H_    0.497250 0.771049 0.837083 0.000000
H470  H     H_    0.593991 0.810416 0.794057 0.000000
C424  C     C_3   0.555014 0.947316 0.668523 0.000000
N142  N     N_3   0.591655 0.910467 0.681971 0.000000
C425  C     C_3   0.532758 0.876986 0.689360 0.000000
C426  C     C_R   0.565668 0.836135 0.683673 0.000000
N143  N     N_R   0.548317 0.809642 0.650537 0.000000
C427  C     C_R   0.606368 0.782705 0.649910 0.000000
C428  C     C_R   0.628135 0.754325 0.619073 0.000000
C429  C     C_R   0.693226 0.732370 0.623276 0.000000
C430  C     C_R   0.738764 0.741208 0.656498 0.000000
C431  C     C_R   0.720383 0.772840 0.685248 0.000000
C432  C     C_R   0.652924 0.792337 0.682199 0.000000
N144  N     N_R   0.629164 0.827033 0.704244 0.000000
H471  H     H_    0.532009 0.938803 0.638286 0.000000
H472  H     H_    0.508732 0.955145 0.689606 0.000000
H473  H     H_    0.596502 0.975516 0.669055 0.000000
H474  H     H_    0.614637 0.919940 0.709685 0.000000
H475  H     H_    0.512904 0.878426 0.721065 0.000000
H476  H     H_    0.487402 0.877644 0.666931 0.000000
H477  H     H_    0.598548 0.750460 0.591096 0.000000
H478  H     H_    0.710539 0.709659 0.599523 0.000000
H479  H     H_    0.791346 0.725322 0.658583 0.000000
H480  H     H_    0.759790 0.782961 0.708415 0.000000
C433  C     C_3   0.836684 0.833984 0.611547 0.000000
N145  N     N_3   0.839662 0.878212 0.628642 0.000000
C434  C     C_3   0.767456 0.885444 0.649163 0.000000
C435  C     C_R   0.777257 0.918991 0.682519 0.000000
N146  N     N_R   0.824027 0.955966 0.678545 0.000000
C436  C     C_R   0.826697 0.973074 0.716628 0.000000
C437  C     C_R   0.875839 0.005707 0.731771 0.000000
C438  C     C_R   0.870029 0.016355 0.772908 0.000000
C439  C     C_R   0.818694 0.993321 0.797813 0.000000
C440  C     C_R   0.777035 0.957355 0.782467 0.000000
C441  C     C_R   0.782045 0.948028 0.741844 0.000000
N147  N     N_R   0.749320 0.913379 0.721589 0.000000
H481  H     H_    0.883479 0.830940 0.588719 0.000000
H482  H     H_    0.844122 0.810669 0.635773 0.000000
H483  H     H_    0.781731 0.826437 0.596664 0.000000
H484  H     H_    0.844870 0.898430 0.603950 0.000000
H485  H     H_    0.726904 0.896000 0.627241 0.000000
H486  H     H_    0.745575 0.855171 0.662555 0.000000
H487  H     H_    0.917796 0.022553 0.712701 0.000000
H488  H     H_    0.908313 0.041081 0.786493 0.000000
H489  H     H_    0.814818 0.001926 0.829901 0.000000
H490  H     H_    0.737125 0.938858 0.800878 0.000000
C442  C     C_3   0.015305 0.585216 0.302091 0.000000
N148  N     N_3   0.037945 0.629673 0.315133 0.000000
C443  C     C_3   0.067360 0.653130 0.279838 0.000000
C444  C     C_R   0.099984 0.696689 0.293075 0.000000
N149  N     N_R   0.057645 0.733228 0.293988 0.000000
C445  C     C_R   0.093723 0.758556 0.322725 0.000000
C446  C     C_R   0.068017 0.794251 0.343454 0.000000
C447  C     C_R   0.114183 0.816056 0.371766 0.000000
C448  C     C_R   0.184793 0.801409 0.379313 0.000000
C449  C     C_R   0.207102 0.763128 0.360790 0.000000
C450  C     C_R   0.158524 0.741063 0.333990 0.000000
N150  N     N_R   0.165059 0.701479 0.315818 0.000000
H491  H     H_    0.065910 0.567437 0.292906 0.000000
H492  H     H_    0.985782 0.568367 0.327792 0.000000
H493  H     H_    0.976587 0.585270 0.276122 0.000000
H494  H     H_    0.082082 0.628039 0.335389 0.000000
H495  H     H_    0.110101 0.634625 0.264323 0.000000
H496  H     H_    0.022335 0.656974 0.258102 0.000000
H497  H     H_    0.010820 0.802422 0.340995 0.000000
H498  H     H_    0.094742 0.844341 0.388394 0.000000
H499  H     H_    0.221317 0.819046 0.400901 0.000000
H500  H     H_    0.261510 0.751732 0.367335 0.000000
C451  C     C_3   0.829920 0.824919 0.137135 0.000000
N151  N     N_3   0.828108 0.778024 0.142469 0.000000
C452  C     C_3   0.888513 0.769639 0.169570 0.000000
C453  C     C_R   0.876697 0.726380 0.188469 0.000000
N152  N     N_R   0.819774 0.696337 0.177618 0.000000
C454  C     C_R   0.812647 0.671009 0.209921 0.000000
C455  C     C_R   0.751393 0.643624 0.219853 0.000000
C456  C     C_R   0.752828 0.622236 0.255678 0.000000
C457  C     C_R   0.816037 0.627259 0.279836 0.000000
C458  C     C_R   0.874465 0.657570 0.270275 0.000000
C459  C     C_R   0.868729 0.681190 0.236194 0.000000
N153  N     N_R   0.908780 0.717679 0.224726 0.000000
H501  H     H_    0.800403 0.831614 0.108901 0.000000
H502  H     H_    0.801121 0.841455 0.162874 0.000000
H503  H     H_    0.889271 0.838666 0.135621 0.000000
H504  H     H_    0.842905 0.764072 0.114450 0.000000
H505  H     H_    0.942519 0.771807 0.152723 0.000000
H506  H     H_    0.889886 0.794361 0.194322 0.000000
H507  H     H_    0.701075 0.641160 0.201909 0.000000
H508  H     H_    0.702715 0.603130 0.265376 0.000000
H509  H     H_    0.816658 0.610263 0.308011 0.000000
H510  H     H_    0.918525 0.665442 0.291162 0.000000
C460  C     C_3   0.668849 0.794899 0.518838 0.000000
N154  N     N_3   0.639360 0.837454 0.515295 0.000000
C461  C     C_3   0.623867 0.854886 0.555774 0.000000
C462  C     C_R   0.561316 0.884280 0.555003 0.000000
N155  N     N_R   0.564823 0.924897 0.537018 0.000000
C463  C     C_R   0.494458 0.937740 0.545825 0.000000
C464  C     C_R   0.468049 0.977910 0.540376 0.000000
C465  C     C_R   0.395559 0.986022 0.553470 0.000000
C466  C     C_R   0.350928 0.954006 0.572478 0.000000
C467  C     C_R   0.378917 0.913890 0.579274 0.000000
C468  C     C_R   0.451828 0.906759 0.566671 0.000000
N156  N     N_R   0.492851 0.872374 0.573954 0.000000
H511  H     H_    0.621358 0.769828 0.521624 0.000000
H512  H     H_    0.703402 0.787937 0.491369 0.000000
H513  H     H_    0.706086 0.794692 0.545349 0.000000
H514  H     H_    0.589463 0.834090 0.499119 0.000000
H515  H     H_    0.604963 0.827912 0.575541 0.000000
H516  H     H_    0.674924 0.872151 0.568404 0.000000
H517  H     H_    0.505679 0.004188 0.531094 0.000000
H518  H     H_    0.374776 0.018046 0.550428 0.000000
H519  H     H_    0.295503 0.961694 0.583868 0.000000
H520  H     H_    0.345367 0.890186 0.595855 0.000000
C469  C     C_3   0.863790 0.080677 0.516973 0.000000
N157  N     N_3   0.783310 0.070896 0.524492 0.000000
C470  C     C_3   0.745395 0.075789 0.486605 0.000000
C471  C     C_R   0.661761 0.070284 0.491605 0.000000
N158  N     N_R   0.623457 0.029137 0.485572 0.000000
C472  C     C_R   0.558378 0.040699 0.469458 0.000000
C473  C     C_R   0.500681 0.013152 0.454354 0.000000
C474  C     C_R   0.439167 0.031022 0.437758 0.000000
C475  C     C_R   0.437379 0.075781 0.435217 0.000000
C476  C     C_R   0.495967 0.103178 0.450251 0.000000
C477  C     C_R   0.555404 0.085306 0.468868 0.000000
N159  N     N_R   0.619241 0.106038 0.484454 0.000000
H521  H     H_    0.895629 0.067860 0.541725 0.000000
H522  H     H_    0.882175 0.066976 0.487134 0.000000
H523  H     H_    0.876582 0.115770 0.516700 0.000000
H524  H     H_    0.765462 0.094593 0.545231 0.000000
H525  H     H_    0.760159 0.108460 0.474897 0.000000
H526  H     H_    0.763409 0.051679 0.463281 0.000000
H527  H     H_    0.502475 0.978380 0.456239 0.000000
H528  H     H_    0.392865 0.009946 0.426052 0.000000
H529  H     H_    0.389936 0.089435 0.421209 0.000000
H530  H     H_    0.494188 0.137903 0.447112 0.000000
C478  C     C_3   0.584220 0.023583 0.603934 0.000000
N160  N     N_3   0.653754 0.013579 0.582191 0.000000
C479  C     C_3   0.690205 0.977036 0.598785 0.000000
C480  C     C_R   0.755778 0.969945 0.571041 0.000000
N161  N     N_R   0.743206 0.971067 0.530547 0.000000
C481  C     C_R   0.812949 0.976553 0.513655 0.000000
C482  C     C_R   0.832448 0.979002 0.472917 0.000000
C483  C     C_R   0.908567 0.984261 0.462224 0.000000
C484  C     C_R   0.962245 0.989615 0.492282 0.000000
C485  C     C_R   0.940320 0.987774 0.532948 0.000000
C486  C     C_R   0.865555 0.977995 0.542946 0.000000
N162  N     N_R   0.832028 0.972588 0.580186 0.000000
H531  H     H_    0.553560 0.046596 0.586605 0.000000
H532  H     H_    0.545524 0.994832 0.605432 0.000000
H533  H     H_    0.596112 0.037702 0.634428 0.000000
H534  H     H_    0.691479 0.040691 0.584833 0.000000
H535  H     H_    0.706552 0.983355 0.630494 0.000000
H536  H     H_    0.651094 0.947693 0.597560 0.000000
H537  H     H_    0.789961 0.977174 0.449815 0.000000
H538  H     H_    0.925942 0.986151 0.430549 0.000000
H539  H     H_    0.021473 0.995787 0.483959 0.000000
H540  H     H_    0.981320 0.993148 0.555933 0.000000
C487  C     C_3   0.383682 0.524930 0.194575 0.000000
N163  N     N_3   0.345455 0.489032 0.216176 0.000000
C488  C     C_3   0.394991 0.469975 0.244001 0.000000
C489  C     C_R   0.357956 0.428625 0.259183 0.000000
N164  N     N_R   0.308133 0.426897 0.292329 0.000000
C490  C     C_R   0.307655 0.384854 0.302539 0.000000
C491  C     C_R   0.270374 0.365482 0.335142 0.000000
C492  C     C_R   0.278736 0.321861 0.341109 0.000000
C493  C     C_R   0.324234 0.298556 0.314711 0.000000
C494  C     C_R   0.361013 0.318689 0.282165 0.000000
C495  C     C_R   0.351481 0.362153 0.276220 0.000000
N165  N     N_R   0.384568 0.388698 0.248018 0.000000
H541  H     H_    0.360385 0.525951 0.163793 0.000000
H542  H     H_    0.369539 0.555829 0.209827 0.000000
H543  H     H_    0.445980 0.522333 0.192930 0.000000
H544  H     H_    0.321137 0.465544 0.196211 0.000000
H545  H     H_    0.449363 0.462607 0.228672 0.000000
H546  H     H_    0.406037 0.492958 0.270070 0.000000
H547  H     H_    0.231640 0.382601 0.354317 0.000000
H548  H     H_    0.249229 0.305868 0.366216 0.000000
H549  H     H_    0.331545 0.264518 0.319687 0.000000
H550  H     H_    0.397947 0.300491 0.263595 0.000000
C496  C     C_3   0.714277 0.333070 0.218329 0.000000
N166  N     N_3   0.699943 0.374109 0.200495 0.000000
C497  C     C_3   0.645826 0.367661 0.168767 0.000000
C498  C     C_R   0.604276 0.407713 0.166814 0.000000
N167  N     N_R   0.527172 0.406118 0.174459 0.000000
C499  C     C_R   0.505184 0.437341 0.150583 0.000000
C500  C     C_R   0.432782 0.445130 0.141343 0.000000
C501  C     C_R   0.421552 0.472698 0.110016 0.000000
C502  C     C_R   0.482597 0.489323 0.086961 0.000000
C503  C     C_R   0.555461 0.480347 0.096578 0.000000
C504  C     C_R   0.565768 0.456992 0.130570 0.000000
N168  N     N_R   0.630812 0.441510 0.142667 0.000000
H551  H     H_    0.698306 0.304743 0.197900 0.000000
H552  H     H_    0.774580 0.332682 0.225709 0.000000
H553  H     H_    0.686117 0.331964 0.247880 0.000000
H554  H     H_    0.674179 0.393961 0.222046 0.000000
H555  H     H_    0.675480 0.361376 0.139231 0.000000
H556  H     H_    0.604259 0.340301 0.175129 0.000000
H557  H     H_    0.385977 0.427325 0.155848 0.000000
H558  H     H_    0.364540 0.479310 0.102174 0.000000
H559  H     H_    0.473066 0.508351 0.060758 0.000000
H560  H     H_    0.602467 0.489992 0.076834 0.000000
C505  C     C_3   0.441697 0.252223 0.968973 0.000000
N169  N     N_3   0.367228 0.236469 0.954943 0.000000
C506  C     C_3   0.376416 0.196420 0.931072 0.000000
C507  C     C_R   0.309225 0.184326 0.905257 0.000000
N170  N     N_R   0.235929 0.174192 0.920350 0.000000
C508  C     C_R   0.201536 0.157558 0.887174 0.000000
C509  C     C_R   0.133090 0.133928 0.885394 0.000000
C510  C     C_R   0.105079 0.121920 0.847984 0.000000
C511  C     C_R   0.153639 0.124356 0.814695 0.000000
C512  C     C_R   0.228646 0.135959 0.820997 0.000000
C513  C     C_R   0.248218 0.158934 0.854834 0.000000
N171  N     N_R   0.317850 0.175180 0.863958 0.000000
H561  H     H_    0.475895 0.266572 0.943472 0.000000
H562  H     H_    0.434784 0.277637 0.993174 0.000000
H563  H     H_    0.471486 0.225090 0.981383 0.000000
H564  H     H_    0.349093 0.259977 0.936212 0.000000
H565  H     H_    0.427804 0.200250 0.911208 0.000000
H566  H     H_    0.384742 0.169592 0.951653 0.000000
H567  H     H_    0.100756 0.124924 0.911856 0.000000
H568  H     H_    0.048539 0.106585 0.845245 0.000000
H569  H     H_    0.135303 0.110881 0.785644 0.000000
H570  H     H_    0.272783 0.122853 0.803416 0.000000
C514  C     C_3   0.350728 0.080059 0.008526 0.000000
N172  N     N_3   0.306024 0.047771 0.984907 0.000000
C515  C     C_3   0.259685 0.067211 0.955195 0.000000
C516  C     C_R   0.179861 0.063654 0.969420 0.000000
N173  N     N_R   0.144285 0.023333 0.979391 0.000000
C517  C     C_R   0.078769 0.036530 0.996680 0.000000
C518  C     C_R   0.016498 0.010910 0.008640 0.000000
C519  C     C_R   0.953703 0.031311 0.024313 0.000000
C520  C     C_R   0.954691 0.076458 0.028478 0.000000
C521  C     C_R   0.016542 0.101983 0.014472 0.000000
C522  C     C_R   0.076089 0.081276 0.996764 0.000000
N174  N     N_R   0.137367 0.100070 0.977580 0.000000
H571  H     H_    0.394116 0.063465 0.024956 0.000000
H572  H     H_    0.380582 0.103960 0.988437 0.000000
H573  H     H_    0.313358 0.095520 0.031542 0.000000
H574  H     H_    0.270869 0.031069 0.005845 0.000000
H575  H     H_    0.278928 0.101348 0.950022 0.000000
H576  H     H_    0.262826 0.048371 0.926125 0.000000
H577  H     H_    0.015494 0.975933 0.004412 0.000000
H578  H     H_    0.903477 0.011923 0.033676 0.000000
H579  H     H_    0.905805 0.091762 0.041497 0.000000
H580  H     H_    0.017022 0.137087 0.016112 0.000000
C523  C     C_3   0.793123 0.560876 0.003538 0.000000
N175  N     N_3   0.820141 0.606360 0.006504 0.000000
C524  C     C_3   0.834451 0.617331 0.049049 0.000000
C525  C     C_R   0.852429 0.665108 0.053734 0.000000
N176  N     N_R   0.875221 0.684285 0.018668 0.000000
C526  C     C_R   0.823657 0.713955 0.014548 0.000000
C527  C     C_R   0.790729 0.723593 0.978864 0.000000
C528  C     C_R   0.727751 0.748330 0.981303 0.000000
C529  C     C_R   0.701282 0.763899 0.018809 0.000000
C530  C     C_R   0.730005 0.749212 0.054176 0.000000
C531  C     C_R   0.785146 0.719795 0.050236 0.000000
N177  N     N_R   0.802810 0.689457 0.076448 0.000000
H581  H     H_    0.786014 0.551214 0.971026 0.000000
H582  H     H_    0.834921 0.540617 0.016995 0.000000
H583  H     H_    0.737398 0.555999 0.019624 0.000000
H584  H     H_    0.774800 0.623925 0.997852 0.000000
H585  H     H_    0.780948 0.609208 0.065307 0.000000
H586  H     H_    0.881317 0.598867 0.059772 0.000000
H587  H     H_    0.811802 0.711224 0.949867 0.000000
H588  H     H_    0.701184 0.757157 0.953779 0.000000
H589  H     H_    0.654856 0.785225 0.020392 0.000000
H590  H     H_    0.706566 0.758772 0.083426 0.000000
C532  C     C_3   0.156441 0.589008 0.074674 0.000000
N178  N     N_3   0.115825 0.567579 0.040950 0.000000
C533  C     C_3   0.040099 0.583123 0.040271 0.000000
C534  C     C_R   0.007829 0.574478 0.999665 0.000000
N179  N     N_R   0.984487 0.609306 0.978470 0.000000
C535  C     C_R   0.954482 0.589051 0.945280 0.000000
C536  C     C_R   0.916285 0.607966 0.915293 0.000000
C537  C     C_R   0.886793 0.581422 0.884108 0.000000
C538  C     C_R   0.894336 0.536838 0.884026 0.000000
C539  C     C_R   0.930142 0.518181 0.915412 0.000000
C540  C     C_R   0.960103 0.544779 0.946219 0.000000
N180  N     N_R   0.992342 0.533036 0.980995 0.000000
H591  H     H_    0.195206 0.566034 0.087094 0.000000
H592  H     H_    0.190661 0.617857 0.063951 0.000000
H593  H     H_    0.116385 0.599217 0.099127 0.000000
H594  H     H_    0.108468 0.534887 0.047643 0.000000
H595  H     H_    0.001868 0.567282 0.062758 0.000000
H596  H     H_    0.042500 0.618746 0.046739 0.000000
H597  H     H_    0.907889 0.642381 0.916248 0.000000
H598  H     H_    0.856872 0.595393 0.859964 0.000000
H599  H     H_    0.870362 0.516265 0.859691 0.000000
H600  H     H_    0.932515 0.483665 0.915227 0.000000
C541  C     C_3   0.478460 0.598020 0.366146 0.000000
N181  N     N_3   0.483834 0.638628 0.388842 0.000000
C542  C     C_3   0.436145 0.667015 0.368805 0.000000
C543  C     C_R   0.370869 0.676612 0.395025 0.000000
N182  N     N_R   0.298528 0.676622 0.381315 0.000000
C544  C     C_R   0.257495 0.683806 0.415729 0.000000
C545  C     C_R   0.180020 0.685106 0.420113 0.000000
C546  C     C_R   0.149776 0.692154 0.458768 0.000000
C547  C     C_R   0.196970 0.698405 0.491795 0.000000
C548  C     C_R   0.274967 0.697692 0.486687 0.000000
C549  C     C_R   0.303976 0.688763 0.448209 0.000000
N183  N     N_R   0.376661 0.683275 0.435957 0.000000
H601  H     H_    0.509717 0.601519 0.336820 0.000000
H602  H     H_    0.505346 0.573958 0.383427 0.000000
H603  H     H_    0.418290 0.586916 0.361961 0.000000
H604  H     H_    0.539844 0.650796 0.384830 0.000000
H605  H     H_    0.469557 0.696227 0.361013 0.000000
H606  H     H_    0.414833 0.652098 0.340999 0.000000
H607  H     H_    0.143236 0.679672 0.394544 0.000000
H608  H     H_    0.089007 0.692814 0.463295 0.000000
H609  H     H_    0.172496 0.703989 0.521828 0.000000
H610  H     H_    0.310892 0.704088 0.512487 0.000000
C550  C     C_3   0.360300 0.833118 0.479317 0.000000
N184  N     N_3   0.375546 0.787897 0.485814 0.000000
C551  C     C_3   0.452184 0.786488 0.500807 0.000000
C552  C     C_R   0.456954 0.751923 0.530939 0.000000
N185  N     N_R   0.465756 0.708590 0.520813 0.000000
C553  C     C_R   0.470602 0.690837 0.557600 0.000000
C554  C     C_R   0.490865 0.649816 0.566569 0.000000
C555  C     C_R   0.493363 0.639201 0.607036 0.000000
C556  C     C_R   0.478677 0.669848 0.637683 0.000000
C557  C     C_R   0.464169 0.711892 0.628092 0.000000
C558  C     C_R   0.461573 0.721579 0.587757 0.000000
N186  N     N_R   0.457756 0.761208 0.572051 0.000000
H611  H     H_    0.309783 0.834018 0.460140 0.000000
H612  H     H_    0.348742 0.850279 0.508747 0.000000
H613  H     H_    0.409342 0.850313 0.464004 0.000000
H614  H     H_    0.371889 0.771258 0.457924 0.000000
H615  H     H_    0.492595 0.780086 0.475823 0.000000
H616  H     H_    0.467876 0.817962 0.516083 0.000000
H617  H     H_    0.507937 0.626833 0.543422 0.000000
H618  H     H_    0.508507 0.607054 0.614834 0.000000
H619  H     H_    0.482150 0.661402 0.669179 0.000000
H620  H     H_    0.458653 0.736714 0.651611 0.000000
C559  C     C_3   0.697335 0.576859 0.395072 0.000000
N187  N     N_3   0.626925 0.555721 0.410472 0.000000
C560  C     C_3   0.609191 0.575737 0.449860 0.000000
C561  C     C_R   0.526548 0.569901 0.461490 0.000000
N188  N     N_R   0.483257 0.606290 0.469864 0.000000
C562  C     C_R   0.421441 0.586812 0.487952 0.000000
C563  C     C_R   0.364203 0.607121 0.508145 0.000000
C564  C     C_R   0.311271 0.582574 0.530718 0.000000
C565  C     C_R   0.318522 0.538333 0.534082 0.000000
C566  C     C_R   0.377780 0.518684 0.514163 0.000000
C567  C     C_R   0.426486 0.543018 0.489829 0.000000
N189  N     N_R   0.489803 0.529325 0.471245 0.000000
H621  H     H_    0.718465 0.557659 0.368449 0.000000
H622  H     H_    0.687221 0.610135 0.385320 0.000000
H623  H     H_    0.740621 0.578607 0.419013 0.000000
H624  H     H_    0.637212 0.523307 0.414561 0.000000
H625  H     H_    0.643767 0.562411 0.473572 0.000000
H626  H     H_    0.623702 0.610811 0.448179 0.000000
H627  H     H_    0.364564 0.641674 0.509221 0.000000
H628  H     H_    0.266680 0.598329 0.547551 0.000000
H629  H     H_    0.279850 0.519562 0.553698 0.000000
H630  H     H_    0.389773 0.486078 0.520270 0.000000
C568  C     C_3   0.522210 0.503570 0.336108 0.000000
N190  N     N_3   0.486865 0.484109 0.372485 0.000000
C569  C     C_3   0.407925 0.495103 0.376959 0.000000
C570  C     C_R   0.359351 0.461904 0.399141 0.000000
N191  N     N_R   0.286131 0.451909 0.386901 0.000000
C571  C     C_R   0.251871 0.435673 0.420577 0.000000
C572  C     C_R   0.177353 0.420620 0.425673 0.000000
C573  C     C_R   0.151343 0.410150 0.464236 0.000000
C574  C     C_R   0.199670 0.415361 0.496704 0.000000
C575  C     C_R   0.275375 0.428391 0.490494 0.000000
C576  C     C_R   0.301810 0.436448 0.451563 0.000000
N192  N     N_R   0.372755 0.450178 0.438423 0.000000
H631  H     H_    0.577908 0.519967 0.343418 0.000000
H632  H     H_    0.531904 0.478787 0.311916 0.000000
H633  H     H_    0.485931 0.526950 0.323189 0.000000
H634  H     H_    0.515529 0.496586 0.397901 0.000000
H635  H     H_    0.404972 0.525545 0.395407 0.000000
H636  H     H_    0.382150 0.498416 0.346981 0.000000
H637  H     H_    0.139922 0.416178 0.400544 0.000000
H638  H     H_    0.092801 0.398688 0.469202 0.000000
H639  H     H_    0.178465 0.408392 0.527064 0.000000
H640  H     H_    0.311215 0.432383 0.516078 0.000000

loop_
_geom_bond_atom_site_label_1
_geom_bond_atom_site_label_2
_geom_bond_distance
_geom_bond_site_symmetry_2
_ccdc_geom_bond_type
Zn1   N3    1.994 1_565  S
Zn1   N11   1.995 .      S
Zn1   N119  2.018 .      S
Zn1   N140  2.103 .      S
Zn2   N5    2.029 .      S
Zn2   N113  2.048 .      S
Zn2   N150  2.084 .      S
Zn2   N182  2.010 .      S
Zn3   N6    2.040 .      S
Zn3   N128  2.069 .      S
Zn3   N164  2.004 .      S
Zn3   N191  2.062 .      S
Zn4   N2    1.986 .      S
Zn4   N9    2.099 .      S
Zn4   N135  2.057 .      S
Zn4   N171  2.072 .      S
Zn5   N12   2.053 .      S
Zn5   N48   2.069 .      S
Zn5   N95   2.156 1_556  S
Zn5   N173  2.227 1_565  S
Zn6   N14   2.086 1_556  S
Zn6   N63   2.163 1_656  S
Zn6   N108  2.100 .      S
Zn6   N180  2.211 .      S
Zn7   N18   2.060 .      S
Zn7   N21   2.016 .      S
Zn7   N23   2.118 .      S
Zn7   N138  2.040 .      S
Zn8   N15   2.053 .      S
Zn8   N27   2.106 .      S
Zn8   N131  1.959 .      S
Zn8   N168  2.084 .      S
Zn9   N26   2.018 .      S
Zn9   N117  2.046 .      S
Zn9   N152  1.993 .      S
Zn9   N177  2.028 .      S
Zn10  N24   2.061 1_565  S
Zn10  N126  2.132 .      S
Zn10  N146  1.978 .      S
Zn10  N162  2.054 .      S
Zn11  N29   2.095 .      S
Zn11  N32   2.058 .      S
Zn11  N35   2.142 .      S
Zn11  N38   2.096 .      S
Zn12  N41   2.060 1_655  S
Zn12  N44   2.179 .      S
Zn12  N47   2.145 1_655  S
Zn12  N51   2.068 .      S
Zn13  N54   2.143 .      S
Zn13  N56   2.157 .      S
Zn13  N59   2.142 .      S
Zn13  N62   2.193 .      S
Zn14  N65   2.106 .      S
Zn14  N69   2.162 .      S
Zn14  N72   2.067 .      S
Zn14  N74   2.163 .      S
Zn15  N77   2.114 .      S
Zn15  N80   2.124 .      S
Zn15  N83   2.118 .      S
Zn15  N86   2.075 .      S
Zn16  N89   2.135 .      S
Zn16  N93   2.070 .      S
Zn16  N96   2.152 .      S
Zn16  N98   2.150 .      S
Zn17  N101  2.062 .      S
Zn17  N105  2.054 1_655  S
Zn17  N107  2.087 1_655  S
Zn17  N110  2.148 1_655  S
Zn18  N78   2.075 .      S
Zn18  N90   2.078 .      S
Zn18  N114  1.993 .      S
Zn18  N116  2.082 .      S
Zn19  N42   2.089 .      S
Zn19  N120  2.043 .      S
Zn19  N123  2.174 .      S
Zn19  N125  2.109 .      S
Zn20  N53   2.174 .      S
Zn20  N66   2.066 .      S
Zn20  N129  2.125 1_655  S
Zn20  N132  2.053 .      S
Zn21  N30   2.088 .      S
Zn21  N102  2.122 .      S
Zn21  N134  2.064 .      S
Zn21  N137  2.054 .      S
Zn22  N45   2.160 .      S
Zn22  N141  2.106 .      S
Zn22  N144  2.113 .      S
Zn22  N147  2.047 .      S
Zn23  N84   2.130 .      S
Zn23  N92   2.124 1_655  S
Zn23  N149  2.133 1_655  S
Zn23  N153  2.003 .      S
Zn24  N87   2.092 .      S
Zn24  N155  2.150 .      S
Zn24  N158  2.223 1_565  S
Zn24  N161  1.976 .      S
Zn25  N57   2.109 .      S
Zn25  N75   2.079 .      S
Zn25  N165  2.027 .      S
Zn25  N167  2.075 .      S
Zn26  N60   2.009 1_556  S
Zn26  N111  2.117 .      S
Zn26  N170  2.025 .      S
Zn26  N174  2.212 .      S
Zn27  N50   2.092 .      S
Zn27  N99   2.103 1_656  S
Zn27  N176  2.013 1_556  S
Zn27  N179  2.143 .      S
Zn28  N81   2.085 .      S
Zn28  N183  2.012 .      S
Zn28  N185  2.041 .      S
Zn28  N188  2.212 .      S
Zn29  N39   2.117 .      S
Zn29  N68   2.142 .      S
Zn29  N189  2.206 .      S
Zn29  N192  2.103 .      S
Zn30  N8    2.009 .      S
Zn30  N17   2.134 .      S
Zn30  N33   2.119 .      S
Zn30  N104  2.075 .      S
Zn31  N20   2.037 .      S
Zn31  N36   2.171 .      S
Zn31  N71   2.106 .      S
Zn31  N159  2.236 .      S
Zn32  N122  2.137 .      S
Zn32  N143  2.121 .      S
Zn32  N156  2.125 .      S
Zn32  N186  2.035 .      S
C1    N1    1.452 .      S
C1    H1    1.106 .      S
C1    H2    1.109 .      S
C1    H3    1.105 .      S
N1    C2    1.451 .      S
N1    H4    1.039 .      S
C2    C3    1.482 .      S
C2    H5    1.084 .      S
C2    H6    1.100 .      S
C5    H7    1.076 .      S
C6    H8    1.078 .      S
C7    H9    1.080 .      S
C8    H10   1.061 1_545  S
N3    Zn1   1.994 1_545  S
H10   C8    1.061 1_565  S
C10   N4    1.453 .      S
C10   H11   1.106 .      S
C10   H12   1.109 .      S
C10   H13   1.109 .      S
N4    C11   1.453 .      S
N4    H14   1.040 .      S
C11   C12   1.488 .      S
C11   H15   1.104 .      S
C11   H16   1.101 .      S
C14   H17   1.074 .      S
C15   H18   1.072 .      S
C16   H19   1.077 .      S
C17   H20   1.075 .      S
C19   N7    1.454 .      S
C19   H21   1.109 .      S
C19   H22   1.103 .      S
C19   H23   1.102 .      S
N7    C20   1.456 .      S
N7    H24   1.043 .      S
C20   C21   1.486 .      S
C20   H25   1.090 .      S
C20   H26   1.102 .      S
C23   H27   1.060 .      S
C24   H28   1.081 .      S
C25   H29   1.079 .      S
C26   H30   1.056 .      S
C28   N10   1.457 .      S
C28   H31   1.099 .      S
C28   H32   1.103 .      S
C28   H33   1.095 .      S
N10   C29   1.458 .      S
N10   H34   1.035 .      S
C29   C30   1.475 .      S
C29   H35   1.064 .      S
C29   H36   1.097 .      S
C32   H37   1.079 .      S
C33   H38   1.081 .      S
C34   H39   1.081 1_556  S
C35   H40   1.080 1_556  S
H39   C34   1.081 1_554  S
H40   C35   1.080 1_554  S
C37   N13   1.446 1_455  S
C37   H41   1.082 .      S
C37   H42   1.109 .      S
C37   H43   1.088 .      S
N13   C37   1.446 1_655  S
N13   C38   1.436 .      S
N13   H44   1.033 .      S
C38   C39   1.466 .      S
C38   H45   1.093 .      S
C38   H46   1.103 .      S
N14   Zn6   2.086 1_554  S
C41   H47   1.074 .      S
C42   H48   1.081 .      S
C43   H49   1.081 1_554  S
C44   H50   1.074 .      S
H49   C43   1.081 1_556  S
C46   N16   1.461 .      S
C46   H51   1.098 .      S
C46   H52   1.107 .      S
C46   H53   1.107 .      S
N16   C47   1.438 .      S
N16   H54   1.044 .      S
C47   C48   1.477 .      S
C47   H55   1.101 .      S
C47   H56   1.097 .      S
C50   H57   1.065 .      S
C51   H58   1.081 1_655  S
C52   H59   1.081 .      S
C53   H60   1.078 .      S
H58   C51   1.081 1_455  S
C55   N19   1.438 .      S
C55   H61   1.107 .      S
C55   H62   1.094 .      S
C55   H63   1.101 .      S
N19   C56   1.439 .      S
N19   H64   1.037 .      S
C56   C57   1.466 .      S
C56   H65   1.092 .      S
C56   H66   1.095 .      S
C59   H67   1.079 .      S
C60   H68   1.080 .      S
C61   H69   1.081 1_655  S
C62   H70   1.078 .      S
H69   C61   1.081 1_455  S
C64   N22   1.447 .      S
C64   H71   1.109 .      S
C64   H72   1.101 .      S
C64   H73   1.107 .      S
N22   C65   1.448 .      S
N22   H74   1.036 .      S
C65   C66   1.483 .      S
C65   H75   1.090 .      S
C65   H76   1.095 .      S
C68   H77   1.070 .      S
C69   H78   1.081 .      S
C70   H79   1.081 .      S
C71   H80   1.070 .      S
N24   Zn10  2.061 1_545  S
C73   N25   1.456 .      S
C73   H81   1.108 .      S
C73   H82   1.109 .      S
C73   H83   1.107 .      S
N25   C74   1.444 .      S
N25   H84   1.038 .      S
C74   C75   1.472 .      S
C74   H85   1.104 .      S
C74   H86   1.102 .      S
C77   H87   1.071 .      S
C78   H88   1.067 1_655  S
C79   H89   1.079 1_655  S
C80   H90   1.056 .      S
H88   C78   1.067 1_455  S
H89   C79   1.079 1_455  S
C82   N28   1.444 .      S
C82   H91   1.096 .      S
C82   H92   1.101 .      S
C82   H93   1.102 .      S
N28   C83   1.444 .      S
N28   H94   1.028 .      S
C83   C84   1.487 .      S
C83   H95   1.088 .      S
C83   H96   1.098 .      S
C86   H97   1.074 .      S
C87   H98   1.081 .      S
C88   H99   1.081 .      S
C89   H100  1.077 .      S
C91   N31   1.447 .      S
C91   H101  1.108 .      S
C91   H102  1.099 .      S
C91   H103  1.108 .      S
N31   C92   1.435 .      S
N31   H104  1.033 .      S
C92   C93   1.476 .      S
C92   H105  1.095 .      S
C92   H106  1.097 .      S
C95   H107  1.066 .      S
C96   H108  1.081 .      S
C97   H109  1.081 .      S
C98   H110  1.044 .      S
C100  N34   1.455 .      S
C100  H111  1.097 .      S
C100  H112  1.107 .      S
C100  H113  1.100 .      S
N34   C101  1.450 .      S
N34   H114  1.039 .      S
C101  C102  1.479 .      S
C101  H115  1.102 .      S
C101  H116  1.098 .      S
C104  H117  1.071 .      S
C105  H118  1.080 .      S
C106  H119  1.081 .      S
C107  H120  1.060 .      S
C109  N37   1.459 .      S
C109  H121  1.109 .      S
C109  H122  1.106 .      S
C109  H123  1.107 .      S
N37   C110  1.440 .      S
N37   H124  1.034 .      S
C110  C111  1.486 .      S
C110  H125  1.098 .      S
C110  H126  1.091 .      S
C113  H127  1.075 .      S
C114  H128  1.081 .      S
C115  H129  1.081 .      S
C116  H130  1.072 .      S
C118  N40   1.440 .      S
C118  H131  1.103 .      S
C118  H132  1.096 .      S
C118  H133  1.107 1_655  S
N40   C119  1.446 1_655  S
N40   H134  1.038 .      S
C119  N40   1.446 1_455  S
C119  C120  1.465 .      S
C119  H135  1.091 .      S
C119  H136  1.091 .      S
N41   Zn12  2.060 1_455  S
C122  H137  1.070 1_455  S
C123  H138  1.081 1_455  S
C124  H139  1.081 .      S
C125  H140  1.067 .      S
H133  C118  1.107 1_455  S
H137  C122  1.070 1_655  S
H138  C123  1.081 1_655  S
C127  N43   1.456 .      S
C127  H141  1.110 .      S
C127  H142  1.110 .      S
C127  H143  1.107 .      S
N43   C128  1.451 .      S
N43   H144  1.041 .      S
C128  C129  1.478 .      S
C128  H145  1.102 .      S
C128  H146  1.097 .      S
C131  H147  1.074 .      S
C132  H148  1.081 .      S
C133  H149  1.081 .      S
C134  H150  1.075 .      S
C136  N46   1.452 .      S
C136  H151  1.102 .      S
C136  H152  1.109 .      S
C136  H153  1.105 .      S
N46   C137  1.444 .      S
N46   H154  1.043 .      S
C137  C138  1.489 .      S
C137  H155  1.095 .      S
C137  H156  1.104 .      S
N47   Zn12  2.145 1_455  S
C140  H157  1.049 .      S
C141  H158  1.081 .      S
C142  H159  1.081 .      S
C143  H160  1.072 1_565  S
H160  C143  1.072 1_545  S
C145  N49   1.457 .      S
C145  H161  1.106 .      S
C145  H162  1.105 .      S
C145  H163  1.107 .      S
N49   C146  1.450 .      S
N49   H164  1.039 .      S
C146  C147  1.490 .      S
C146  H165  1.095 .      S
C146  H166  1.088 .      S
C149  H167  1.066 .      S
C150  H168  1.081 .      S
C151  H169  1.081 .      S
C152  H170  1.067 .      S
C154  N52   1.438 .      S
C154  H171  1.107 .      S
C154  H172  1.090 .      S
C154  H173  1.093 .      S
N52   C155  1.447 .      S
N52   H174  1.035 1_455  S
C155  C156  1.473 .      S
C155  H175  1.100 .      S
C155  H176  1.101 .      S
C158  H177  1.071 .      S
C159  H178  1.081 .      S
C160  H179  1.081 .      S
C161  H180  1.072 .      S
H174  N52   1.035 1_655  S
C163  N55   1.454 .      S
C163  H181  1.109 .      S
C163  H182  1.107 .      S
C163  H183  1.108 .      S
N55   C164  1.458 .      S
N55   H184  1.039 .      S
C164  C165  1.516 .      S
C164  H185  1.092 .      S
C164  H186  1.104 .      S
C167  H187  1.059 .      S
C168  H188  1.081 .      S
C169  H189  1.081 .      S
C170  H190  1.066 .      S
C172  N58   1.455 1_654  S
C172  H191  1.105 1_554  S
C172  H192  1.106 .      S
C172  H193  1.108 .      S
N58   C172  1.455 1_456  S
N58   C173  1.444 1_556  S
N58   H194  1.042 .      S
C173  N58   1.444 1_554  S
C173  C174  1.486 .      S
C173  H195  1.099 .      S
C173  H196  1.108 .      S
C176  H197  1.027 .      S
C177  H198  1.081 .      S
C178  H199  1.077 .      S
C179  H200  1.070 1_554  S
N60   Zn26  2.009 1_554  S
H191  C172  1.105 1_556  S
H200  C179  1.070 1_556  S
C181  N61   1.450 .      S
C181  H201  1.104 1_554  S
C181  H202  1.100 .      S
C181  H203  1.107 .      S
N61   C182  1.450 .      S
N61   H204  1.036 .      S
C182  C183  1.492 1_655  S
C182  H205  1.099 .      S
C182  H206  1.099 .      S
C183  C182  1.492 1_455  S
C185  H207  1.049 .      S
C186  H208  1.080 .      S
C187  H209  1.081 1_554  S
C188  H210  1.071 1_554  S
N63   Zn6   2.163 1_454  S
H201  C181  1.104 1_556  S
H209  C187  1.081 1_556  S
H210  C188  1.071 1_556  S
C190  N64   1.452 .      S
C190  H211  1.106 .      S
C190  H212  1.107 .      S
C190  H213  1.105 .      S
N64   C191  1.430 .      S
N64   H214  1.026 .      S
C191  C192  1.473 .      S
C191  H215  1.083 .      S
C191  H216  1.069 .      S
C194  H217  1.070 .      S
C195  H218  1.081 .      S
C196  H219  1.081 .      S
C197  H220  1.080 .      S
C199  N67   1.455 .      S
C199  H221  1.108 .      S
C199  H222  1.107 .      S
C199  H223  1.101 .      S
N67   C200  1.450 .      S
N67   H224  1.038 .      S
C200  C201  1.504 .      S
C200  H225  1.105 .      S
C200  H226  1.102 .      S
C203  H227  1.069 .      S
C204  H228  1.081 .      S
C205  H229  1.080 .      S
C206  H230  1.078 .      S
C208  N70   1.454 .      S
C208  H231  1.109 .      S
C208  H232  1.103 .      S
C208  H233  1.109 .      S
N70   C209  1.448 .      S
N70   H234  1.039 .      S
C209  C210  1.508 .      S
C209  H235  1.100 .      S
C209  H236  1.098 .      S
C212  H237  1.076 .      S
C213  H238  1.081 .      S
C214  H239  1.081 .      S
C215  H240  1.074 .      S
C217  N73   1.429 .      S
C217  H241  1.087 .      S
C217  H242  1.088 .      S
C217  H243  1.093 .      S
N73   C218  1.431 .      S
N73   H244  1.017 .      S
C218  C219  1.486 .      S
C218  H245  1.099 .      S
C218  H246  1.093 .      S
C221  H247  1.076 .      S
C222  H248  1.081 .      S
C223  H249  1.081 .      S
C224  H250  1.081 .      S
C226  N76   1.448 .      S
C226  H251  1.108 .      S
C226  H252  1.103 .      S
C226  H253  1.102 .      S
N76   C227  1.443 .      S
N76   H254  1.040 .      S
C227  C228  1.480 .      S
C227  H255  1.097 .      S
C227  H256  1.097 .      S
C230  H257  1.068 .      S
C231  H258  1.081 .      S
C232  H259  1.081 .      S
C233  H260  1.080 .      S
C235  N79   1.460 .      S
C235  H261  1.107 .      S
C235  H262  1.109 .      S
C235  H263  1.108 .      S
N79   C236  1.450 .      S
N79   H264  1.039 .      S
C236  C237  1.500 .      S
C236  H265  1.096 .      S
C236  H266  1.086 .      S
C239  H267  1.061 .      S
C240  H268  1.081 .      S
C241  H269  1.081 .      S
C242  H270  1.080 .      S
C244  N82   1.458 .      S
C244  H271  1.108 .      S
C244  H272  1.105 .      S
C244  H273  1.105 .      S
N82   C245  1.462 .      S
N82   H274  1.040 .      S
C245  C246  1.475 .      S
C245  H275  1.087 .      S
C245  H276  1.098 .      S
C248  H277  1.066 .      S
C249  H278  1.081 .      S
C250  H279  1.081 1_655  S
C251  H280  1.080 1_655  S
H279  C250  1.081 1_455  S
H280  C251  1.080 1_455  S
C253  N85   1.455 .      S
C253  H281  1.109 1_565  S
C253  H282  1.106 .      S
C253  H283  1.107 .      S
N85   C254  1.454 .      S
N85   H284  1.042 .      S
C254  C255  1.482 .      S
C254  H285  1.104 .      S
C254  H286  1.102 .      S
C257  H287  1.055 .      S
C258  H288  1.081 .      S
C259  H289  1.080 .      S
C260  H290  1.061 .      S
H281  C253  1.109 1_545  S
C262  N88   1.454 .      S
C262  H291  1.100 .      S
C262  H292  1.108 .      S
C262  H293  1.109 .      S
N88   C263  1.435 .      S
N88   H294  1.041 .      S
C263  C264  1.485 .      S
C263  H295  1.106 .      S
C263  H296  1.094 .      S
C266  H297  1.062 .      S
C267  H298  1.081 .      S
C268  H299  1.081 .      S
C269  H300  1.069 .      S
C271  N91   1.448 .      S
C271  H301  1.090 .      S
C271  H302  1.100 .      S
C271  H303  1.107 .      S
N91   C272  1.438 .      S
N91   H304  1.041 .      S
C272  C273  1.476 .      S
C272  H305  1.106 .      S
C272  H306  1.106 .      S
N92   Zn23  2.124 1_455  S
C275  H307  1.071 .      S
C276  H308  1.081 .      S
C277  H309  1.081 .      S
C278  H310  1.066 .      S
C280  N94   1.458 .      S
C280  H311  1.109 .      S
C280  H312  1.107 1_455  S
C280  H313  1.100 1_455  S
N94   C281  1.452 .      S
N94   H314  1.043 .      S
C281  C282  1.480 .      S
C281  H315  1.097 .      S
C281  H316  1.107 .      S
N95   Zn5   2.156 1_554  S
C284  H317  1.052 .      S
C285  H318  1.081 .      S
C286  H319  1.079 .      S
C287  H320  1.060 .      S
H312  C280  1.107 1_655  S
H313  C280  1.100 1_655  S
C289  N97   1.455 1_655  S
C289  H321  1.107 .      S
C289  H322  1.102 .      S
C289  H323  1.107 .      S
N97   C289  1.455 1_455  S
N97   C290  1.447 1_455  S
N97   H324  1.039 .      S
C290  N97   1.447 1_655  S
C290  C291  1.471 1_655  S
C290  H325  1.098 .      S
C290  H326  1.093 .      S
C291  C290  1.471 1_455  S
C293  H327  1.062 .      S
C294  H328  1.080 .      S
C295  H329  1.081 .      S
C296  H330  1.072 .      S
N99   Zn27  2.103 1_454  S
C298  N100  1.453 .      S
C298  H331  1.109 .      S
C298  H332  1.107 .      S
C298  H333  1.108 .      S
N100  C299  1.452 .      S
N100  H334  1.040 .      S
C299  C300  1.478 .      S
C299  H335  1.104 .      S
C299  H336  1.099 .      S
C302  H337  1.080 .      S
C303  H338  1.080 .      S
C304  H339  1.081 .      S
C305  H340  1.051 .      S
C307  N103  1.438 .      S
C307  H341  1.104 .      S
C307  H342  1.094 .      S
C307  H343  1.102 1_455  S
N103  C308  1.435 .      S
N103  H344  1.044 .      S
C308  C309  1.457 .      S
C308  H345  1.099 .      S
C308  H346  1.105 .      S
C311  H347  1.071 .      S
C312  H348  1.081 .      S
C313  H349  1.081 .      S
C314  H350  1.077 .      S
N105  Zn17  2.054 1_455  S
H343  C307  1.102 1_655  S
C316  N106  1.454 .      S
C316  H351  1.108 .      S
C316  H352  1.109 .      S
C316  H353  1.109 .      S
N106  C317  1.452 .      S
N106  H354  1.044 .      S
C317  C318  1.471 .      S
C317  H355  1.069 .      S
C317  H356  1.097 .      S
N107  Zn17  2.087 1_455  S
C320  H357  1.065 .      S
C321  H358  1.081 .      S
C322  H359  1.081 .      S
C323  H360  1.076 .      S
C325  N109  1.447 .      S
C325  H361  1.093 .      S
C325  H362  1.105 .      S
C325  H363  1.109 .      S
N109  C326  1.447 .      S
N109  H364  1.043 .      S
C326  C327  1.477 .      S
C326  H365  1.108 .      S
C326  H366  1.109 .      S
N110  Zn17  2.148 1_455  S
C329  H367  1.071 .      S
C330  H368  1.077 .      S
C331  H369  1.081 .      S
C332  H370  1.068 .      S
C334  N112  1.456 .      S
C334  H371  1.107 .      S
C334  H372  1.108 .      S
C334  H373  1.100 .      S
N112  C335  1.452 .      S
N112  H374  1.042 .      S
C335  C336  1.488 .      S
C335  H375  1.105 .      S
C335  H376  1.104 .      S
C338  H377  1.068 .      S
C339  H378  1.075 .      S
C340  H379  1.077 .      S
C341  H380  1.060 .      S
C343  N115  1.454 .      S
C343  H381  1.095 .      S
C343  H382  1.107 .      S
C343  H383  1.097 .      S
N115  C344  1.445 .      S
N115  H384  1.043 .      S
C344  C345  1.475 .      S
C344  H385  1.068 .      S
C344  H386  1.095 .      S
C347  H387  1.077 .      S
C348  H388  1.079 .      S
C349  H389  1.081 .      S
C350  H390  1.081 .      S
C352  N118  1.465 .      S
C352  H391  1.106 .      S
C352  H392  1.099 .      S
C352  H393  1.101 .      S
N118  C353  1.441 .      S
N118  H394  1.033 .      S
C353  C354  1.400 .      S
C353  H395  1.080 .      S
C353  H396  1.095 .      S
C356  H397  1.077 .      S
C357  H398  1.071 .      S
C358  H399  1.080 .      S
C359  H400  1.070 .      S
C361  N121  1.454 .      S
C361  H401  1.109 .      S
C361  H402  1.109 .      S
C361  H403  1.109 .      S
N121  C362  1.452 .      S
N121  H404  1.044 .      S
C362  C363  1.505 .      S
C362  H405  1.105 .      S
C362  H406  1.108 .      S
C365  H407  1.056 .      S
C366  H408  1.079 .      S
C367  H409  1.081 .      S
C368  H410  1.079 .      S
C370  N124  1.449 .      S
C370  H411  1.104 .      S
C370  H412  1.108 .      S
C370  H413  1.099 .      S
N124  C371  1.453 .      S
N124  H414  1.042 .      S
C371  C372  1.465 1_655  S
C371  H415  1.086 .      S
C371  H416  1.084 1_655  S
C372  C371  1.465 1_455  S
C374  H417  1.073 .      S
C375  H418  1.081 .      S
C376  H419  1.081 .      S
C377  H420  1.076 1_455  S
H416  C371  1.084 1_455  S
H420  C377  1.076 1_655  S
C379  N127  1.426 .      S
C379  H421  1.105 .      S
C379  H422  1.088 .      S
C379  H423  1.097 .      S
N127  C380  1.424 .      S
N127  H424  1.031 .      S
C380  C381  1.451 .      S
C380  H425  1.094 .      S
C380  H426  1.102 .      S
C383  H427  1.073 .      S
C384  H428  1.081 .      S
C385  H429  1.079 .      S
C386  H430  1.062 .      S
N129  Zn20  2.125 1_455  S
C388  N130  1.447 .      S
C388  H431  1.109 .      S
C388  H432  1.107 .      S
C388  H433  1.106 .      S
N130  C389  1.445 .      S
N130  H434  1.031 .      S
C389  C390  1.504 .      S
C389  H435  1.099 .      S
C389  H436  1.100 .      S
C392  H437  1.080 .      S
C393  H438  1.071 .      S
C394  H439  1.079 .      S
C395  H440  1.065 .      S
C397  N133  1.448 .      S
C397  H441  1.109 .      S
C397  H442  1.106 .      S
C397  H443  1.104 .      S
N133  C398  1.456 .      S
N133  H444  1.042 .      S
C398  C399  1.495 .      S
C398  H445  1.102 .      S
C398  H446  1.085 .      S
C401  H447  1.069 .      S
C402  H448  1.081 .      S
C403  H449  1.081 .      S
C404  H450  1.068 .      S
C406  N136  1.454 .      S
C406  H451  1.108 .      S
C406  H452  1.103 .      S
C406  H453  1.108 .      S
N136  C407  1.446 .      S
N136  H454  1.035 .      S
C407  C408  1.500 .      S
C407  H455  1.105 .      S
C407  H456  1.100 .      S
C410  H457  1.072 .      S
C411  H458  1.072 .      S
C412  H459  1.072 .      S
C413  H460  1.073 .      S
C415  N139  1.451 .      S
C415  H461  1.107 .      S
C415  H462  1.104 1_545  S
C415  H463  1.106 .      S
N139  C416  1.457 1_545  S
N139  H464  1.044 .      S
C416  N139  1.457 1_565  S
C416  C417  1.494 .      S
C416  H465  1.093 .      S
C416  H466  1.085 .      S
C419  H467  1.063 .      S
C420  H468  1.081 .      S
C421  H469  1.081 .      S
C422  H470  1.068 .      S
H462  C415  1.104 1_565  S
C424  N142  1.428 .      S
C424  H471  1.101 .      S
C424  H472  1.091 .      S
C424  H473  1.099 .      S
N142  C425  1.438 .      S
N142  H474  1.033 .      S
C425  C426  1.422 .      S
C425  H475  1.092 .      S
C425  H476  1.105 .      S
C428  H477  1.069 .      S
C429  H478  1.081 .      S
C430  H479  1.081 .      S
C431  H480  1.070 .      S
C433  N145  1.452 .      S
C433  H481  1.108 .      S
C433  H482  1.106 .      S
C433  H483  1.106 .      S
N145  C434  1.453 .      S
N145  H484  1.038 .      S
C434  C435  1.485 .      S
C434  H485  1.100 .      S
C434  H486  1.088 .      S
C437  H487  1.077 .      S
C438  H488  1.078 .      S
C439  H489  1.081 1_565  S
C440  H490  1.067 .      S
H489  C439  1.081 1_545  S
C442  N148  1.453 .      S
C442  H491  1.107 .      S
C442  H492  1.108 1_455  S
C442  H493  1.108 1_455  S
N148  C443  1.455 .      S
N148  H494  1.043 .      S
C443  C444  1.480 .      S
C443  H495  1.081 .      S
C443  H496  1.098 .      S
N149  Zn23  2.133 1_455  S
C446  H497  1.062 .      S
C447  H498  1.081 .      S
C448  H499  1.080 .      S
C449  H500  1.073 .      S
H492  C442  1.108 1_655  S
H493  C442  1.108 1_655  S
C451  N151  1.457 .      S
C451  H501  1.108 .      S
C451  H502  1.102 .      S
C451  H503  1.105 .      S
N151  C452  1.449 .      S
N151  H504  1.037 .      S
C452  C453  1.488 .      S
C452  H505  1.090 .      S
C452  H506  1.094 .      S
C455  H507  1.077 .      S
C456  H508  1.078 .      S
C457  H509  1.080 .      S
C458  H510  1.062 .      S
C460  N154  1.448 .      S
C460  H511  1.107 .      S
C460  H512  1.100 .      S
C460  H513  1.106 .      S
N154  C461  1.444 .      S
N154  H514  1.039 .      S
C461  C462  1.472 .      S
C461  H515  1.101 .      S
C461  H516  1.100 .      S
C464  H517  1.061 1_565  S
C465  H518  1.081 1_565  S
C466  H519  1.076 .      S
C467  H520  1.066 .      S
H517  C464  1.061 1_545  S
H518  C465  1.081 1_545  S
C469  N157  1.451 .      S
C469  H521  1.099 .      S
C469  H522  1.104 .      S
C469  H523  1.088 .      S
N157  C470  1.447 .      S
N157  H524  1.039 .      S
C470  C471  1.481 .      S
C470  H525  1.102 .      S
C470  H526  1.103 .      S
N158  Zn24  2.223 1_545  S
C473  H527  1.075 1_545  S
C474  H528  1.081 .      S
C475  H529  1.081 .      S
C476  H530  1.079 .      S
H527  C473  1.075 1_565  S
C478  N160  1.449 .      S
C478  H531  1.101 .      S
C478  H532  1.084 1_545  S
C478  H533  1.099 .      S
N160  C479  1.458 1_545  S
N160  H534  1.036 .      S
C479  N160  1.458 1_565  S
C479  C480  1.478 .      S
C479  H535  1.097 .      S
C479  H536  1.101 .      S
C482  H537  1.079 .      S
C483  H538  1.081 .      S
C484  H539  1.081 1_655  S
C485  H540  1.062 .      S
H532  C478  1.084 1_565  S
H539  C484  1.081 1_455  S
C487  N163  1.454 .      S
C487  H541  1.105 .      S
C487  H542  1.099 .      S
C487  H543  1.108 .      S
N163  C488  1.446 .      S
N163  H544  1.039 .      S
C488  C489  1.488 .      S
C488  H545  1.105 .      S
C488  H546  1.105 .      S
C491  H547  1.069 .      S
C492  H548  1.081 .      S
C493  H549  1.081 .      S
C494  H550  1.055 .      S
C496  N166  1.449 .      S
C496  H551  1.108 .      S
C496  H552  1.099 .      S
C496  H553  1.081 .      S
N166  C497  1.434 .      S
N166  H554  1.035 .      S
C497  C498  1.477 .      S
C497  H555  1.109 .      S
C497  H556  1.103 .      S
C500  H557  1.073 .      S
C501  H558  1.079 .      S
C502  H559  1.081 .      S
C503  H560  1.074 .      S
C505  N169  1.453 .      S
C505  H561  1.108 .      S
C505  H562  1.106 .      S
C505  H563  1.109 .      S
N169  C506  1.453 .      S
N169  H564  1.037 .      S
C506  C507  1.497 .      S
C506  H565  1.107 .      S
C506  H566  1.104 .      S
C509  H567  1.064 .      S
C510  H568  1.081 .      S
C511  H569  1.078 .      S
C512  H570  1.051 .      S
C514  N172  1.446 1_554  S
C514  H571  1.109 .      S
C514  H572  1.105 1_554  S
C514  H573  1.106 .      S
N172  C514  1.446 1_556  S
N172  C515  1.458 .      S
N172  H574  1.042 1_556  S
C515  C516  1.472 .      S
C515  H575  1.100 .      S
C515  H576  1.103 .      S
N173  Zn5   2.227 1_545  S
C518  H577  1.079 1_545  S
C519  H578  1.081 .      S
C520  H579  1.081 .      S
C521  H580  1.078 .      S
H572  C514  1.105 1_556  S
H574  N172  1.042 1_554  S
H577  C518  1.079 1_565  S
C523  N175  1.449 .      S
C523  H581  1.108 1_554  S
C523  H582  1.106 .      S
C523  H583  1.109 .      S
N175  C524  1.453 .      S
N175  H584  1.045 1_554  S
C524  C525  1.486 .      S
C524  H585  1.093 .      S
C524  H586  1.105 .      S
N176  Zn27  2.013 1_554  S
C527  H587  1.080 .      S
C528  H588  1.081 .      S
C529  H589  1.081 .      S
C530  H590  1.076 .      S
H581  C523  1.108 1_556  S
H584  N175  1.045 1_556  S
C532  N178  1.453 .      S
C532  H591  1.109 .      S
C532  H592  1.104 .      S
C532  H593  1.108 .      S
N178  C533  1.449 .      S
N178  H594  1.036 .      S
C533  C534  1.475 1_554  S
C533  H595  1.094 .      S
C533  H596  1.107 .      S
C534  C533  1.475 1_556  S
C536  H597  1.077 .      S
C537  H598  1.081 .      S
C538  H599  1.081 .      S
C539  H600  1.064 .      S
C541  N181  1.432 .      S
C541  H601  1.104 .      S
C541  H602  1.088 .      S
C541  H603  1.106 .      S
N181  C542  1.438 .      S
N181  H604  1.042 .      S
C542  C543  1.461 .      S
C542  H605  1.078 .      S
C542  H606  1.075 .      S
C545  H607  1.078 .      S
C546  H608  1.081 .      S
C547  H609  1.081 .      S
C548  H610  1.078 .      S
C550  N184  1.457 .      S
C550  H611  1.108 .      S
C550  H612  1.107 .      S
C550  H613  1.105 .      S
N184  C551  1.456 .      S
N184  H614  1.036 .      S
C551  C552  1.486 .      S
C551  H615  1.095 .      S
C551  H616  1.098 .      S
C554  H617  1.071 .      S
C555  H618  1.081 .      S
C556  H619  1.081 .      S
C557  H620  1.075 .      S
C559  N187  1.453 .      S
C559  H621  1.109 .      S
C559  H622  1.109 .      S
C559  H623  1.109 .      S
N187  C560  1.450 .      S
N187  H624  1.038 .      S
C560  C561  1.500 .      S
C560  H625  1.108 .      S
C560  H626  1.095 .      S
C563  H627  1.061 .      S
C564  H628  1.081 .      S
C565  H629  1.081 .      S
C566  H630  1.064 .      S
C568  N190  1.464 .      S
C568  H631  1.105 .      S
C568  H632  1.100 .      S
C568  H633  1.096 .      S
N190  C569  1.458 .      S
N190  H634  1.038 .      S
C569  C570  1.489 .      S
C569  H635  1.101 .      S
C569  H636  1.107 .      S
C572  H637  1.071 .      S
C573  H638  1.081 .      S
C574  H639  1.081 .      S
C575  H640  1.065 .      S
C3    N2    1.368 .      A
C3    N3    1.372 .      A
N2    C4    1.340 .      A
C4    C5    1.367 .      A
C4    C9    1.344 .      A
C5    C6    1.386 .      A
C6    C7    1.382 .      A
C7    C8    1.379 .      A
C8    C9    1.358 .      A
C9    N3    1.342 .      A
C12   N5    1.381 .      A
C12   N6    1.379 .      A
N5    C13   1.339 .      A
C13   C14   1.364 .      A
C13   C18   1.351 .      A
C14   C15   1.374 .      A
C15   C16   1.374 .      A
C16   C17   1.387 .      A
C17   C18   1.358 .      A
C18   N6    1.341 .      A
C21   N8    1.369 .      A
C21   N9    1.379 .      A
N8    C22   1.337 .      A
C22   C23   1.363 .      A
C22   C27   1.352 .      A
C23   C24   1.374 .      A
C24   C25   1.369 .      A
C25   C26   1.375 .      A
C26   C27   1.393 .      A
C27   N9    1.373 .      A
C30   N11   1.367 .      A
C30   N12   1.371 .      A
N11   C31   1.341 .      A
C31   C32   1.372 .      A
C31   C36   1.359 .      A
C32   C33   1.383 .      A
C33   C34   1.389 .      A
C34   C35   1.386 .      A
C35   C36   1.380 .      A
C36   N12   1.360 .      A
C39   N14   1.375 .      A
C39   N15   1.375 .      A
N14   C40   1.357 .      A
C40   C41   1.373 1_554  A
C40   C45   1.362 .      A
C41   C40   1.373 1_556  A
C41   C42   1.384 .      A
C42   C43   1.385 1_556  A
C43   C42   1.385 1_554  A
C43   C44   1.380 .      A
C44   C45   1.368 .      A
C45   N15   1.339 .      A
C48   N17   1.394 .      A
C48   N18   1.368 1_455  A
N17   C49   1.357 .      A
C49   C50   1.364 .      A
C49   C54   1.352 1_455  A
C50   C51   1.383 1_455  A
C51   C50   1.383 1_655  A
C51   C52   1.386 .      A
C52   C53   1.381 .      A
C53   C54   1.374 .      A
C54   C49   1.352 1_655  A
C54   N18   1.331 .      A
N18   C48   1.368 1_655  A
C57   N20   1.373 .      A
C57   N21   1.365 .      A
N20   C58   1.349 .      A
C58   C59   1.373 .      A
C58   C63   1.365 .      A
C59   C60   1.386 .      A
C60   C61   1.389 .      A
C61   C62   1.384 .      A
C62   C63   1.374 .      A
C63   N21   1.346 .      A
C66   N23   1.390 .      A
C66   N24   1.380 .      A
N23   C67   1.348 .      A
C67   C68   1.370 1_655  A
C67   C72   1.355 .      A
C68   C67   1.370 1_455  A
C68   C69   1.384 .      A
C69   C70   1.385 .      A
C70   C71   1.381 .      A
C71   C72   1.370 1_455  A
C72   C71   1.370 1_655  A
C72   N24   1.342 .      A
C75   N26   1.373 .      A
C75   N27   1.387 .      A
N26   C76   1.337 .      A
C76   C77   1.373 .      A
C76   C81   1.346 .      A
C77   C78   1.358 .      A
C78   C79   1.369 .      A
C79   C80   1.379 .      A
C80   C81   1.384 .      A
C81   N27   1.364 .      A
C84   N29   1.378 .      A
C84   N30   1.391 .      A
N29   C85   1.352 .      A
C85   C86   1.373 .      A
C85   C90   1.370 .      A
C86   C87   1.383 .      A
C87   C88   1.388 .      A
C88   C89   1.384 .      A
C89   C90   1.376 .      A
C90   N30   1.350 .      A
C93   N32   1.372 .      A
C93   N33   1.390 .      A
N32   C94   1.345 .      A
C94   C95   1.379 .      A
C94   C99   1.359 .      A
C95   C96   1.378 .      A
C96   C97   1.377 .      A
C97   C98   1.379 .      A
C98   C99   1.370 .      A
C99   N33   1.360 .      A
C102  N35   1.394 .      A
C102  N36   1.391 .      A
N35   C103  1.349 .      A
C103  C104  1.372 .      A
C103  C108  1.366 .      A
C104  C105  1.381 .      A
C105  C106  1.383 .      A
C106  C107  1.378 .      A
C107  C108  1.360 .      A
C108  N36   1.348 .      A
C111  N38   1.381 .      A
C111  N39   1.393 .      A
N38   C112  1.347 .      A
C112  C113  1.375 .      A
C112  C117  1.366 .      A
C113  C114  1.382 .      A
C114  C115  1.386 .      A
C115  C116  1.383 .      A
C116  C117  1.374 .      A
C117  N39   1.354 .      A
C120  N41   1.364 .      A
C120  N42   1.387 .      A
N41   C121  1.353 .      A
C121  C122  1.375 .      A
C121  C126  1.364 .      A
C122  C123  1.382 .      A
C123  C124  1.386 .      A
C124  C125  1.382 .      A
C125  C126  1.373 .      A
C126  N42   1.349 .      A
C129  N44   1.395 .      A
C129  N45   1.390 .      A
N44   C130  1.349 .      A
C130  C131  1.374 .      A
C130  C135  1.370 .      A
C131  C132  1.382 .      A
C132  C133  1.385 .      A
C133  C134  1.383 .      A
C134  C135  1.378 .      A
C135  N45   1.354 .      A
C138  N47   1.387 .      A
C138  N48   1.387 .      A
N47   C139  1.354 1_455  A
C139  N47   1.354 1_655  A
C139  C140  1.359 .      A
C139  C144  1.351 1_655  A
C140  C141  1.384 .      A
C141  C142  1.383 1_565  A
C142  C141  1.383 1_545  A
C142  C143  1.380 1_645  A
C143  C142  1.380 1_465  A
C143  C144  1.372 .      A
C144  C139  1.351 1_455  A
C144  N48   1.340 .      A
C147  N50   1.395 .      A
C147  N51   1.371 .      A
N50   C148  1.348 1_655  A
C148  N50   1.348 1_455  A
C148  C149  1.374 .      A
C148  C153  1.360 .      A
C149  C150  1.380 .      A
C150  C151  1.382 .      A
C151  C152  1.381 .      A
C152  C153  1.376 .      A
C153  N51   1.352 1_455  A
N51   C153  1.352 1_655  A
C156  N53   1.392 1_455  A
C156  N54   1.386 .      A
N53   C156  1.392 1_655  A
N53   C157  1.355 .      A
C157  C158  1.376 .      A
C157  C162  1.375 1_655  A
C158  C159  1.381 .      A
C159  C160  1.384 .      A
C160  C161  1.382 1_655  A
C161  C160  1.382 1_455  A
C161  C162  1.379 .      A
C162  C157  1.375 1_455  A
C162  N54   1.356 .      A
C165  N56   1.405 .      A
C165  N57   1.391 .      A
N56   C166  1.356 .      A
C166  C167  1.367 .      A
C166  C171  1.360 .      A
C167  C168  1.380 .      A
C168  C169  1.381 .      A
C169  C170  1.381 .      A
C170  C171  1.376 .      A
C171  N57   1.346 .      A
C174  N59   1.384 .      A
C174  N60   1.381 .      A
N59   C175  1.375 .      A
C175  C176  1.378 .      A
C175  C180  1.350 .      A
C176  C177  1.376 .      A
C177  C178  1.368 .      A
C178  C179  1.376 .      A
C179  C180  1.363 .      A
C180  N60   1.321 .      A
C183  N62   1.398 .      A
C183  N63   1.402 .      A
N62   C184  1.346 .      A
C184  C185  1.349 .      A
C184  C189  1.367 .      A
C185  C186  1.381 .      A
C186  C187  1.383 .      A
C187  C188  1.381 .      A
C188  C189  1.375 .      A
C189  N63   1.348 .      A
C192  N65   1.380 .      A
C192  N66   1.380 .      A
N65   C193  1.360 .      A
C193  C194  1.376 .      A
C193  C198  1.366 .      A
C194  C195  1.385 .      A
C195  C196  1.387 .      A
C196  C197  1.381 .      A
C197  C198  1.374 .      A
C198  N66   1.341 .      A
C201  N68   1.401 .      A
C201  N69   1.386 .      A
N68   C202  1.350 .      A
C202  C203  1.368 .      A
C202  C207  1.369 .      A
C203  C204  1.383 .      A
C204  C205  1.387 .      A
C205  C206  1.383 .      A
C206  C207  1.377 .      A
C207  N69   1.350 .      A
C210  N71   1.393 .      A
C210  N72   1.384 .      A
N71   C211  1.346 .      A
C211  C212  1.370 .      A
C211  C216  1.354 .      A
C212  C213  1.384 .      A
C213  C214  1.386 .      A
C214  C215  1.382 .      A
C215  C216  1.372 .      A
C216  N72   1.346 .      A
C219  N74   1.396 .      A
C219  N75   1.376 .      A
N74   C220  1.359 .      A
C220  C221  1.376 .      A
C220  C225  1.373 .      A
C221  C222  1.385 .      A
C222  C223  1.388 .      A
C223  C224  1.383 .      A
C224  C225  1.376 .      A
C225  N75   1.346 .      A
C228  N77   1.390 .      A
C228  N78   1.375 .      A
N77   C229  1.354 .      A
C229  C230  1.371 .      A
C229  C234  1.370 .      A
C230  C231  1.385 .      A
C231  C232  1.387 .      A
C232  C233  1.382 .      A
C233  C234  1.378 .      A
C234  N78   1.347 .      A
C237  N80   1.383 .      A
C237  N81   1.393 .      A
N80   C238  1.366 .      A
C238  C239  1.377 .      A
C238  C243  1.365 .      A
C239  C240  1.387 .      A
C240  C241  1.382 .      A
C241  C242  1.377 .      A
C242  C243  1.372 .      A
C243  N81   1.333 .      A
C246  N83   1.378 .      A
C246  N84   1.390 .      A
N83   C247  1.357 .      A
C247  C248  1.380 .      A
C247  C252  1.365 .      A
C248  C249  1.382 .      A
C249  C250  1.382 .      A
C250  C251  1.380 .      A
C251  C252  1.381 .      A
C252  N84   1.353 .      A
C255  N86   1.385 .      A
C255  N87   1.385 .      A
N86   C256  1.347 .      A
C256  C257  1.373 .      A
C256  C261  1.348 .      A
C257  C258  1.375 .      A
C258  C259  1.371 .      A
C259  C260  1.376 .      A
C260  C261  1.386 .      A
C261  N87   1.361 .      A
C264  N89   1.395 .      A
C264  N90   1.383 .      A
N89   C265  1.353 .      A
C265  C266  1.368 .      A
C265  C270  1.359 .      A
C266  C267  1.382 .      A
C267  C268  1.384 .      A
C268  C269  1.381 .      A
C269  C270  1.372 .      A
C270  N90   1.342 .      A
C273  N92   1.387 .      A
C273  N93   1.376 .      A
N92   C274  1.356 .      A
C274  C275  1.372 1_455  A
C274  C279  1.363 .      A
C275  C274  1.372 1_655  A
C275  C276  1.379 .      A
C276  C277  1.380 1_655  A
C277  C276  1.380 1_455  A
C277  C278  1.381 .      A
C278  C279  1.373 .      A
C279  N93   1.347 .      A
C282  N95   1.392 .      A
C282  N96   1.400 .      A
N95   C283  1.357 .      A
C283  C284  1.374 1_554  A
C283  C288  1.356 .      A
C284  C283  1.374 1_556  A
C284  C285  1.377 .      A
C285  C286  1.374 1_556  A
C286  C285  1.374 1_554  A
C286  C287  1.376 .      A
C287  C288  1.376 .      A
C288  N96   1.347 .      A
C291  N98   1.394 .      A
C291  N99   1.381 .      A
N98   C292  1.354 .      A
C292  C293  1.365 .      A
C292  C297  1.369 .      A
C293  C294  1.384 .      A
C294  C295  1.385 1_554  A
C295  C294  1.385 1_556  A
C295  C296  1.381 .      A
C296  C297  1.373 1_556  A
C297  C296  1.373 1_554  A
C297  N99   1.343 .      A
C300  N101  1.383 .      A
C300  N102  1.383 .      A
N101  C301  1.339 .      A
C301  C302  1.375 .      A
C301  C306  1.363 .      A
C302  C303  1.377 .      A
C303  C304  1.377 .      A
C304  C305  1.381 .      A
C305  C306  1.381 .      A
C306  N102  1.368 .      A
C309  N104  1.376 .      A
C309  N105  1.367 .      A
N104  C310  1.353 .      A
C310  C311  1.371 .      A
C310  C315  1.363 .      A
C311  C312  1.384 .      A
C312  C313  1.388 .      A
C313  C314  1.383 .      A
C314  C315  1.374 .      A
C315  N105  1.348 .      A
C318  N107  1.383 1_655  A
C318  N108  1.383 .      A
N107  C318  1.383 1_455  A
N107  C319  1.352 .      A
C319  C320  1.370 .      A
C319  C324  1.357 .      A
C320  C321  1.384 .      A
C321  C322  1.385 .      A
C322  C323  1.381 .      A
C323  C324  1.368 .      A
C324  N108  1.339 1_455  A
N108  C324  1.339 1_655  A
C327  N110  1.385 .      A
C327  N111  1.388 .      A
N110  C328  1.359 1_455  A
C328  N110  1.359 1_655  A
C328  C329  1.373 .      A
C328  C333  1.367 .      A
C329  C330  1.383 .      A
C330  C331  1.381 .      A
C331  C332  1.377 .      A
C332  C333  1.375 .      A
C333  N111  1.347 1_655  A
N111  C333  1.347 1_455  A
C336  N113  1.376 .      A
C336  N114  1.368 .      A
N113  C337  1.358 .      A
C337  C338  1.379 .      A
C337  C342  1.356 .      A
C338  C339  1.377 .      A
C339  C340  1.372 .      A
C340  C341  1.377 .      A
C341  C342  1.372 .      A
C342  N114  1.344 .      A
C345  N116  1.375 .      A
C345  N117  1.379 .      A
N116  C346  1.351 .      A
C346  C347  1.370 .      A
C346  C351  1.362 .      A
C347  C348  1.385 .      A
C348  C349  1.387 .      A
C349  C350  1.381 .      A
C350  C351  1.375 .      A
C351  N117  1.344 .      A
C354  N119  1.351 .      A
C354  N120  1.357 .      A
N119  C355  1.344 .      A
C355  C356  1.362 1_565  A
C355  C360  1.369 .      A
C356  C355  1.362 1_545  A
C356  C357  1.374 .      A
C357  C358  1.382 .      A
C358  C359  1.374 1_545  A
C359  C358  1.374 1_565  A
C359  C360  1.369 .      A
C360  N120  1.344 .      A
C363  N122  1.380 .      A
C363  N123  1.402 .      A
N122  C364  1.351 .      A
C364  C365  1.358 .      A
C364  C369  1.359 .      A
C365  C366  1.383 .      A
C366  C367  1.386 .      A
C367  C368  1.382 .      A
C368  C369  1.377 .      A
C369  N123  1.342 .      A
C372  N125  1.379 .      A
C372  N126  1.385 1_455  A
N125  C373  1.347 .      A
C373  C374  1.367 .      A
C373  C378  1.360 .      A
C374  C375  1.385 .      A
C375  C376  1.386 .      A
C376  C377  1.382 .      A
C377  C378  1.369 .      A
C378  N126  1.348 1_455  A
N126  C372  1.385 1_655  A
N126  C378  1.348 1_655  A
C381  N128  1.386 .      A
C381  N129  1.362 .      A
N128  C382  1.336 .      A
C382  C383  1.368 .      A
C382  C387  1.360 .      A
C383  C384  1.378 .      A
C384  C385  1.384 1_455  A
C385  C384  1.384 1_655  A
C385  C386  1.385 .      A
C386  C387  1.374 1_655  A
C387  C386  1.374 1_455  A
C387  N129  1.361 .      A
C390  N131  1.368 .      A
C390  N132  1.385 .      A
N131  C391  1.335 .      A
C391  C392  1.368 .      A
C391  C396  1.345 .      A
C392  C393  1.379 .      A
C393  C394  1.384 .      A
C394  C395  1.378 .      A
C395  C396  1.369 .      A
C396  N132  1.347 .      A
C399  N134  1.379 .      A
C399  N135  1.381 .      A
N134  C400  1.348 .      A
C400  C401  1.372 .      A
C400  C405  1.354 .      A
C401  C402  1.382 .      A
C402  C403  1.385 .      A
C403  C404  1.382 .      A
C404  C405  1.368 .      A
C405  N135  1.343 .      A
C408  N137  1.389 .      A
C408  N138  1.379 .      A
N137  C409  1.341 .      A
C409  C410  1.361 .      A
C409  C414  1.352 .      A
C410  C411  1.383 .      A
C411  C412  1.377 .      A
C412  C413  1.375 .      A
C413  C414  1.361 .      A
C414  N138  1.334 .      A
C417  N140  1.383 .      A
C417  N141  1.396 .      A
N140  C418  1.349 .      A
C418  C419  1.366 .      A
C418  C423  1.356 .      A
C419  C420  1.384 .      A
C420  C421  1.386 .      A
C421  C422  1.382 .      A
C422  C423  1.370 .      A
C423  N141  1.343 .      A
C426  N143  1.367 .      A
C426  N144  1.373 .      A
N143  C427  1.357 .      A
C427  C428  1.378 .      A
C427  C432  1.373 .      A
C428  C429  1.382 .      A
C429  C430  1.383 .      A
C430  C431  1.381 .      A
C431  C432  1.375 .      A
C432  N144  1.352 .      A
C435  N146  1.370 .      A
C435  N147  1.377 .      A
N146  C436  1.343 .      A
C436  C437  1.373 1_565  A
C436  C441  1.355 .      A
C437  C436  1.373 1_545  A
C437  C438  1.384 .      A
C438  C439  1.384 1_545  A
C439  C438  1.384 1_565  A
C439  C440  1.377 .      A
C440  C441  1.359 .      A
C441  N147  1.344 .      A
C444  N149  1.387 .      A
C444  N150  1.385 .      A
N149  C445  1.350 .      A
C445  C446  1.368 .      A
C445  C450  1.360 .      A
C446  C447  1.381 .      A
C447  C448  1.384 .      A
C448  C449  1.381 .      A
C449  C450  1.377 .      A
C450  N150  1.347 .      A
C453  N152  1.367 .      A
C453  N153  1.375 .      A
N152  C454  1.337 .      A
C454  C455  1.368 .      A
C454  C459  1.346 .      A
C455  C456  1.371 .      A
C456  C457  1.385 .      A
C457  C458  1.383 .      A
C458  C459  1.366 .      A
C459  N153  1.347 .      A
C462  N155  1.397 .      A
C462  N156  1.380 .      A
N155  C463  1.349 .      A
C463  C464  1.367 .      A
C463  C468  1.368 .      A
C464  C465  1.375 .      A
C465  C466  1.378 .      A
C466  C467  1.385 .      A
C467  C468  1.371 .      A
C468  N156  1.350 .      A
C471  N158  1.406 .      A
C471  N159  1.400 .      A
N158  C472  1.351 .      A
C472  C473  1.375 .      A
C472  C477  1.376 .      A
C473  C474  1.381 .      A
C474  C475  1.384 .      A
C475  C476  1.383 .      A
C476  C477  1.381 .      A
C477  N159  1.362 .      A
C480  N161  1.358 .      A
C480  N162  1.384 .      A
N161  C481  1.341 .      A
C481  C482  1.378 .      A
C481  C486  1.353 .      A
C482  C483  1.381 .      A
C483  C484  1.386 .      A
C484  C485  1.385 .      A
C485  C486  1.369 .      A
C486  N162  1.357 .      A
C489  N164  1.383 .      A
C489  N165  1.377 .      A
N164  C490  1.346 .      A
C490  C491  1.377 .      A
C490  C495  1.352 .      A
C491  C492  1.380 .      A
C492  C493  1.381 .      A
C493  C494  1.382 .      A
C494  C495  1.378 .      A
C495  N165  1.353 .      A
C498  N167  1.376 .      A
C498  N168  1.381 .      A
N167  C499  1.343 .      A
C499  C500  1.360 .      A
C499  C504  1.361 .      A
C500  C501  1.383 .      A
C501  C502  1.383 .      A
C502  C503  1.380 .      A
C503  C504  1.372 .      A
C504  N168  1.346 .      A
C507  N170  1.395 .      A
C507  N171  1.384 .      A
N170  C508  1.333 .      A
C508  C509  1.372 .      A
C508  C513  1.329 .      A
C509  C510  1.368 .      A
C510  C511  1.374 .      A
C511  C512  1.369 .      A
C512  C513  1.339 .      A
C513  N171  1.335 .      A
C516  N173  1.399 .      A
C516  N174  1.401 .      A
N173  C517  1.355 .      A
C517  C518  1.369 1_556  A
C517  C522  1.379 .      A
C518  C517  1.369 1_554  A
C518  C519  1.387 1_455  A
C519  C518  1.387 1_655  A
C519  C520  1.389 .      A
C520  C521  1.382 1_655  A
C521  C520  1.382 1_455  A
C521  C522  1.370 1_554  A
C522  C521  1.370 1_556  A
C522  N174  1.347 .      A
C525  N176  1.354 .      A
C525  N177  1.377 .      A
N176  C526  1.342 .      A
C526  C527  1.373 1_554  A
C526  C531  1.354 .      A
C527  C526  1.373 1_556  A
C527  C528  1.386 .      A
C528  C529  1.388 1_556  A
C529  C528  1.388 1_554  A
C529  C530  1.382 .      A
C530  C531  1.371 .      A
C531  N177  1.348 .      A
C534  N179  1.387 1_455  A
C534  N180  1.409 1_455  A
N179  C534  1.387 1_655  A
N179  C535  1.342 .      A
C535  C536  1.375 .      A
C535  C540  1.372 .      A
C536  C537  1.380 .      A
C537  C538  1.385 .      A
C538  C539  1.384 .      A
C539  C540  1.375 .      A
C540  N180  1.361 .      A
N180  C534  1.409 1_655  A
C543  N182  1.366 .      A
C543  N183  1.360 .      A
N182  C544  1.347 .      A
C544  C545  1.375 .      A
C544  C549  1.363 .      A
C545  C546  1.382 .      A
C546  C547  1.387 .      A
C547  C548  1.385 .      A
C548  C549  1.378 .      A
C549  N183  1.354 .      A
C552  N185  1.379 .      A
C552  N186  1.373 .      A
N185  C553  1.351 .      A
C553  C554  1.376 .      A
C553  C558  1.360 .      A
C554  C555  1.384 .      A
C555  C556  1.387 .      A
C556  C557  1.382 .      A
C557  C558  1.372 .      A
C558  N186  1.346 .      A
C561  N188  1.410 .      A
C561  N189  1.412 .      A
N188  C562  1.346 .      A
C562  C563  1.367 .      A
C562  C567  1.359 .      A
C563  C564  1.381 .      A
C564  C565  1.383 .      A
C565  C566  1.381 .      A
C566  C567  1.365 .      A
C567  N189  1.344 .      A
C570  N191  1.377 .      A
C570  N192  1.384 .      A
N191  C571  1.344 .      A
C571  C572  1.375 .      A
C571  C576  1.364 .      A
C572  C573  1.379 .      A
C573  C574  1.383 .      A
C574  C575  1.383 .      A
C575  C576  1.377 .      A
C576  N192  1.361 .      A
