data_str_m1_o12004_SSF
_audit_creation_date              2015-10-01T06:33:27-0700
_symmetry_space_group_name_H-M    P1
_symmetry_Int_Tables_number       1
_space_group_crystal_system       triclinic
loop_
_symmetry_equiv_pos_as_xyz
  x,y,z
_cell_length_a                    26.1864323
_cell_length_b                    35.0672903
_cell_length_c                    34.5859532
_cell_angle_alpha                 62.5695236
_cell_angle_beta                  91.6440432
_cell_angle_gamma                 87.6346306
_cell_volume                      28124.2998302

loop_
_atom_site_label
_atom_site_type_symbol
_atom_site_description
_atom_site_fract_x
_atom_site_fract_y
_atom_site_fract_z
_atom_type_partial_charge
Zn1   Zn    Zn3+2 0.338629 0.362352 0.126273 0.000000
Zn2   Zn    Zn3+2 0.533307 0.467904 0.013891 0.000000
Zn3   Zn    Zn3+2 0.337252 0.357053 0.311357 0.000000
Zn4   Zn    Zn3+2 0.477353 0.005237 0.990715 0.000000
Zn5   Zn    Zn3+2 0.209512 0.344409 0.806497 0.000000
Zn6   Zn    Zn3+2 0.217535 0.677724 0.136993 0.000000
Zn7   Zn    Zn3+2 0.230562 0.042084 0.964591 0.000000
Zn8   Zn    Zn3+2 0.478689 0.684098 0.461491 0.000000
Zn9   Zn    Zn3+2 0.461959 0.830229 0.155628 0.000000
Zn10  Zn    Zn3+2 0.344094 0.989798 0.308262 0.000000
Zn11  Zn    Zn3+2 0.529778 0.468227 0.311206 0.000000
Zn12  Zn    Zn3+2 0.159691 0.182599 0.602830 0.000000
Zn13  Zn    Zn3+2 0.957702 0.377456 0.304795 0.000000
Zn14  Zn    Zn3+2 0.729747 0.351439 0.130364 0.000000
Zn15  Zn    Zn3+2 0.532897 0.161570 0.024432 0.000000
Zn16  Zn    Zn3+2 0.477325 0.498142 0.468991 0.000000
Zn17  Zn    Zn3+2 0.471228 0.656245 0.155087 0.000000
Zn18  Zn    Zn3+2 0.459762 0.315812 0.824844 0.000000
Zn19  Zn    Zn3+2 0.337304 0.175653 0.136830 0.000000
Zn20  Zn    Zn3+2 0.496108 0.009710 0.805466 0.000000
Zn21  Zn    Zn3+2 0.472397 0.332063 0.639670 0.000000
Zn22  Zn    Zn3+2 0.223553 0.351971 0.624580 0.000000
Zn23  Zn    Zn3+2 0.147831 0.491622 0.293387 0.000000
Zn24  Zn    Zn3+2 0.725344 0.989838 0.483282 0.000000
Zn25  Zn    Zn3+2 0.727564 0.983857 0.300048 0.000000
Zn26  Zn    Zn3+2 0.966253 0.010224 0.482979 0.000000
Zn27  Zn    Zn3+2 0.553770 0.864545 0.610770 0.000000
Zn28  Zn    Zn3+2 0.719937 0.174624 0.481272 0.000000
Zn29  Zn    Zn3+2 0.966219 0.996430 0.297948 0.000000
Zn30  Zn    Zn3+2 0.170639 0.899805 0.602536 0.000000
Zn31  Zn    Zn3+2 0.724096 0.168848 0.136963 0.000000
Zn32  Zn    Zn3+2 0.960449 0.195600 0.481503 0.000000
Zn33  Zn    Zn3+2 0.233020 0.519650 0.452905 0.000000
Zn34  Zn    Zn3+2 0.966374 0.373478 0.118772 0.000000
Zn35  Zn    Zn3+2 0.147219 0.196898 0.998702 0.000000
Zn36  Zn    Zn3+2 0.724545 0.356240 0.306282 0.000000
Zn37  Zn    Zn3+2 0.534602 0.866645 0.306346 0.000000
Zn38  Zn    Zn3+2 0.470537 0.681639 0.641344 0.000000
Zn39  Zn    Zn3+2 0.537079 0.169846 0.611756 0.000000
Zn40  Zn    Zn3+2 0.364817 0.994659 0.488794 0.000000
Zn41  Zn    Zn3+2 0.496467 0.829314 0.800950 0.000000
Zn42  Zn    Zn3+2 0.249204 0.843674 0.798537 0.000000
Zn43  Zn    Zn3+2 0.219127 0.704568 0.630308 0.000000
Zn44  Zn    Zn3+2 0.968744 0.182402 0.125608 0.000000
Zn45  Zn    Zn3+2 0.155741 0.884984 0.290139 0.000000
Zn46  Zn    Zn3+2 0.455756 0.503591 0.820534 0.000000
Zn47  Zn    Zn3+2 0.339238 0.172744 0.489522 0.000000
Zn48  Zn    Zn3+2 0.218196 0.859603 0.133362 0.000000
Zn49  Zn    Zn3+2 0.239906 0.024866 0.795289 0.000000
Zn50  Zn    Zn3+2 0.226959 0.669428 0.962356 0.000000
Zn51  Zn    Zn3+2 0.233892 0.702467 0.453291 0.000000
Zn52  Zn    Zn3+2 0.206787 0.529084 0.805266 0.000000
Zn53  Zn    Zn3+2 0.475045 0.658316 0.975259 0.000000
Zn54  Zn    Zn3+2 0.152658 0.483761 0.003303 0.000000
C1    C     C_3   0.460698 0.410820 0.193042 0.000000
N1    N     N_3   0.475293 0.401694 0.157682 0.000000
C2    C     C_3   0.453690 0.435669 0.116454 0.000000
C3    C     C_R   0.443720 0.418527 0.084942 0.000000
N2    N     N_R   0.466543 0.434638 0.044716 0.000000
C4    C     C_R   0.432824 0.423768 0.021797 0.000000
C5    C     C_R   0.421879 0.443485 0.977634 0.000000
C6    C     C_R   0.381082 0.429886 0.961936 0.000000
C7    C     C_R   0.355912 0.394656 0.989655 0.000000
C8    C     C_R   0.361568 0.381454 0.033124 0.000000
C9    C     C_R   0.397413 0.398656 0.047781 0.000000
N3    N     N_R   0.401113 0.394811 0.087840 0.000000
H1    H     H_    0.491246 0.398491 0.219406 0.000000
H2    H     H_    0.453325 0.445786 0.181183 0.000000
H3    H     H_    0.426385 0.394134 0.207468 0.000000
H4    H     H_    0.459919 0.373055 0.162696 0.000000
H5    H     H_    0.416595 0.448804 0.121238 0.000000
H6    H     H_    0.480380 0.461895 0.102771 0.000000
H7    H     H_    0.439412 0.471744 0.955912 0.000000
H8    H     H_    0.368767 0.446864 0.928040 0.000000
H9    H     H_    0.328747 0.379592 0.978378 0.000000
H10   H     H_    0.340906 0.356502 0.055899 0.000000
C10   C     C_3   0.298936 0.487899 0.166780 0.000000
N4    N     N_3   0.325719 0.449806 0.168777 0.000000
C11   C     C_3   0.304315 0.413871 0.204436 0.000000
C12   C     C_R   0.331935 0.371909 0.216267 0.000000
N5    N     N_R   0.348728 0.357485 0.187487 0.000000
C13   C     C_R   0.378526 0.322154 0.214107 0.000000
C14   C     C_R   0.413432 0.299584 0.202159 0.000000
C15   C     C_R   0.438465 0.262858 0.234426 0.000000
C16   C     C_R   0.427813 0.249094 0.277547 0.000000
C17   C     C_R   0.395506 0.273900 0.288996 0.000000
C18   C     C_R   0.373908 0.312460 0.256552 0.000000
N6    N     N_R   0.345773 0.344333 0.259287 0.000000
H11   H     H_    0.305863 0.516261 0.135938 0.000000
H12   H     H_    0.257298 0.483663 0.169055 0.000000
H13   H     H_    0.312254 0.493413 0.194217 0.000000
H14   H     H_    0.363711 0.450686 0.177608 0.000000
H15   H     H_    0.307893 0.419511 0.233135 0.000000
H16   H     H_    0.263916 0.412120 0.196663 0.000000
H17   H     H_    0.422450 0.310638 0.168585 0.000000
H18   H     H_    0.465730 0.244434 0.225975 0.000000
H19   H     H_    0.445875 0.219282 0.302592 0.000000
H20   H     H_    0.387497 0.261528 0.322694 0.000000
C19   C     C_3   0.320783 0.006404 0.908019 0.000000
N7    N     N_3   0.354407 0.974730 0.942255 0.000000
C20   C     C_3   0.339013 0.972407 0.983218 0.000000
C21   C     C_R   0.349241 0.013691 0.981417 0.000000
N8    N     N_R   0.399258 0.025453 0.980659 0.000000
C22   C     C_R   0.392389 0.067883 0.963186 0.000000
C23   C     C_R   0.430430 0.095359 0.949494 0.000000
C24   C     C_R   0.418408 0.138130 0.932879 0.000000
C25   C     C_R   0.368252 0.152217 0.922172 0.000000
C26   C     C_R   0.331439 0.123873 0.925214 0.000000
C27   C     C_R   0.342451 0.081348 0.952147 0.000000
N9    N     N_R   0.312249 0.047605 0.965102 0.000000
H21   H     H_    0.320682 0.001396 0.879009 0.000000
H22   H     H_    0.282815 0.001859 0.920731 0.000000
H23   H     H_    0.333458 0.039274 0.897585 0.000000
H24   H     H_    0.389616 0.988281 0.935970 0.000000
H25   H     H_    0.298759 0.964690 0.988475 0.000000
H26   H     H_    0.361875 0.947289 0.010997 0.000000
H27   H     H_    0.467597 0.084109 0.946357 0.000000
H28   H     H_    0.448069 0.160542 0.922578 0.000000
H29   H     H_    0.358997 0.186032 0.908988 0.000000
H30   H     H_    0.295551 0.134945 0.907500 0.000000
C28   C     C_3   0.497090 0.532160 0.592106 0.000000
N10   N     N_3   0.502412 0.562419 0.546987 0.000000
C29   C     C_3   0.464876 0.556920 0.519070 0.000000
C30   C     C_R   0.479071 0.583636 0.473897 0.000000
N11   N     N_R   0.493616 0.626242 0.455876 0.000000
C31   C     C_R   0.525484 0.626949 0.425642 0.000000
C32   C     C_R   0.560560 0.656777 0.404668 0.000000
C33   C     C_R   0.593381 0.649599 0.377877 0.000000
C34   C     C_R   0.589017 0.614158 0.370716 0.000000
C35   C     C_R   0.554661 0.583799 0.393094 0.000000
C36   C     C_R   0.525509 0.589435 0.422662 0.000000
N12   N     N_R   0.496216 0.561099 0.452978 0.000000
H31   H     H_    0.535243 0.520599 0.608821 0.000000
H32   H     H_    0.478642 0.549198 0.608342 0.000000
H33   H     H_    0.474828 0.504964 0.595085 0.000000
H34   H     H_    0.538056 0.556755 0.537732 0.000000
H35   H     H_    0.468228 0.523634 0.524197 0.000000
H36   H     H_    0.425360 0.560892 0.526569 0.000000
H37   H     H_    0.565440 0.683507 0.410891 0.000000
H38   H     H_    0.622307 0.672030 0.362104 0.000000
H39   H     H_    0.613455 0.609582 0.348361 0.000000
H40   H     H_    0.550977 0.557342 0.386281 0.000000
C37   C     C_3   0.404573 0.606117 0.569411 0.000000
N13   N     N_3   0.369723 0.640193 0.539053 0.000000
C38   C     C_3   0.364057 0.636556 0.499092 0.000000
C39   C     C_R   0.358268 0.679518 0.462801 0.000000
N14   N     N_R   0.312629 0.703796 0.453135 0.000000
C40   C     C_R   0.328805 0.742918 0.439618 0.000000
C41   C     C_R   0.301622 0.774222 0.443384 0.000000
C42   C     C_R   0.327020 0.808267 0.440724 0.000000
C43   C     C_R   0.378283 0.811125 0.434343 0.000000
C44   C     C_R   0.404923 0.779544 0.429725 0.000000
C45   C     C_R   0.380336 0.743425 0.436327 0.000000
N15   N     N_R   0.400906 0.703079 0.450431 0.000000
H41   H     H_    0.412425 0.609697 0.599066 0.000000
H42   H     H_    0.388838 0.574465 0.578165 0.000000
H43   H     H_    0.440657 0.609670 0.554051 0.000000
H44   H     H_    0.384985 0.669428 0.532120 0.000000
H45   H     H_    0.399033 0.623550 0.492415 0.000000
H46   H     H_    0.330939 0.618088 0.500597 0.000000
H47   H     H_    0.263165 0.769782 0.453537 0.000000
H48   H     H_    0.306065 0.833447 0.442135 0.000000
H49   H     H_    0.397615 0.838267 0.433004 0.000000
H50   H     H_    0.444676 0.782795 0.426026 0.000000
C46   C     C_3   0.530731 0.824054 0.026449 0.000000
N16   N     N_3   0.497463 0.794291 0.057922 0.000000
C47   C     C_3   0.520851 0.780333 0.101220 0.000000
C48   C     C_R   0.488188 0.753121 0.137784 0.000000
N17   N     N_R   0.482954 0.769282 0.166749 0.000000
C49   C     C_R   0.505833 0.737523 0.203845 0.000000
C50   C     C_R   0.520501 0.738547 0.241755 0.000000
C51   C     C_R   0.561381 0.711338 0.266528 0.000000
C52   C     C_R   0.586063 0.684258 0.252883 0.000000
C53   C     C_R   0.565588 0.680310 0.217674 0.000000
C54   C     C_R   0.521031 0.703788 0.197326 0.000000
N18   N     N_R   0.502065 0.709449 0.158773 0.000000
H51   H     H_    0.510870 0.838924 0.993745 0.000000
H52   H     H_    0.540199 0.849993 0.034743 0.000000
H53   H     H_    0.566559 0.806543 0.025725 0.000000
H54   H     H_    0.497317 0.767923 0.051851 0.000000
H55   H     H_    0.558107 0.762955 0.104723 0.000000
H56   H     H_    0.529310 0.808711 0.105477 0.000000
H57   H     H_    0.503180 0.761064 0.251234 0.000000
H58   H     H_    0.576577 0.714089 0.294338 0.000000
H59   H     H_    0.620686 0.665632 0.270209 0.000000
H60   H     H_    0.584746 0.660320 0.205681 0.000000
C55   C     C_3   0.348805 0.975275 0.098535 0.000000
N19   N     N_3   0.336044 0.931575 0.126670 0.000000
C56   C     C_3   0.348235 0.906486 0.104645 0.000000
C57   C     C_R   0.342392 0.861110 0.135368 0.000000
N20   N     N_R   0.383229 0.832715 0.158532 0.000000
C58   C     C_R   0.359454 0.797650 0.185013 0.000000
C59   C     C_R   0.380965 0.761535 0.219286 0.000000
C60   C     C_R   0.348732 0.733112 0.247673 0.000000
C61   C     C_R   0.296133 0.740640 0.240783 0.000000
C62   C     C_R   0.275146 0.777047 0.206180 0.000000
C63   C     C_R   0.307813 0.804786 0.178366 0.000000
N21   N     N_R   0.295136 0.844527 0.146954 0.000000
H61   H     H_    0.386780 0.980671 0.108873 0.000000
H62   H     H_    0.348800 0.981204 0.064502 0.000000
H63   H     H_    0.320602 0.998030 0.100864 0.000000
H64   H     H_    0.296919 0.930448 0.129937 0.000000
H65   H     H_    0.321391 0.915785 0.075998 0.000000
H66   H     H_    0.387990 0.911661 0.095258 0.000000
H67   H     H_    0.420965 0.757751 0.227134 0.000000
H68   H     H_    0.364897 0.705445 0.276238 0.000000
H69   H     H_    0.271008 0.719648 0.263805 0.000000
H70   H     H_    0.234949 0.785137 0.204726 0.000000
C64   C     C_3   0.642120 0.905534 0.099052 0.000000
N22   N     N_3   0.593216 0.899683 0.082196 0.000000
C65   C     C_3   0.552761 0.919783 0.095827 0.000000
C66   C     C_R   0.502669 0.914302 0.078070 0.000000
N23   N     N_R   0.486608 0.939998 0.035044 0.000000
C67   C     C_R   0.458400 0.913316 0.026973 0.000000
C68   C     C_R   0.441809 0.917601 0.987915 0.000000
C69   C     C_R   0.405543 0.890082 0.988157 0.000000
C70   C     C_R   0.387756 0.860233 0.026704 0.000000
C71   C     C_R   0.414275 0.850084 0.065203 0.000000
C72   C     C_R   0.450778 0.877304 0.063743 0.000000
N24   N     N_R   0.478092 0.876384 0.097145 0.000000
H71   H     H_    0.673069 0.888796 0.090356 0.000000
H72   H     H_    0.649038 0.940298 0.084438 0.000000
H73   H     H_    0.642451 0.891730 0.135039 0.000000
H74   H     H_    0.588151 0.866797 0.095934 0.000000
H75   H     H_    0.552976 0.905068 0.131780 0.000000
H76   H     H_    0.559683 0.954308 0.082102 0.000000
H77   H     H_    0.454886 0.942751 0.958485 0.000000
H78   H     H_    0.387545 0.894065 0.958446 0.000000
H79   H     H_    0.354762 0.843619 0.026069 0.000000
H80   H     H_    0.405404 0.822554 0.094826 0.000000
C73   C     C_3   0.498368 0.086831 0.198105 0.000000
N25   N     N_3   0.453982 0.082902 0.223707 0.000000
C74   C     C_3   0.411464 0.070361 0.205393 0.000000
C75   C     C_R   0.362506 0.080551 0.220175 0.000000
N26   N     N_R   0.340148 0.051593 0.257521 0.000000
C76   C     C_R   0.294743 0.071789 0.254477 0.000000
C77   C     C_R   0.258447 0.058916 0.284941 0.000000
C78   C     C_R   0.214037 0.084766 0.275474 0.000000
C79   C     C_R   0.206695 0.121385 0.235557 0.000000
C80   C     C_R   0.243930 0.133211 0.205800 0.000000
C81   C     C_R   0.288761 0.109050 0.216874 0.000000
N27   N     N_R   0.331585 0.117359 0.194477 0.000000
H81   H     H_    0.528953 0.101636 0.208226 0.000000
H82   H     H_    0.512236 0.054803 0.203240 0.000000
H83   H     H_    0.488989 0.106097 0.163102 0.000000
H84   H     H_    0.444294 0.111687 0.224131 0.000000
H85   H     H_    0.410359 0.088460 0.169982 0.000000
H86   H     H_    0.416414 0.035637 0.214901 0.000000
H87   H     H_    0.265278 0.030785 0.316014 0.000000
H88   H     H_    0.185278 0.076299 0.299230 0.000000
H89   H     H_    0.172338 0.141698 0.226950 0.000000
H90   H     H_    0.238193 0.160946 0.175279 0.000000
C82   C     C_3   0.429881 0.554790 0.366372 0.000000
N28   N     N_3   0.436651 0.529684 0.343162 0.000000
C83   C     C_3   0.440826 0.484665 0.374013 0.000000
C84   C     C_R   0.493765 0.474483 0.392023 0.000000
N29   N     N_R   0.532149 0.472759 0.366856 0.000000
C85   C     C_R   0.574314 0.476533 0.387553 0.000000
C86   C     C_R   0.622236 0.485894 0.371918 0.000000
C87   C     C_R   0.659493 0.490953 0.398082 0.000000
C88   C     C_R   0.647676 0.488361 0.438061 0.000000
C89   C     C_R   0.597990 0.482648 0.451233 0.000000
C90   C     C_R   0.561863 0.477554 0.424896 0.000000
N30   N     N_R   0.510663 0.479253 0.427425 0.000000
H91   H     H_    0.462465 0.549521 0.388989 0.000000
H92   H     H_    0.425209 0.589438 0.343624 0.000000
H93   H     H_    0.395047 0.545592 0.383876 0.000000
H94   H     H_    0.470816 0.536647 0.328305 0.000000
H95   H     H_    0.413176 0.477732 0.399016 0.000000
H96   H     H_    0.432811 0.465460 0.356960 0.000000
H97   H     H_    0.630829 0.490179 0.339967 0.000000
H98   H     H_    0.697866 0.497505 0.387060 0.000000
H99   H     H_    0.676948 0.492694 0.458117 0.000000
H100  H     H_    0.587736 0.482955 0.480720 0.000000
C91   C     C_3   0.453197 0.627643 0.260339 0.000000
N31   N     N_3   0.505056 0.619231 0.279479 0.000000
C92   C     C_3   0.534525 0.585391 0.274905 0.000000
C93   C     C_R   0.510045 0.569998 0.245522 0.000000
N32   N     N_R   0.513999 0.526414 0.257967 0.000000
C94   C     C_R   0.513724 0.525378 0.219758 0.000000
C95   C     C_R   0.519942 0.489519 0.213558 0.000000
C96   C     C_R   0.531772 0.495724 0.172591 0.000000
C97   C     C_R   0.539621 0.536445 0.140400 0.000000
C98   C     C_R   0.531842 0.571763 0.147460 0.000000
C99   C     C_R   0.513239 0.565734 0.186398 0.000000
N33   N     N_R   0.504891 0.595343 0.200596 0.000000
H101  H     H_    0.433028 0.597818 0.272033 0.000000
H102  H     H_    0.432802 0.649926 0.270043 0.000000
H103  H     H_    0.452679 0.643829 0.224521 0.000000
H104  H     H_    0.503515 0.610360 0.312547 0.000000
H105  H     H_    0.572409 0.596418 0.262783 0.000000
H106  H     H_    0.544103 0.558035 0.307424 0.000000
H107  H     H_    0.519615 0.457440 0.240203 0.000000
H108  H     H_    0.539894 0.468752 0.166486 0.000000
H109  H     H_    0.554365 0.540270 0.110357 0.000000
H110  H     H_    0.545721 0.601643 0.124619 0.000000
C100  C     C_3   0.396376 0.537734 0.216443 0.000000
N34   N     N_3   0.412120 0.505596 0.260076 0.000000
C101  C     C_3   0.388652 0.467078 0.266119 0.000000
C102  C     C_R   0.419399 0.429284 0.298004 0.000000
N35   N     N_R   0.470216 0.429471 0.311173 0.000000
C103  C     C_R   0.484493 0.387811 0.328305 0.000000
C104  C     C_R   0.527870 0.368400 0.352272 0.000000
C105  C     C_R   0.536146 0.324907 0.366695 0.000000
C106  C     C_R   0.499796 0.302192 0.357614 0.000000
C107  C     C_R   0.453215 0.321930 0.339202 0.000000
C108  C     C_R   0.446568 0.364782 0.324626 0.000000
N36   N     N_R   0.403023 0.389064 0.308749 0.000000
H111  H     H_    0.410069 0.568916 0.211161 0.000000
H112  H     H_    0.413505 0.528600 0.192805 0.000000
H113  H     H_    0.354353 0.540294 0.211650 0.000000
H114  H     H_    0.397480 0.515290 0.281937 0.000000
H115  H     H_    0.348951 0.466929 0.275964 0.000000
H116  H     H_    0.387962 0.464631 0.235433 0.000000
H117  H     H_    0.551530 0.386771 0.361843 0.000000
H118  H     H_    0.569625 0.307818 0.387064 0.000000
H119  H     H_    0.505324 0.267946 0.369144 0.000000
H120  H     H_    0.422353 0.303973 0.338854 0.000000
C109  C     C_3   0.210186 0.294444 0.435014 0.000000
N37   N     N_3   0.218180 0.248250 0.461638 0.000000
C110  C     C_3   0.236963 0.239352 0.504857 0.000000
C111  C     C_R   0.243099 0.191852 0.532860 0.000000
N38   N     N_R   0.209498 0.170588 0.564988 0.000000
C112  C     C_R   0.211625 0.131257 0.567950 0.000000
C113  C     C_R   0.178415 0.100014 0.588959 0.000000
C114  C     C_R   0.175760 0.067782 0.576978 0.000000
C115  C     C_R   0.213248 0.062673 0.552029 0.000000
C116  C     C_R   0.250195 0.091856 0.535487 0.000000
C117  C     C_R   0.246056 0.128288 0.540746 0.000000
N39   N     N_R   0.270523 0.165289 0.520572 0.000000
H121  H     H_    0.221380 0.303347 0.401412 0.000000
H122  H     H_    0.169079 0.303832 0.433879 0.000000
H123  H     H_    0.233494 0.311735 0.448401 0.000000
H124  H     H_    0.247402 0.237715 0.448829 0.000000
H125  H     H_    0.273760 0.253978 0.502718 0.000000
H126  H     H_    0.208099 0.252651 0.518725 0.000000
H127  H     H_    0.149199 0.104141 0.608066 0.000000
H128  H     H_    0.146489 0.044972 0.589426 0.000000
H129  H     H_    0.214353 0.035367 0.545772 0.000000
H130  H     H_    0.278308 0.086033 0.517257 0.000000
C118  C     C_3   0.215806 0.175432 0.708109 0.000000
N40   N     N_3   0.256090 0.168249 0.683708 0.000000
C119  C     C_3   0.256503 0.126315 0.684587 0.000000
C120  C     C_R   0.207509 0.107745 0.695281 0.000000
N41   N     N_R   0.165734 0.126508 0.666086 0.000000
C121  C     C_R   0.128929 0.100565 0.688136 0.000000
C122  C     C_R   0.079735 0.100055 0.673779 0.000000
C123  C     C_R   0.047302 0.071870 0.702733 0.000000
C124  C     C_R   0.065178 0.043563 0.744772 0.000000
C125  C     C_R   0.116088 0.042017 0.757123 0.000000
C126  C     C_R   0.147647 0.069925 0.728374 0.000000
N42   N     N_R   0.198568 0.071653 0.734309 0.000000
H131  H     H_    0.178311 0.183707 0.689712 0.000000
H132  H     H_    0.213505 0.147858 0.740599 0.000000
H133  H     H_    0.225235 0.203515 0.712664 0.000000
H134  H     H_    0.290176 0.169146 0.698825 0.000000
H135  H     H_    0.262786 0.130233 0.651786 0.000000
H136  H     H_    0.286336 0.103884 0.707223 0.000000
H137  H     H_    0.067138 0.118988 0.640372 0.000000
H138  H     H_    0.008160 0.071349 0.692302 0.000000
H139  H     H_    0.039938 0.021163 0.767255 0.000000
H140  H     H_    0.131323 0.019002 0.787832 0.000000
C127  C     C_3   0.050070 0.337448 0.591470 0.000000
N43   N     N_3   0.099696 0.322066 0.614813 0.000000
C128  C     C_3   0.110741 0.278554 0.621454 0.000000
C129  C     C_R   0.165522 0.272310 0.614755 0.000000
N44   N     N_R   0.201249 0.302301 0.610322 0.000000
C130  C     C_R   0.240594 0.288202 0.595907 0.000000
C131  C     C_R   0.281387 0.310858 0.576274 0.000000
C132  C     C_R   0.319047 0.290737 0.564626 0.000000
C133  C     C_R   0.316147 0.248138 0.574794 0.000000
C134  C     C_R   0.273101 0.226931 0.592285 0.000000
C135  C     C_R   0.232748 0.249661 0.597598 0.000000
N45   N     N_R   0.184188 0.238540 0.607220 0.000000
H141  H     H_    0.037980 0.368363 0.590948 0.000000
H142  H     H_    0.052631 0.342949 0.557342 0.000000
H143  H     H_    0.021266 0.313685 0.608245 0.000000
H144  H     H_    0.095702 0.320008 0.645561 0.000000
H145  H     H_    0.101464 0.255365 0.654906 0.000000
H146  H     H_    0.087865 0.273444 0.597024 0.000000
H147  H     H_    0.282493 0.344419 0.567377 0.000000
H148  H     H_    0.352395 0.307311 0.550904 0.000000
H149  H     H_    0.348589 0.230577 0.571208 0.000000
H150  H     H_    0.272850 0.193542 0.601642 0.000000
C136  C     C_3   0.914481 0.496242 0.175766 0.000000
N46   N     N_3   0.947345 0.459123 0.182524 0.000000
C137  C     C_3   0.917058 0.422458 0.191818 0.000000
C138  C     C_R   0.953304 0.384117 0.208110 0.000000
N47   N     N_R   0.974003 0.365012 0.250684 0.000000
C139  C     C_R   0.011378 0.338081 0.248668 0.000000
C140  C     C_R   0.037935 0.303499 0.281688 0.000000
C141  C     C_R   0.077670 0.283107 0.271448 0.000000
C142  C     C_R   0.087911 0.295789 0.228325 0.000000
C143  C     C_R   0.054403 0.325114 0.195499 0.000000
C144  C     C_R   0.014951 0.343666 0.207223 0.000000
N48   N     N_R   0.976466 0.369692 0.181038 0.000000
H151  H     H_    0.886758 0.504612 0.147907 0.000000
H152  H     H_    0.895182 0.489685 0.206045 0.000000
H153  H     H_    0.938102 0.524176 0.167540 0.000000
H154  H     H_    0.971024 0.450459 0.210256 0.000000
H155  H     H_    0.890563 0.418439 0.217524 0.000000
H156  H     H_    0.895036 0.426711 0.162193 0.000000
H157  H     H_    0.024057 0.288611 0.313643 0.000000
H158  H     H_    0.099537 0.256085 0.297129 0.000000
H159  H     H_    0.119028 0.279739 0.220509 0.000000
H160  H     H_    0.058672 0.332495 0.161819 0.000000
C145  C     C_3   0.989880 0.571586 0.220381 0.000000
N49   N     N_3   0.022918 0.534840 0.250418 0.000000
C146  C     C_3   0.008372 0.497215 0.246288 0.000000
C147  C     C_R   0.034779 0.457807 0.281801 0.000000
N50   N     N_R   0.076615 0.462207 0.305082 0.000000
C148  C     C_R   0.066845 0.434255 0.346358 0.000000
C149  C     C_R   0.093294 0.425836 0.384429 0.000000
C150  C     C_R   0.068221 0.405318 0.422748 0.000000
C151  C     C_R   0.020253 0.390167 0.422889 0.000000
C152  C     C_R   0.997683 0.394440 0.384580 0.000000
C153  C     C_R   0.022809 0.415019 0.347358 0.000000
N51   N     N_R   0.004472 0.424729 0.307264 0.000000
H161  H     H_    0.004779 0.601418 0.218737 0.000000
H162  H     H_    0.989042 0.573833 0.187364 0.000000
H163  H     H_    0.950539 0.568245 0.232130 0.000000
H164  H     H_    0.014820 0.529833 0.281737 0.000000
H165  H     H_    0.966719 0.494392 0.250055 0.000000
H166  H     H_    0.017129 0.500214 0.214154 0.000000
H167  H     H_    0.130842 0.436681 0.384879 0.000000
H168  H     H_    0.084585 0.403427 0.452407 0.000000
H169  H     H_    0.000278 0.375747 0.452757 0.000000
H170  H     H_    0.959196 0.386526 0.382193 0.000000
C154  C     C_3   0.823173 0.286895 0.079090 0.000000
N52   N     N_3   0.857666 0.316677 0.082319 0.000000
C155  C     C_3   0.857040 0.314403 0.125321 0.000000
C156  C     C_R   0.849596 0.358362 0.119971 0.000000
N53   N     N_R   0.887474 0.387161 0.104096 0.000000
C157  C     C_R   0.859810 0.425136 0.083424 0.000000
C158  C     C_R   0.875794 0.464206 0.053820 0.000000
C159  C     C_R   0.840119 0.498914 0.035880 0.000000
C160  C     C_R   0.789299 0.493810 0.046733 0.000000
C161  C     C_R   0.772991 0.453477 0.073810 0.000000
C162  C     C_R   0.808934 0.419413 0.090506 0.000000
N54   N     N_R   0.800841 0.377246 0.113512 0.000000
H171  H     H_    0.833520 0.281091 0.051377 0.000000
H172  H     H_    0.826048 0.255923 0.109388 0.000000
H173  H     H_    0.783758 0.301609 0.071934 0.000000
H174  H     H_    0.844116 0.347546 0.059370 0.000000
H175  H     H_    0.825503 0.296518 0.142077 0.000000
H176  H     H_    0.892162 0.298186 0.144994 0.000000
H177  H     H_    0.913961 0.467400 0.042491 0.000000
H178  H     H_    0.851774 0.530154 0.012713 0.000000
H179  H     H_    0.761923 0.521238 0.032515 0.000000
H180  H     H_    0.733255 0.449200 0.081135 0.000000
C163  C     C_3   0.582786 0.368540 0.195247 0.000000
N55   N     N_3   0.592262 0.365289 0.155587 0.000000
C164  C     C_3   0.601321 0.408100 0.121990 0.000000
C165  C     C_R   0.623407 0.406373 0.083738 0.000000
N56   N     N_R   0.672180 0.388599 0.085595 0.000000
C166  C     C_R   0.682187 0.404468 0.043521 0.000000
C167  C     C_R   0.727263 0.398555 0.027236 0.000000
C168  C     C_R   0.734863 0.425131 0.983939 0.000000
C169  C     C_R   0.697949 0.457222 0.958877 0.000000
C170  C     C_R   0.651647 0.460542 0.975823 0.000000
C171  C     C_R   0.643020 0.431777 0.017821 0.000000
N57   N     N_R   0.603007 0.431925 0.041721 0.000000
H181  H     H_    0.557296 0.343249 0.215625 0.000000
H182  H     H_    0.618728 0.365331 0.214022 0.000000
H183  H     H_    0.565835 0.400708 0.186935 0.000000
H184  H     H_    0.558903 0.355879 0.146008 0.000000
H185  H     H_    0.564980 0.428203 0.111082 0.000000
H186  H     H_    0.628808 0.423099 0.135077 0.000000
H187  H     H_    0.756603 0.375010 0.047835 0.000000
H188  H     H_    0.770557 0.422325 0.970253 0.000000
H189  H     H_    0.705236 0.479786 0.925692 0.000000
H190  H     H_    0.624518 0.486245 0.956667 0.000000
C172  C     C_3   0.662960 0.206053 0.903551 0.000000
N58   N     N_3   0.612416 0.199369 0.920940 0.000000
C173  C     C_3   0.582428 0.240140 0.900090 0.000000
C174  C     C_R   0.528229 0.234107 0.913234 0.000000
N59   N     N_R   0.487877 0.261811 0.885728 0.000000
C175  C     C_R   0.450038 0.249741 0.912522 0.000000
C176  C     C_R   0.413403 0.277524 0.911822 0.000000
C177  C     C_R   0.392255 0.269233 0.950198 0.000000
C178  C     C_R   0.396010 0.228200 0.984298 0.000000
C179  C     C_R   0.432562 0.200029 0.982682 0.000000
C180  C     C_R   0.464339 0.216116 0.950824 0.000000
N60   N     N_R   0.514180 0.206094 0.955513 0.000000
H191  H     H_    0.680068 0.232769 0.907072 0.000000
H192  H     H_    0.687836 0.176241 0.922016 0.000000
H193  H     H_    0.660220 0.213567 0.868674 0.000000
H194  H     H_    0.617249 0.190631 0.954040 0.000000
H195  H     H_    0.599327 0.263673 0.908740 0.000000
H196  H     H_    0.583417 0.253773 0.864285 0.000000
H197  H     H_    0.412094 0.308749 0.885833 0.000000
H198  H     H_    0.373473 0.295489 0.952856 0.000000
H199  H     H_    0.374509 0.220180 0.012879 0.000000
H200  H     H_    0.442273 0.167870 0.005862 0.000000
C181  C     C_3   0.356805 0.083435 0.047683 0.000000
N61   N     N_3   0.377205 0.123489 0.041406 0.000000
C182  C     C_3   0.404141 0.115012 0.081698 0.000000
C183  C     C_R   0.425648 0.154139 0.081008 0.000000
N62   N     N_R   0.476116 0.166038 0.069883 0.000000
C184  C     C_R   0.486204 0.184041 0.096478 0.000000
C185  C     C_R   0.531484 0.197076 0.105676 0.000000
C186  C     C_R   0.534820 0.205538 0.141045 0.000000
C187  C     C_R   0.495166 0.198360 0.168262 0.000000
C188  C     C_R   0.449562 0.186818 0.157904 0.000000
C189  C     C_R   0.444982 0.183506 0.119990 0.000000
N63   N     N_R   0.404331 0.169468 0.107719 0.000000
H201  H     H_    0.326349 0.090408 0.022454 0.000000
H202  H     H_    0.387778 0.062052 0.045718 0.000000
H203  H     H_    0.340001 0.067171 0.079740 0.000000
H204  H     H_    0.347124 0.145590 0.036642 0.000000
H205  H     H_    0.377538 0.102891 0.108056 0.000000
H206  H     H_    0.433036 0.089048 0.090235 0.000000
H207  H     H_    0.563497 0.201169 0.086487 0.000000
H208  H     H_    0.569119 0.216343 0.149208 0.000000
H209  H     H_    0.499798 0.202228 0.197286 0.000000
H210  H     H_    0.419087 0.179494 0.179890 0.000000
C190  C     C_3   0.604768 0.100308 0.903970 0.000000
N64   N     N_3   0.559590 0.101992 0.926836 0.000000
C191  C     C_3   0.576358 0.092593 0.970729 0.000000
C192  C     C_R   0.532960 0.083614 0.999969 0.000000
N65   N     N_R   0.531773 0.100988 0.028648 0.000000
C193  C     C_R   0.516530 0.068316 0.064783 0.000000
C194  C     C_R   0.522549 0.062532 0.106630 0.000000
C195  C     C_R   0.517948 0.021467 0.139786 0.000000
C196  C     C_R   0.500005 0.990198 0.130105 0.000000
C197  C     C_R   0.484373 0.000066 0.088224 0.000000
C198  C     C_R   0.501244 0.036467 0.056310 0.000000
N66   N     N_R   0.510315 0.044445 0.015412 0.000000
H211  H     H_    0.593006 0.104372 0.871248 0.000000
H212  H     H_    0.629643 0.126401 0.900416 0.000000
H213  H     H_    0.626552 0.068823 0.921812 0.000000
H214  H     H_    0.544779 0.133863 0.911929 0.000000
H215  H     H_    0.603396 0.063768 0.985082 0.000000
H216  H     H_    0.596168 0.119956 0.970133 0.000000
H217  H     H_    0.533732 0.088189 0.113091 0.000000
H218  H     H_    0.529067 0.013130 0.173064 0.000000
H219  H     H_    0.500025 0.957450 0.154855 0.000000
H220  H     H_    0.465554 0.977705 0.080833 0.000000
C199  C     C_3   0.328818 0.642657 0.396949 0.000000
N67   N     N_3   0.326589 0.598825 0.404326 0.000000
C200  C     C_3   0.358871 0.572002 0.443219 0.000000
C201  C     C_R   0.355304 0.525396 0.457069 0.000000
N68   N     N_R   0.309717 0.505783 0.460246 0.000000
C202  C     C_R   0.325654 0.465904 0.469493 0.000000
C203  C     C_R   0.296428 0.434299 0.470549 0.000000
C204  C     C_R   0.321006 0.394730 0.482515 0.000000
C205  C     C_R   0.373359 0.389589 0.489411 0.000000
C206  C     C_R   0.402030 0.424251 0.480001 0.000000
C207  C     C_R   0.377194 0.461285 0.473029 0.000000
N69   N     N_R   0.398215 0.498055 0.465141 0.000000
H221  H     H_    0.305218 0.647038 0.420515 0.000000
H222  H     H_    0.368933 0.649300 0.401252 0.000000
H223  H     H_    0.314131 0.664835 0.363210 0.000000
H224  H     H_    0.344453 0.599130 0.377766 0.000000
H225  H     H_    0.398563 0.579724 0.435578 0.000000
H226  H     H_    0.347961 0.577884 0.470346 0.000000
H227  H     H_    0.256489 0.440841 0.460526 0.000000
H228  H     H_    0.300536 0.367996 0.484501 0.000000
H229  H     H_    0.391891 0.358724 0.500113 0.000000
H230  H     H_    0.442142 0.423575 0.475991 0.000000
C208  C     C_3   0.317313 0.634230 0.280895 0.000000
N70   N     N_3   0.320652 0.656212 0.233914 0.000000
C209  C     C_3   0.329098 0.624379 0.218795 0.000000
C210  C     C_R   0.339503 0.648015 0.172193 0.000000
N71   N     N_R   0.298544 0.669978 0.142847 0.000000
C211  C     C_R   0.322975 0.697686 0.108835 0.000000
C212  C     C_R   0.302120 0.730547 0.071736 0.000000
C213  C     C_R   0.333171 0.762664 0.047791 0.000000
C214  C     C_R   0.384200 0.759559 0.058216 0.000000
C215  C     C_R   0.405287 0.723260 0.091625 0.000000
C216  C     C_R   0.374071 0.693177 0.117204 0.000000
N72   N     N_R   0.388123 0.660260 0.155742 0.000000
H231  H     H_    0.306548 0.656119 0.294242 0.000000
H232  H     H_    0.286628 0.612355 0.289074 0.000000
H233  H     H_    0.354513 0.618114 0.296650 0.000000
H234  H     H_    0.353744 0.673042 0.226840 0.000000
H235  H     H_    0.360825 0.601493 0.237945 0.000000
H236  H     H_    0.293758 0.607206 0.221683 0.000000
H237  H     H_    0.262368 0.734669 0.063832 0.000000
H238  H     H_    0.317903 0.791329 0.020834 0.000000
H239  H     H_    0.408431 0.783696 0.037460 0.000000
H240  H     H_    0.444876 0.720511 0.097827 0.000000
C217  C     C_3   0.315257 0.354153 0.877892 0.000000
N73   N     N_3   0.351425 0.382100 0.849346 0.000000
C218  C     C_3   0.345424 0.385380 0.806394 0.000000
C219  C     C_R   0.337288 0.343008 0.810125 0.000000
N74   N     N_R   0.378374 0.313931 0.817976 0.000000
C220  C     C_R   0.354099 0.278753 0.823777 0.000000
C221  C     C_R   0.374862 0.240680 0.828016 0.000000
C222  C     C_R   0.340792 0.210383 0.830692 0.000000
C223  C     C_R   0.289060 0.216224 0.834385 0.000000
C224  C     C_R   0.269468 0.254109 0.831729 0.000000
C225  C     C_R   0.302209 0.285844 0.822621 0.000000
N75   N     N_R   0.289196 0.326510 0.813083 0.000000
H241  H     H_    0.316668 0.357212 0.908139 0.000000
H242  H     H_    0.276951 0.363029 0.861121 0.000000
H243  H     H_    0.325366 0.320239 0.887625 0.000000
H244  H     H_    0.387374 0.370788 0.862725 0.000000
H245  H     H_    0.313116 0.407781 0.788233 0.000000
H246  H     H_    0.380381 0.397366 0.788952 0.000000
H247  H     H_    0.415540 0.235121 0.827218 0.000000
H248  H     H_    0.354384 0.180631 0.831967 0.000000
H249  H     H_    0.263801 0.191631 0.837776 0.000000
H250  H     H_    0.229482 0.258957 0.834855 0.000000
C226  C     C_3   0.424580 0.295647 0.027432 0.000000
N76   N     N_3   0.381702 0.285004 0.055176 0.000000
C227  C     C_3   0.400512 0.283062 0.095660 0.000000
C228  C     C_R   0.360432 0.269849 0.127578 0.000000
N77   N     N_R   0.345360 0.228164 0.151025 0.000000
C229  C     C_R   0.321272 0.231076 0.183630 0.000000
C230  C     C_R   0.303741 0.199061 0.220670 0.000000
C231  C     C_R   0.268967 0.210375 0.243491 0.000000
C232  C     C_R   0.253817 0.253316 0.229186 0.000000
C233  C     C_R   0.278115 0.285195 0.195899 0.000000
C234  C     C_R   0.313525 0.272747 0.174930 0.000000
N78   N     N_R   0.339990 0.298334 0.140974 0.000000
H251  H     H_    0.443140 0.266082 0.028865 0.000000
H252  H     H_    0.410041 0.318073 0.994143 0.000000
H253  H     H_    0.453310 0.312025 0.037609 0.000000
H254  H     H_    0.371346 0.254399 0.061385 0.000000
H255  H     H_    0.435989 0.263151 0.107502 0.000000
H256  H     H_    0.412096 0.314502 0.091084 0.000000
H257  H     H_    0.318419 0.166532 0.232833 0.000000
H258  H     H_    0.252555 0.185607 0.271786 0.000000
H259  H     H_    0.223541 0.262139 0.244310 0.000000
H260  H     H_    0.267498 0.318632 0.185436 0.000000
C235  C     C_3   0.443286 0.926341 0.884908 0.000000
N79   N     N_3   0.391985 0.944863 0.878542 0.000000
C236  C     C_3   0.375384 0.955462 0.834495 0.000000
C237  C     C_R   0.370599 0.001294 0.807925 0.000000
N80   N     N_R   0.324534 0.026811 0.795718 0.000000
C238  C     C_R   0.343870 0.065337 0.780344 0.000000
C239  C     C_R   0.318618 0.100400 0.777638 0.000000
C240  C     C_R   0.346741 0.133756 0.773690 0.000000
C241  C     C_R   0.397893 0.134363 0.764741 0.000000
C242  C     C_R   0.423152 0.098661 0.767309 0.000000
C243  C     C_R   0.395922 0.063359 0.778729 0.000000
N81   N     N_R   0.415024 0.022902 0.796042 0.000000
H261  H     H_    0.467743 0.953138 0.869586 0.000000
H262  H     H_    0.455879 0.907740 0.919242 0.000000
H263  H     H_    0.446848 0.903917 0.871322 0.000000
H264  H     H_    0.397116 0.974177 0.878168 0.000000
H265  H     H_    0.405170 0.945899 0.819144 0.000000
H266  H     H_    0.339882 0.942166 0.833041 0.000000
H267  H     H_    0.278407 0.100180 0.780206 0.000000
H268  H     H_    0.328110 0.159226 0.777141 0.000000
H269  H     H_    0.419777 0.161744 0.757705 0.000000
H270  H     H_    0.463692 0.097925 0.766660 0.000000
C244  C     C_3   0.450676 0.132084 0.847279 0.000000
N82   N     N_3   0.470855 0.095099 0.843433 0.000000
C245  C     C_3   0.445317 0.056916 0.872577 0.000000
C246  C     C_R   0.484548 0.021692 0.891866 0.000000
N83   N     N_R   0.516258 0.012815 0.865287 0.000000
C247  C     C_R   0.560987 0.000584 0.890083 0.000000
C248  C     C_R   0.608079 0.989366 0.880091 0.000000
C249  C     C_R   0.647525 0.975092 0.912042 0.000000
C250  C     C_R   0.639626 0.971840 0.953038 0.000000
C251  C     C_R   0.592274 0.983387 0.962550 0.000000
C252  C     C_R   0.554076 0.998163 0.930215 0.000000
N84   N     N_R   0.505983 0.011024 0.932770 0.000000
H271  H     H_    0.454218 0.161703 0.816462 0.000000
H272  H     H_    0.410187 0.128200 0.855254 0.000000
H273  H     H_    0.474154 0.135711 0.871984 0.000000
H274  H     H_    0.509406 0.090854 0.853661 0.000000
H275  H     H_    0.428729 0.060906 0.898924 0.000000
H276  H     H_    0.414338 0.049321 0.855886 0.000000
H277  H     H_    0.613837 0.990452 0.848778 0.000000
H278  H     H_    0.684687 0.965737 0.905236 0.000000
H279  H     H_    0.670741 0.960269 0.977660 0.000000
H280  H     H_    0.585765 0.981327 0.994157 0.000000
C253  C     C_3   0.513241 0.327153 0.513792 0.000000
N85   N     N_3   0.482574 0.354279 0.526770 0.000000
C254  C     C_3   0.515667 0.383716 0.531917 0.000000
C255  C     C_R   0.489654 0.409181 0.550982 0.000000
N86   N     N_R   0.501507 0.451513 0.531552 0.000000
C256  C     C_R   0.529580 0.453530 0.563804 0.000000
C257  C     C_R   0.569062 0.479608 0.559238 0.000000
C258  C     C_R   0.600384 0.470706 0.595680 0.000000
C259  C     C_R   0.591225 0.436799 0.635898 0.000000
C260  C     C_R   0.552905 0.409587 0.639503 0.000000
C261  C     C_R   0.523908 0.417873 0.602423 0.000000
N87   N     N_R   0.494926 0.390495 0.595681 0.000000
H281  H     H_    0.496440 0.295786 0.525687 0.000000
H282  H     H_    0.513669 0.342937 0.477806 0.000000
H283  H     H_    0.553004 0.321627 0.527610 0.000000
H284  H     H_    0.465338 0.336038 0.555722 0.000000
H285  H     H_    0.549212 0.366201 0.553895 0.000000
H286  H     H_    0.530177 0.405625 0.500004 0.000000
H287  H     H_    0.576852 0.505663 0.528075 0.000000
H288  H     H_    0.631674 0.490813 0.592925 0.000000
H289  H     H_    0.615715 0.430431 0.664165 0.000000
H290  H     H_    0.549247 0.381144 0.669827 0.000000
C262  C     C_3   0.356677 0.400127 0.700117 0.000000
N88   N     N_3   0.392929 0.364893 0.727016 0.000000
C263  C     C_3   0.440362 0.372471 0.705201 0.000000
C264  C     C_R   0.475620 0.334370 0.726739 0.000000
N89   N     N_R   0.486285 0.311143 0.771199 0.000000
C265  C     C_R   0.513485 0.276229 0.774188 0.000000
C266  C     C_R   0.523140 0.237443 0.810704 0.000000
C267  C     C_R   0.545282 0.203335 0.806844 0.000000
C268  C     C_R   0.552116 0.206564 0.766335 0.000000
C269  C     C_R   0.538274 0.244233 0.729584 0.000000
C270  C     C_R   0.520252 0.279501 0.733814 0.000000
N90   N     N_R   0.495686 0.315965 0.702884 0.000000
H291  H     H_    0.340090 0.413222 0.720512 0.000000
H292  H     H_    0.376166 0.426591 0.674326 0.000000
H293  H     H_    0.326121 0.388442 0.686194 0.000000
H294  H     H_    0.378966 0.336857 0.728631 0.000000
H295  H     H_    0.433607 0.379818 0.670718 0.000000
H296  H     H_    0.458873 0.399046 0.706190 0.000000
H297  H     H_    0.509656 0.231294 0.841328 0.000000
H298  H     H_    0.552601 0.172836 0.835319 0.000000
H299  H     H_    0.563855 0.178452 0.763334 0.000000
H300  H     H_    0.538365 0.243262 0.699544 0.000000
C271  C     C_3   0.382201 0.466982 0.582987 0.000000
N91   N     N_3   0.344256 0.434970 0.599472 0.000000
C272  C     C_3   0.351632 0.405198 0.581581 0.000000
C273  C     C_R   0.349208 0.361108 0.617137 0.000000
N92   N     N_R   0.303476 0.344303 0.635052 0.000000
C274  C     C_R   0.320200 0.307784 0.668983 0.000000
C275  C     C_R   0.290776 0.276643 0.695043 0.000000
C276  C     C_R   0.314645 0.243161 0.730864 0.000000
C277  C     C_R   0.367324 0.240667 0.737609 0.000000
C278  C     C_R   0.396546 0.269388 0.706897 0.000000
C279  C     C_R   0.371846 0.302871 0.672249 0.000000
N93   N     N_R   0.392530 0.334814 0.638734 0.000000
H301  H     H_    0.375339 0.491077 0.594872 0.000000
H302  H     H_    0.420843 0.451292 0.595365 0.000000
H303  H     H_    0.379634 0.483498 0.546985 0.000000
H304  H     H_    0.307980 0.450156 0.588659 0.000000
H305  H     H_    0.320519 0.411373 0.556909 0.000000
H306  H     H_    0.389257 0.408470 0.567271 0.000000
H307  H     H_    0.250509 0.278386 0.687404 0.000000
H308  H     H_    0.291464 0.219078 0.753162 0.000000
H309  H     H_    0.386790 0.214288 0.764977 0.000000
H310  H     H_    0.436677 0.262828 0.708819 0.000000
C280  C     C_3   0.162805 0.347186 0.495262 0.000000
N94   N     N_3   0.192554 0.382383 0.492290 0.000000
C281  C     C_3   0.168516 0.402241 0.516234 0.000000
C282  C     C_R   0.204752 0.427209 0.528398 0.000000
N95   N     N_R   0.210808 0.412819 0.572728 0.000000
C283  C     C_R   0.199188 0.448774 0.576360 0.000000
C284  C     C_R   0.197502 0.454125 0.612976 0.000000
C285  C     C_R   0.170420 0.490431 0.609654 0.000000
C286  C     C_R   0.148597 0.521082 0.569610 0.000000
C287  C     C_R   0.158344 0.517898 0.532153 0.000000
C288  C     C_R   0.186540 0.482126 0.536784 0.000000
N96   N     N_R   0.197686 0.471651 0.505345 0.000000
H311  H     H_    0.184978 0.316520 0.515326 0.000000
H312  H     H_    0.125799 0.346603 0.510144 0.000000
H313  H     H_    0.155517 0.350686 0.462150 0.000000
H314  H     H_    0.226589 0.367882 0.509502 0.000000
H315  H     H_    0.135743 0.424085 0.496337 0.000000
H316  H     H_    0.154633 0.377395 0.547128 0.000000
H317  H     H_    0.214593 0.429938 0.643553 0.000000
H318  H     H_    0.165056 0.494433 0.638456 0.000000
H319  H     H_    0.126179 0.548654 0.567218 0.000000
H320  H     H_    0.142997 0.541958 0.500571 0.000000
C289  C     C_3   0.145175 0.223686 0.752207 0.000000
N97   N     N_3   0.159963 0.266813 0.723506 0.000000
C290  C     C_3   0.194854 0.279103 0.748680 0.000000
C291  C     C_R   0.202945 0.326041 0.725447 0.000000
N98   N     N_R   0.188380 0.347355 0.681303 0.000000
C292  C     C_R   0.149491 0.374346 0.680439 0.000000
C293  C     C_R   0.113639 0.397900 0.647109 0.000000
C294  C     C_R   0.077327 0.423789 0.653853 0.000000
C295  C     C_R   0.077490 0.425700 0.693152 0.000000
C296  C     C_R   0.113283 0.401023 0.726634 0.000000
C297  C     C_R   0.148308 0.375138 0.719416 0.000000
N99   N     N_R   0.184232 0.346897 0.747867 0.000000
H321  H     H_    0.126812 0.209901 0.732614 0.000000
H322  H     H_    0.179146 0.202865 0.771223 0.000000
H323  H     H_    0.117112 0.225036 0.774829 0.000000
H324  H     H_    0.126447 0.286417 0.716683 0.000000
H325  H     H_    0.176808 0.272656 0.779095 0.000000
H326  H     H_    0.230428 0.259465 0.757873 0.000000
H327  H     H_    0.114222 0.397107 0.616304 0.000000
H328  H     H_    0.048976 0.443101 0.628098 0.000000
H329  H     H_    0.048986 0.446178 0.697810 0.000000
H330  H     H_    0.112426 0.401077 0.757762 0.000000
C298  C     C_3   0.023693 0.518942 0.383131 0.000000
N100  N     N_3   0.072506 0.517105 0.364933 0.000000
C299  C     C_3   0.113181 0.511597 0.396921 0.000000
C300  C     C_R   0.163967 0.510756 0.378935 0.000000
N101  N     N_R   0.171064 0.504897 0.342289 0.000000
C301  C     C_R   0.220020 0.512681 0.335506 0.000000
C302  C     C_R   0.245717 0.514415 0.300881 0.000000
C303  C     C_R   0.294176 0.526445 0.296902 0.000000
C304  C     C_R   0.316798 0.534866 0.327828 0.000000
C305  C     C_R   0.290742 0.532953 0.362525 0.000000
C306  C     C_R   0.241759 0.521384 0.366062 0.000000
N102  N     N_R   0.208100 0.519518 0.395441 0.000000
H331  H     H_    0.992253 0.521340 0.359799 0.000000
H332  H     H_    0.020274 0.489364 0.414305 0.000000
H333  H     H_    0.020472 0.547613 0.388749 0.000000
H334  H     H_    0.075648 0.546778 0.337655 0.000000
H335  H     H_    0.110323 0.538965 0.404546 0.000000
H336  H     H_    0.109811 0.481351 0.427280 0.000000
H337  H     H_    0.229343 0.509982 0.274859 0.000000
H338  H     H_    0.312871 0.531765 0.268061 0.000000
H339  H     H_    0.352389 0.548617 0.320799 0.000000
H340  H     H_    0.307097 0.543657 0.383383 0.000000
C307  C     C_3   0.329509 0.428463 0.379133 0.000000
N103  N     N_3   0.300267 0.392561 0.383577 0.000000
C308  C     C_3   0.248951 0.408217 0.365381 0.000000
C309  C     C_R   0.245534 0.421317 0.317936 0.000000
N104  N     N_R   0.267449 0.392918 0.304570 0.000000
C310  C     C_R   0.228445 0.389259 0.280704 0.000000
C311  C     C_R   0.223523 0.357220 0.268936 0.000000
C312  C     C_R   0.177978 0.356419 0.248462 0.000000
C313  C     C_R   0.137937 0.386069 0.242028 0.000000
C314  C     C_R   0.143521 0.417486 0.254761 0.000000
C315  C     C_R   0.189141 0.418492 0.274292 0.000000
N105  N     N_R   0.199387 0.441463 0.295483 0.000000
H341  H     H_    0.365468 0.416520 0.399551 0.000000
H342  H     H_    0.339235 0.447245 0.345113 0.000000
H343  H     H_    0.307960 0.448868 0.390024 0.000000
H344  H     H_    0.297095 0.372448 0.416717 0.000000
H345  H     H_    0.223496 0.381463 0.380920 0.000000
H346  H     H_    0.234286 0.433000 0.373707 0.000000
H347  H     H_    0.253491 0.332629 0.276336 0.000000
H348  H     H_    0.173557 0.332324 0.237727 0.000000
H349  H     H_    0.101611 0.384443 0.227627 0.000000
H350  H     H_    0.111720 0.438620 0.251246 0.000000
C316  C     C_3   0.137441 0.625032 0.304590 0.000000
N106  N     N_3   0.135150 0.604430 0.276714 0.000000
C317  C     C_3   0.183913 0.608818 0.256632 0.000000
C318  C     C_R   0.180572 0.591337 0.225131 0.000000
N107  N     N_R   0.155789 0.553292 0.235093 0.000000
C319  C     C_R   0.134171 0.562611 0.195977 0.000000
C320  C     C_R   0.103549 0.537664 0.186113 0.000000
C321  C     C_R   0.074706 0.556714 0.147229 0.000000
C322  C     C_R   0.077084 0.600285 0.119661 0.000000
C323  C     C_R   0.112725 0.623622 0.128389 0.000000
C324  C     C_R   0.143944 0.603049 0.165534 0.000000
N108  N     N_R   0.178773 0.620599 0.181133 0.000000
H351  H     H_    0.101241 0.621029 0.321545 0.000000
H352  H     H_    0.169768 0.609586 0.329037 0.000000
H353  H     H_    0.142875 0.659845 0.284835 0.000000
H354  H     H_    0.106810 0.621084 0.252063 0.000000
H355  H     H_    0.192015 0.643288 0.238777 0.000000
H356  H     H_    0.214301 0.592244 0.281614 0.000000
H357  H     H_    0.100603 0.504774 0.208842 0.000000
H358  H     H_    0.047854 0.538114 0.140030 0.000000
H359  H     H_    0.051603 0.616120 0.090901 0.000000
H360  H     H_    0.112681 0.657494 0.108353 0.000000
C325  C     C_3   0.673874 0.115941 0.345636 0.000000
N109  N     N_3   0.678634 0.069632 0.372944 0.000000
C326  C     C_3   0.723414 0.051614 0.361884 0.000000
C327  C     C_R   0.721874 0.004167 0.383403 0.000000
N110  N     N_R   0.723037 0.979604 0.428243 0.000000
C328  C     C_R   0.725922 0.939132 0.432669 0.000000
C329  C     C_R   0.730421 0.900661 0.470208 0.000000
C330  C     C_R   0.740652 0.863225 0.467062 0.000000
C331  C     C_R   0.746566 0.864627 0.426779 0.000000
C332  C     C_R   0.739534 0.903264 0.389123 0.000000
C333  C     C_R   0.727662 0.939810 0.393154 0.000000
N111  N     N_R   0.723857 0.980254 0.360821 0.000000
H361  H     H_    0.635355 0.128510 0.348437 0.000000
H362  H     H_    0.702850 0.131060 0.356636 0.000000
H363  H     H_    0.679481 0.124522 0.311107 0.000000
H364  H     H_    0.646405 0.056499 0.366656 0.000000
H365  H     H_    0.724951 0.063803 0.326271 0.000000
H366  H     H_    0.758400 0.060102 0.373733 0.000000
H367  H     H_    0.729214 0.899103 0.501573 0.000000
H368  H     H_    0.746250 0.832869 0.496395 0.000000
H369  H     H_    0.757266 0.835554 0.424799 0.000000
H370  H     H_    0.745219 0.904669 0.357727 0.000000
C334  C     C_3   0.885034 0.891206 0.516808 0.000000
N112  N     N_3   0.842165 0.916268 0.487158 0.000000
C335  C     C_3   0.854414 0.960930 0.460766 0.000000
C336  C     C_R   0.848160 0.985611 0.485263 0.000000
N113  N     N_R   0.889195 0.997499 0.502646 0.000000
C337  C     C_R   0.866715 0.002299 0.535224 0.000000
C338  C     C_R   0.889825 0.003145 0.570873 0.000000
C339  C     C_R   0.860782 0.997010 0.605743 0.000000
C340  C     C_R   0.808503 0.993352 0.603605 0.000000
C341  C     C_R   0.784703 0.995090 0.566641 0.000000
C342  C     C_R   0.815229 0.997444 0.534099 0.000000
N114  N     N_R   0.801643 0.988642 0.501616 0.000000
H371  H     H_    0.870220 0.865498 0.546792 0.000000
H372  H     H_    0.909224 0.875956 0.501423 0.000000
H373  H     H_    0.907950 0.911688 0.525872 0.000000
H374  H     H_    0.812310 0.915781 0.506292 0.000000
H375  H     H_    0.893505 0.961974 0.449936 0.000000
H376  H     H_    0.826500 0.976204 0.432737 0.000000
H377  H     H_    0.930182 0.002456 0.574961 0.000000
H378  H     H_    0.879211 0.994693 0.635175 0.000000
H379  H     H_    0.786973 0.987648 0.631682 0.000000
H380  H     H_    0.744301 0.990357 0.565348 0.000000
C343  C     C_3   0.563174 0.970623 0.429280 0.000000
N115  N     N_3   0.606196 0.951600 0.461204 0.000000
C344  C     C_3   0.590697 0.951140 0.501230 0.000000
C345  C     C_R   0.630979 0.929651 0.537192 0.000000
N116  N     N_R   0.621049 0.893331 0.575767 0.000000
C346  C     C_R   0.668761 0.877745 0.592429 0.000000
C347  C     C_R   0.682453 0.838106 0.626927 0.000000
C348  C     C_R   0.733778 0.827922 0.639521 0.000000
C349  C     C_R   0.769939 0.856973 0.617316 0.000000
C350  C     C_R   0.755487 0.896074 0.581674 0.000000
C351  C     C_R   0.704362 0.905925 0.569081 0.000000
N117  N     N_R   0.682210 0.940112 0.533095 0.000000
H381  H     H_    0.576103 0.977850 0.396510 0.000000
H382  H     H_    0.532128 0.948013 0.437843 0.000000
H383  H     H_    0.547958 0.001030 0.428287 0.000000
H384  H     H_    0.634932 0.972947 0.449947 0.000000
H385  H     H_    0.583321 0.984291 0.495400 0.000000
H386  H     H_    0.555801 0.933100 0.510778 0.000000
H387  H     H_    0.653891 0.815860 0.644147 0.000000
H388  H     H_    0.745777 0.797291 0.666928 0.000000
H389  H     H_    0.810002 0.848705 0.627504 0.000000
H390  H     H_    0.784223 0.917353 0.564633 0.000000
C352  C     C_3   0.805162 0.144863 0.379394 0.000000
N118  N     N_3   0.775900 0.137790 0.416712 0.000000
C353  C     C_3   0.777620 0.092233 0.447358 0.000000
C354  C     C_R   0.731833 0.083767 0.472891 0.000000
N119  N     N_R   0.705121 0.117309 0.475907 0.000000
C355  C     C_R   0.656142 0.107058 0.474010 0.000000
C356  C     C_R   0.612489 0.132431 0.469047 0.000000
C357  C     C_R   0.570758 0.127922 0.446363 0.000000
C358  C     C_R   0.572132 0.095709 0.433575 0.000000
C359  C     C_R   0.612685 0.064998 0.447621 0.000000
C360  C     C_R   0.654240 0.070614 0.469021 0.000000
N120  N     N_R   0.701510 0.052491 0.472712 0.000000
H391  H     H_    0.798057 0.178626 0.354130 0.000000
H392  H     H_    0.846437 0.138373 0.389261 0.000000
H393  H     H_    0.791599 0.124958 0.364774 0.000000
H394  H     H_    0.738441 0.148546 0.404332 0.000000
H395  H     H_    0.775135 0.073030 0.429730 0.000000
H396  H     H_    0.812868 0.081641 0.468316 0.000000
H397  H     H_    0.613153 0.160263 0.474499 0.000000
H398  H     H_    0.537771 0.150459 0.437242 0.000000
H399  H     H_    0.540113 0.093179 0.414631 0.000000
H400  H     H_    0.614196 0.040704 0.437045 0.000000
C361  C     C_3   0.790065 0.049517 0.133218 0.000000
N121  N     N_3   0.787029 0.080613 0.150037 0.000000
C362  C     C_3   0.780164 0.057344 0.196754 0.000000
C363  C     C_R   0.731185 0.070593 0.210387 0.000000
N122  N     N_R   0.707083 0.111348 0.188512 0.000000
C364  C     C_R   0.667731 0.108797 0.213357 0.000000
C365  C     C_R   0.633385 0.141544 0.207571 0.000000
C366  C     C_R   0.601557 0.134982 0.240965 0.000000
C367  C     C_R   0.603873 0.095652 0.278351 0.000000
C368  C     C_R   0.638747 0.062733 0.283229 0.000000
C369  C     C_R   0.670146 0.070197 0.249895 0.000000
N123  N     N_R   0.709854 0.044800 0.249583 0.000000
H401  H     H_    0.753652 0.033437 0.137687 0.000000
H402  H     H_    0.796486 0.066486 0.097854 0.000000
H403  H     H_    0.822399 0.025349 0.149927 0.000000
H404  H     H_    0.755711 0.101769 0.133871 0.000000
H405  H     H_    0.780036 0.023431 0.205532 0.000000
H406  H     H_    0.813617 0.060676 0.214951 0.000000
H407  H     H_    0.634800 0.172308 0.179413 0.000000
H408  H     H_    0.575775 0.160850 0.238621 0.000000
H409  H     H_    0.579711 0.091418 0.304635 0.000000
H410  H     H_    0.641143 0.032210 0.312443 0.000000
C370  C     C_3   0.569932 0.876875 0.421490 0.000000
N124  N     N_3   0.571359 0.899619 0.374359 0.000000
C371  C     C_3   0.624067 0.909028 0.364347 0.000000
C372  C     C_R   0.634885 0.915510 0.319601 0.000000
N125  N     N_R   0.604226 0.900155 0.296788 0.000000
C373  C     C_R   0.623898 0.919117 0.256749 0.000000
C374  C     C_R   0.601018 0.925592 0.217563 0.000000
C375  C     C_R   0.624892 0.949289 0.179454 0.000000
C376  C     C_R   0.668208 0.969978 0.180058 0.000000
C377  C     C_R   0.685436 0.969299 0.218319 0.000000
C378  C     C_R   0.663891 0.943000 0.256312 0.000000
N126  N     N_R   0.672781 0.941933 0.295267 0.000000
H411  H     H_    0.530686 0.881124 0.430563 0.000000
H412  H     H_    0.580472 0.842311 0.433771 0.000000
H413  H     H_    0.597121 0.890021 0.436684 0.000000
H414  H     H_    0.551954 0.929118 0.365755 0.000000
H415  H     H_    0.631636 0.938865 0.366378 0.000000
H416  H     H_    0.648607 0.881498 0.388301 0.000000
H417  H     H_    0.563112 0.916685 0.215040 0.000000
H418  H     H_    0.607983 0.953911 0.148686 0.000000
H419  H     H_    0.686292 0.989005 0.150069 0.000000
H420  H     H_    0.715321 0.988607 0.218568 0.000000
C379  C     C_3   0.891585 0.909059 0.395137 0.000000
N127  N     N_3   0.842368 0.932626 0.380812 0.000000
C380  C     C_3   0.848679 0.978179 0.352921 0.000000
C381  C     C_R   0.846274 0.985082 0.307878 0.000000
N128  N     N_R   0.890751 0.985016 0.287588 0.000000
C382  C     C_R   0.876039 0.968616 0.260779 0.000000
C383  C     C_R   0.905966 0.958199 0.234520 0.000000
C384  C     C_R   0.884178 0.936601 0.213976 0.000000
C385  C     C_R   0.834212 0.924297 0.221300 0.000000
C386  C     C_R   0.804841 0.934775 0.248045 0.000000
C387  C     C_R   0.826003 0.958572 0.265950 0.000000
N129  N     N_R   0.804654 0.971731 0.293092 0.000000
H421  H     H_    0.904677 0.907604 0.426367 0.000000
H422  H     H_    0.888030 0.875835 0.399807 0.000000
H423  H     H_    0.919675 0.925240 0.370890 0.000000
H424  H     H_    0.825748 0.928880 0.408939 0.000000
H425  H     H_    0.817851 0.998203 0.356902 0.000000
H426  H     H_    0.885560 0.987215 0.360494 0.000000
H427  H     H_    0.945392 0.966198 0.230008 0.000000
H428  H     H_    0.906814 0.927963 0.193230 0.000000
H429  H     H_    0.818460 0.905664 0.206670 0.000000
H430  H     H_    0.767849 0.922148 0.256654 0.000000
C388  C     C_3   0.029645 0.062174 0.604817 0.000000
N130  N     N_3   0.027671 0.084479 0.557510 0.000000
C389  C     C_3   0.983623 0.070644 0.542639 0.000000
C390  C     C_R   0.974555 0.095499 0.494484 0.000000
N131  N     N_R   0.973185 0.140388 0.470300 0.000000
C391  C     C_R   0.982257 0.144767 0.430255 0.000000
C392  C     C_R   0.987974 0.181731 0.392788 0.000000
C393  C     C_R   0.014631 0.178474 0.360666 0.000000
C394  C     C_R   0.030124 0.138662 0.364585 0.000000
C395  C     C_R   0.016484 0.101456 0.399642 0.000000
C396  C     C_R   0.989705 0.105656 0.431077 0.000000
N132  N     N_R   0.978893 0.073895 0.469879 0.000000
H431  H     H_    0.021469 0.027907 0.616680 0.000000
H432  H     H_    0.068466 0.063538 0.617352 0.000000
H433  H     H_    0.001157 0.077912 0.616837 0.000000
H434  H     H_    0.059511 0.072854 0.547747 0.000000
H435  H     H_    0.993739 0.037395 0.548988 0.000000
H436  H     H_    0.950371 0.071659 0.560913 0.000000
H437  H     H_    0.974900 0.212559 0.388856 0.000000
H438  H     H_    0.026266 0.207164 0.333740 0.000000
H439  H     H_    0.052906 0.137075 0.339996 0.000000
H440  H     H_    0.029556 0.070299 0.403439 0.000000
C397  C     C_3   0.869158 0.062775 0.384075 0.000000
N133  N     N_3   0.918683 0.080362 0.376476 0.000000
C398  C     C_3   0.945219 0.062828 0.351700 0.000000
C399  C     C_R   0.967702 0.018490 0.380713 0.000000
N134  N     N_R   0.975393 0.000074 0.426348 0.000000
C400  C     C_R   0.993474 0.960010 0.435988 0.000000
C401  C     C_R   0.001239 0.925414 0.476788 0.000000
C402  C     C_R   0.018264 0.886119 0.480538 0.000000
C403  C     C_R   0.026083 0.881632 0.443642 0.000000
C404  C     C_R   0.014947 0.915919 0.403053 0.000000
C405  C     C_R   0.997342 0.954913 0.399385 0.000000
N135  N     N_R   0.979377 0.990860 0.363138 0.000000
H441  H     H_    0.854657 0.063693 0.413124 0.000000
H442  H     H_    0.843420 0.080643 0.354823 0.000000
H443  H     H_    0.872452 0.029488 0.390338 0.000000
H444  H     H_    0.912746 0.113477 0.356462 0.000000
H445  H     H_    0.918425 0.061935 0.326766 0.000000
H446  H     H_    0.975688 0.084137 0.334466 0.000000
H447  H     H_    0.990337 0.927109 0.505354 0.000000
H448  H     H_    0.024059 0.858528 0.512248 0.000000
H449  H     H_    0.039028 0.850765 0.446492 0.000000
H450  H     H_    0.021033 0.911511 0.375541 0.000000
C406  C     C_3   0.155442 0.052817 0.465996 0.000000
N136  N     N_3   0.142975 0.014584 0.504885 0.000000
C407  C     C_3   0.096362 0.000241 0.494097 0.000000
C408  C     C_R   0.073266 0.968023 0.533663 0.000000
N137  N     N_R   0.098174 0.938378 0.573623 0.000000
C409  C     C_R   0.057774 0.927147 0.599243 0.000000
C410  C     C_R   0.058492 0.904253 0.643510 0.000000
C411  C     C_R   0.012631 0.891768 0.663200 0.000000
C412  C     C_R   0.967510 0.900894 0.637939 0.000000
C413  C     C_R   0.967386 0.926585 0.593432 0.000000
C414  C     C_R   0.012587 0.942730 0.575505 0.000000
N138  N     N_R   0.020681 0.970737 0.533994 0.000000
H451  H     H_    0.128469 0.080215 0.460589 0.000000
H452  H     H_    0.194951 0.060833 0.470204 0.000000
H453  H     H_    0.152891 0.046995 0.437133 0.000000
H454  H     H_    0.133619 0.024291 0.528242 0.000000
H455  H     H_    0.068275 0.028169 0.478941 0.000000
H456  H     H_    0.101077 0.988713 0.469747 0.000000
H457  H     H_    0.093271 0.899182 0.662317 0.000000
H458  H     H_    0.011979 0.873998 0.698292 0.000000
H459  H     H_    0.932077 0.889133 0.653177 0.000000
H460  H     H_    0.932648 0.933256 0.573834 0.000000
C415  C     C_3   0.511331 0.722791 0.744085 0.000000
N139  N     N_3   0.508569 0.766172 0.708132 0.000000
C416  C     C_3   0.478225 0.767043 0.671787 0.000000
C417  C     C_R   0.511224 0.769173 0.638078 0.000000
N140  N     N_R   0.543082 0.802406 0.615627 0.000000
C418  C     C_R   0.574179 0.783904 0.597745 0.000000
C419  C     C_R   0.611319 0.802437 0.568607 0.000000
C420  C     C_R   0.639688 0.776888 0.555284 0.000000
C421  C     C_R   0.630828 0.733657 0.571273 0.000000
C422  C     C_R   0.591354 0.716202 0.598488 0.000000
C423  C     C_R   0.562256 0.742293 0.610101 0.000000
N141  N     N_R   0.519181 0.732986 0.632592 0.000000
H461  H     H_    0.536984 0.721481 0.770777 0.000000
H462  H     H_    0.472915 0.713899 0.756583 0.000000
H463  H     H_    0.527132 0.699759 0.733283 0.000000
H464  H     H_    0.545952 0.772721 0.698578 0.000000
H465  H     H_    0.459840 0.736831 0.682146 0.000000
H466  H     H_    0.449883 0.793935 0.657361 0.000000
H467  H     H_    0.617105 0.836131 0.554612 0.000000
H468  H     H_    0.669221 0.790636 0.532505 0.000000
H469  H     H_    0.654328 0.713588 0.561869 0.000000
H470  H     H_    0.585336 0.682735 0.611571 0.000000
C424  C     C_3   0.346611 0.846316 0.600877 0.000000
N142  N     N_3   0.370382 0.884031 0.571250 0.000000
C425  C     C_3   0.421517 0.876734 0.560787 0.000000
C426  C     C_R   0.449067 0.914440 0.555049 0.000000
N143  N     N_R   0.431873 0.957590 0.529417 0.000000
C427  C     C_R   0.472517 0.977214 0.535487 0.000000
C428  C     C_R   0.487082 0.017803 0.509854 0.000000
C429  C     C_R   0.531189 0.029731 0.523629 0.000000
C430  C     C_R   0.560406 0.002018 0.560715 0.000000
C431  C     C_R   0.548556 0.959990 0.582474 0.000000
C432  C     C_R   0.506373 0.948514 0.567019 0.000000
N144  N     N_R   0.495218 0.908515 0.577494 0.000000
H471  H     H_    0.330616 0.852944 0.626496 0.000000
H472  H     H_    0.314697 0.841773 0.582222 0.000000
H473  H     H_    0.373272 0.817550 0.615550 0.000000
H474  H     H_    0.371454 0.906104 0.582980 0.000000
H475  H     H_    0.441743 0.847972 0.587302 0.000000
H476  H     H_    0.421349 0.873972 0.530253 0.000000
H477  H     H_    0.464439 0.040050 0.481022 0.000000
H478  H     H_    0.540559 0.062314 0.508463 0.000000
H479  H     H_    0.593367 0.013046 0.571308 0.000000
H480  H     H_    0.572699 0.936857 0.609571 0.000000
C433  C     C_3   0.403113 0.829284 0.698737 0.000000
N145  N     N_3   0.435320 0.857657 0.665723 0.000000
C434  C     C_3   0.467382 0.876466 0.685778 0.000000
C435  C     C_R   0.516548 0.851553 0.702352 0.000000
N146  N     N_R   0.555789 0.857723 0.674573 0.000000
C436  C     C_R   0.597095 0.855199 0.700193 0.000000
C437  C     C_R   0.643426 0.872518 0.687188 0.000000
C438  C     C_R   0.679119 0.871025 0.718150 0.000000
C439  C     C_R   0.666285 0.856390 0.760969 0.000000
C440  C     C_R   0.617119 0.844871 0.772365 0.000000
C441  C     C_R   0.583427 0.843941 0.741638 0.000000
N147  N     N_R   0.532713 0.839451 0.744834 0.000000
H481  H     H_    0.381916 0.810745 0.686068 0.000000
H482  H     H_    0.428075 0.806003 0.726062 0.000000
H483  H     H_    0.375454 0.847873 0.708233 0.000000
H484  H     H_    0.411561 0.882754 0.643410 0.000000
H485  H     H_    0.474643 0.909749 0.661518 0.000000
H486  H     H_    0.448590 0.877145 0.713472 0.000000
H487  H     H_    0.649601 0.892327 0.653604 0.000000
H488  H     H_    0.715834 0.884337 0.708248 0.000000
H489  H     H_    0.693586 0.856904 0.784734 0.000000
H490  H     H_    0.605764 0.836567 0.804635 0.000000
C442  C     C_3   0.855930 0.225353 0.385308 0.000000
N148  N     N_3   0.801461 0.229565 0.390252 0.000000
C443  C     C_3   0.787847 0.264584 0.399992 0.000000
C444  C     C_R   0.731849 0.268618 0.398201 0.000000
N149  N     N_R   0.706438 0.301377 0.361847 0.000000
C445  C     C_R   0.660854 0.285327 0.361532 0.000000
C446  C     C_R   0.625438 0.301741 0.326661 0.000000
C447  C     C_R   0.591388 0.274295 0.323276 0.000000
C448  C     C_R   0.595260 0.231129 0.353217 0.000000
C449  C     C_R   0.631920 0.215785 0.387273 0.000000
C450  C     C_R   0.660439 0.243975 0.394336 0.000000
N150  N     N_R   0.703361 0.233075 0.420820 0.000000
H491  H     H_    0.871758 0.192993 0.409202 0.000000
H492  H     H_    0.862401 0.229205 0.352315 0.000000
H493  H     H_    0.875973 0.249201 0.390437 0.000000
H494  H     H_    0.792744 0.202259 0.417717 0.000000
H495  H     H_    0.802996 0.258207 0.432298 0.000000
H496  H     H_    0.800816 0.295047 0.375032 0.000000
H497  H     H_    0.626699 0.333921 0.300439 0.000000
H498  H     H_    0.564594 0.285744 0.295334 0.000000
H499  H     H_    0.573108 0.208783 0.347369 0.000000
H500  H     H_    0.645284 0.182863 0.401238 0.000000
C451  C     C_3   0.839701 0.095455 0.578124 0.000000
N151  N     N_3   0.832412 0.095745 0.535873 0.000000
C452  C     C_3   0.863390 0.127110 0.503771 0.000000
C453  C     C_R   0.845241 0.171373 0.491254 0.000000
N152  N     N_R   0.796528 0.181003 0.500350 0.000000
C454  C     C_R   0.806644 0.209105 0.515785 0.000000
C455  C     C_R   0.776675 0.220317 0.541016 0.000000
C456  C     C_R   0.796011 0.247140 0.556598 0.000000
C457  C     C_R   0.844612 0.261991 0.546843 0.000000
C458  C     C_R   0.875750 0.247655 0.524086 0.000000
C459  C     C_R   0.856492 0.219608 0.510759 0.000000
N153  N     N_R   0.882263 0.196733 0.494505 0.000000
H501  H     H_    0.810968 0.075557 0.600350 0.000000
H502  H     H_    0.878362 0.081485 0.592885 0.000000
H503  H     H_    0.834977 0.127827 0.575799 0.000000
H504  H     H_    0.794725 0.103936 0.524453 0.000000
H505  H     H_    0.900339 0.125063 0.520050 0.000000
H506  H     H_    0.867984 0.121932 0.474897 0.000000
H507  H     H_    0.741068 0.205617 0.551484 0.000000
H508  H     H_    0.773566 0.256058 0.577215 0.000000
H509  H     H_    0.859209 0.282922 0.559155 0.000000
H510  H     H_    0.914951 0.256210 0.519274 0.000000
C460  C     C_3   0.672757 0.281212 0.520639 0.000000
N154  N     N_3   0.658782 0.262580 0.492398 0.000000
C461  C     C_3   0.615498 0.235729 0.508277 0.000000
C462  C     C_R   0.630729 0.190262 0.540036 0.000000
N155  N     N_R   0.669718 0.167473 0.531559 0.000000
C463  C     C_R   0.668268 0.128137 0.565992 0.000000
C464  C     C_R   0.697718 0.091621 0.574454 0.000000
C465  C     C_R   0.689661 0.053870 0.611070 0.000000
C466  C     C_R   0.653881 0.053356 0.639581 0.000000
C467  C     C_R   0.624111 0.090037 0.630350 0.000000
C468  C     C_R   0.630668 0.127077 0.592832 0.000000
N156  N     N_R   0.603974 0.165483 0.577384 0.000000
H511  H     H_    0.703261 0.303779 0.505818 0.000000
H512  H     H_    0.639556 0.299037 0.525094 0.000000
H513  H     H_    0.687431 0.255604 0.552387 0.000000
H514  H     H_    0.690060 0.245049 0.489529 0.000000
H515  H     H_    0.587789 0.249880 0.522401 0.000000
H516  H     H_    0.598770 0.234074 0.479712 0.000000
H517  H     H_    0.726048 0.091492 0.553386 0.000000
H518  H     H_    0.711503 0.024675 0.617787 0.000000
H519  H     H_    0.649157 0.024157 0.669211 0.000000
H520  H     H_    0.597903 0.088740 0.653150 0.000000
C469  C     C_3   0.924576 0.058274 0.119048 0.000000
N157  N     N_3   0.957115 0.075349 0.141247 0.000000
C470  C     C_3   0.931348 0.072785 0.178971 0.000000
C471  C     C_R   0.966300 0.085872 0.204707 0.000000
N158  N     N_R   0.982650 0.058252 0.247776 0.000000
C472  C     C_R   0.018578 0.080967 0.254899 0.000000
C473  C     C_R   0.049037 0.068493 0.292049 0.000000
C474  C     C_R   0.081385 0.097641 0.293826 0.000000
C475  C     C_R   0.084901 0.137380 0.257874 0.000000
C476  C     C_R   0.059024 0.147060 0.218756 0.000000
C477  C     C_R   0.023219 0.119679 0.218800 0.000000
N159  N     N_R   0.989806 0.124831 0.186047 0.000000
H521  H     H_    0.942278 0.062014 0.088937 0.000000
H522  H     H_    0.919688 0.023664 0.140485 0.000000
H523  H     H_    0.887149 0.076646 0.109733 0.000000
H524  H     H_    0.960128 0.107844 0.119847 0.000000
H525  H     H_    0.895503 0.093169 0.168380 0.000000
H526  H     H_    0.921730 0.039622 0.199794 0.000000
H527  H     H_    0.046791 0.037708 0.319796 0.000000
H528  H     H_    0.104064 0.089350 0.323525 0.000000
H529  H     H_    0.109943 0.160182 0.259954 0.000000
H530  H     H_    0.066208 0.175808 0.189526 0.000000
C478  C     C_3   0.057919 0.996188 0.175596 0.000000
N160  N     N_3   0.044788 0.007255 0.209878 0.000000
C479  C     C_3   0.081762 0.988353 0.247110 0.000000
C480  C     C_R   0.061063 0.948483 0.280345 0.000000
N161  N     N_R   0.084227 0.908042 0.293835 0.000000
C481  C     C_R   0.045895 0.882213 0.312176 0.000000
C482  C     C_R   0.046201 0.838371 0.327926 0.000000
C483  C     C_R   0.001813 0.818085 0.343650 0.000000
C484  C     C_R   0.957805 0.841881 0.342370 0.000000
C485  C     C_R   0.957866 0.886045 0.325412 0.000000
C486  C     C_R   0.002593 0.905921 0.310391 0.000000
N162  N     N_R   0.012004 0.948247 0.293643 0.000000
H531  H     H_    0.025097 0.981162 0.168311 0.000000
H532  H     H_    0.064491 0.026127 0.145713 0.000000
H533  H     H_    0.092429 0.974069 0.184596 0.000000
H534  H     H_    0.045372 0.040375 0.196493 0.000000
H535  H     H_    0.120251 0.981901 0.238201 0.000000
H536  H     H_    0.085316 0.011167 0.260687 0.000000
H537  H     H_    0.078985 0.819914 0.326927 0.000000
H538  H     H_    0.001163 0.783627 0.356121 0.000000
H539  H     H_    0.922853 0.825932 0.353972 0.000000
H540  H     H_    0.922737 0.903485 0.323099 0.000000
C487  C     C_3   0.367209 0.955296 0.637233 0.000000
N163  N     N_3   0.328968 0.935155 0.623086 0.000000
C488  C     C_3   0.304689 0.969280 0.583796 0.000000
C489  C     C_R   0.277310 0.953782 0.556332 0.000000
N164  N     N_R   0.231299 0.932598 0.563811 0.000000
C490  C     C_R   0.217711 0.939251 0.523616 0.000000
C491  C     C_R   0.177278 0.922192 0.512314 0.000000
C492  C     C_R   0.166278 0.935764 0.468828 0.000000
C493  C     C_R   0.194248 0.967281 0.438194 0.000000
C494  C     C_R   0.238220 0.979811 0.450347 0.000000
C495  C     C_R   0.250300 0.964617 0.493976 0.000000
N165  N     N_R   0.291692 0.970968 0.514130 0.000000
H541  H     H_    0.382697 0.931765 0.669517 0.000000
H542  H     H_    0.399107 0.964588 0.614847 0.000000
H543  H     H_    0.349793 0.983967 0.638517 0.000000
H544  H     H_    0.302726 0.922539 0.646986 0.000000
H545  H     H_    0.280902 0.991760 0.590012 0.000000
H546  H     H_    0.334920 0.988887 0.563446 0.000000
H547  H     H_    0.152913 0.900421 0.535890 0.000000
H548  H     H_    0.132506 0.924900 0.459330 0.000000
H549  H     H_    0.182756 0.982296 0.404247 0.000000
H550  H     H_    0.261912 0.999077 0.425311 0.000000
C496  C     C_3   0.084226 0.783210 0.725200 0.000000
N166  N     N_3   0.106513 0.824148 0.713562 0.000000
C497  C     C_3   0.161735 0.817261 0.718076 0.000000
C498  C     C_R   0.188025 0.857812 0.706460 0.000000
N167  N     N_R   0.185547 0.891031 0.664337 0.000000
C499  C     C_R   0.208636 0.921667 0.669226 0.000000
C500  C     C_R   0.208659 0.964155 0.640232 0.000000
C501  C     C_R   0.234945 0.990014 0.653579 0.000000
C502  C     C_R   0.261279 0.972995 0.692924 0.000000
C503  C     C_R   0.262203 0.929700 0.720228 0.000000
C504  C     C_R   0.230966 0.905882 0.709553 0.000000
N168  N     N_R   0.218278 0.865686 0.735397 0.000000
H551  H     H_    0.041913 0.787992 0.722581 0.000000
H552  H     H_    0.096431 0.770493 0.702785 0.000000
H553  H     H_    0.096724 0.759501 0.758968 0.000000
H554  H     H_    0.093805 0.836580 0.733864 0.000000
H555  H     H_    0.174222 0.792173 0.751236 0.000000
H556  H     H_    0.171657 0.807590 0.693662 0.000000
H557  H     H_    0.188548 0.976426 0.608808 0.000000
H558  H     H_    0.239115 0.023421 0.633839 0.000000
H559  H     H_    0.277985 0.995063 0.702353 0.000000
H560  H     H_    0.283583 0.915613 0.750311 0.000000
C505  C     C_3   0.276472 0.767726 0.726183 0.000000
N169  N     N_3   0.248835 0.760485 0.693691 0.000000
C506  C     C_3   0.252058 0.796692 0.650905 0.000000
C507  C     C_R   0.205666 0.800030 0.624277 0.000000
N170  N     N_R   0.186405 0.762436 0.627836 0.000000
C508  C     C_R   0.136070 0.773330 0.620809 0.000000
C509  C     C_R   0.097474 0.745673 0.634564 0.000000
C510  C     C_R   0.047578 0.762968 0.626115 0.000000
C511  C     C_R   0.037728 0.807241 0.605216 0.000000
C512  C     C_R   0.077543 0.834290 0.596267 0.000000
C513  C     C_R   0.126565 0.816319 0.607352 0.000000
N171  N     N_R   0.169886 0.835080 0.609695 0.000000
H561  H     H_    0.257239 0.792581 0.732251 0.000000
H562  H     H_    0.279655 0.737004 0.756549 0.000000
H563  H     H_    0.314278 0.778827 0.714969 0.000000
H564  H     H_    0.211705 0.752840 0.702514 0.000000
H565  H     H_    0.255190 0.826877 0.653411 0.000000
H566  H     H_    0.284941 0.788590 0.636734 0.000000
H567  H     H_    0.105919 0.711361 0.653056 0.000000
H568  H     H_    0.016219 0.741945 0.635501 0.000000
H569  H     H_    0.998685 0.820714 0.597118 0.000000
H570  H     H_    0.069967 0.868216 0.579108 0.000000
C514  C     C_3   0.788668 0.176496 0.006980 0.000000
N172  N     N_3   0.811532 0.159281 0.051000 0.000000
C515  C     C_3   0.828207 0.194855 0.057911 0.000000
C516  C     C_R   0.840917 0.179653 0.105090 0.000000
N173  N     N_R   0.889348 0.179236 0.123371 0.000000
C517  C     C_R   0.877939 0.168899 0.164486 0.000000
C518  C     C_R   0.908779 0.170586 0.195968 0.000000
C519  C     C_R   0.895625 0.150452 0.238618 0.000000
C520  C     C_R   0.850293 0.130774 0.248098 0.000000
C521  C     C_R   0.816448 0.135750 0.214752 0.000000
C522  C     C_R   0.829771 0.157662 0.172259 0.000000
N174  N     N_R   0.803048 0.166825 0.134824 0.000000
H571  H     H_    0.748018 0.186809 0.006397 0.000000
H572  H     H_    0.809365 0.204316 0.984168 0.000000
H573  H     H_    0.790621 0.151059 0.996417 0.000000
H574  H     H_    0.843585 0.139616 0.053303 0.000000
H575  H     H_    0.860090 0.210579 0.037916 0.000000
H576  H     H_    0.797211 0.219821 0.047170 0.000000
H577  H     H_    0.943806 0.185059 0.187723 0.000000
H578  H     H_    0.921416 0.148311 0.264517 0.000000
H579  H     H_    0.839833 0.113334 0.281390 0.000000
H580  H     H_    0.781296 0.121467 0.223705 0.000000
C523  C     C_3   0.580078 0.301390 0.066241 0.000000
N175  N     N_3   0.619505 0.270082 0.095618 0.000000
C524  C     C_3   0.666018 0.292216 0.090294 0.000000
C525  C     C_R   0.707360 0.266787 0.123809 0.000000
N176  N     N_R   0.732412 0.288371 0.142357 0.000000
C526  C     C_R   0.751886 0.256510 0.180466 0.000000
C527  C     C_R   0.780015 0.260236 0.212708 0.000000
C528  C     C_R   0.787674 0.224385 0.252731 0.000000
C529  C     C_R   0.763479 0.187596 0.260560 0.000000
C530  C     C_R   0.736167 0.184883 0.227450 0.000000
C531  C     C_R   0.736024 0.218275 0.185961 0.000000
N177  N     N_R   0.711488 0.222199 0.149233 0.000000
H581  H     H_    0.547750 0.284544 0.061185 0.000000
H582  H     H_    0.565810 0.322058 0.080589 0.000000
H583  H     H_    0.595545 0.321775 0.034097 0.000000
H584  H     H_    0.625021 0.246186 0.086346 0.000000
H585  H     H_    0.679543 0.305649 0.057066 0.000000
H586  H     H_    0.656022 0.319427 0.096244 0.000000
H587  H     H_    0.794028 0.290629 0.207523 0.000000
H588  H     H_    0.808211 0.225920 0.279264 0.000000
H589  H     H_    0.765857 0.160593 0.292690 0.000000
H590  H     H_    0.717071 0.156357 0.235294 0.000000
C532  C     C_3   0.672258 0.088156 0.056352 0.000000
N178  N     N_3   0.630636 0.081112 0.085492 0.000000
C533  C     C_3   0.638111 0.104468 0.110537 0.000000
C534  C     C_R   0.639675 0.150942 0.080310 0.000000
N179  N     N_R   0.605400 0.172584 0.044544 0.000000
C535  C     C_R   0.625977 0.211136 0.023956 0.000000
C536  C     C_R   0.603393 0.248304 0.991045 0.000000
C537  C     C_R   0.630740 0.284889 0.974736 0.000000
C538  C     C_R   0.678128 0.284500 0.993743 0.000000
C539  C     C_R   0.696622 0.248502 0.031200 0.000000
C540  C     C_R   0.670057 0.212028 0.045544 0.000000
N180  N     N_R   0.678359 0.175420 0.083179 0.000000
H591  H     H_    0.678783 0.059323 0.051368 0.000000
H592  H     H_    0.661972 0.116242 0.024250 0.000000
H593  H     H_    0.708009 0.093816 0.070202 0.000000
H594  H     H_    0.632161 0.048443 0.107453 0.000000
H595  H     H_    0.607192 0.099338 0.133152 0.000000
H596  H     H_    0.673941 0.092018 0.130613 0.000000
H597  H     H_    0.564902 0.249680 0.978962 0.000000
H598  H     H_    0.614364 0.314338 0.947959 0.000000
H599  H     H_    0.698287 0.313757 0.981800 0.000000
H600  H     H_    0.728661 0.250429 0.050153 0.000000
C541  C     C_3   0.149373 0.159591 0.469854 0.000000
N181  N     N_3   0.125206 0.186903 0.486341 0.000000
C542  C     C_3   0.087335 0.163048 0.515818 0.000000
C543  C     C_R   0.062911 0.187107 0.536371 0.000000
N182  N     N_R   0.085482 0.191345 0.571224 0.000000
C544  C     C_R   0.043889 0.197419 0.590242 0.000000
C545  C     C_R   0.043503 0.196849 0.630198 0.000000
C546  C     C_R   0.997238 0.193064 0.649511 0.000000
C547  C     C_R   0.953473 0.186472 0.630356 0.000000
C548  C     C_R   0.955091 0.185737 0.590756 0.000000
C549  C     C_R   0.999792 0.194972 0.569346 0.000000
N183  N     N_R   0.010254 0.191548 0.533052 0.000000
H601  H     H_    0.127047 0.161713 0.441206 0.000000
H602  H     H_    0.187812 0.170366 0.460124 0.000000
H603  H     H_    0.151269 0.125655 0.494355 0.000000
H604  H     H_    0.151093 0.196234 0.502677 0.000000
H605  H     H_    0.057568 0.155452 0.497836 0.000000
H606  H     H_    0.103134 0.132652 0.541431 0.000000
H607  H     H_    0.078790 0.195712 0.647664 0.000000
H608  H     H_    0.995964 0.191793 0.681288 0.000000
H609  H     H_    0.918421 0.179880 0.647447 0.000000
H610  H     H_    0.923170 0.175000 0.578890 0.000000
C550  C     C_3   0.856912 0.350950 0.438858 0.000000
N184  N     N_3   0.906310 0.335555 0.431615 0.000000
C551  C     C_3   0.897771 0.307058 0.412523 0.000000
C552  C     C_R   0.946583 0.294545 0.399270 0.000000
N185  N     N_R   0.972524 0.323537 0.364418 0.000000
C553  C     C_R   0.020426 0.306681 0.374891 0.000000
C554  C     C_R   0.063572 0.324837 0.353636 0.000000
C555  C     C_R   0.107796 0.298926 0.364225 0.000000
C556  C     C_R   0.106118 0.255689 0.392686 0.000000
C557  C     C_R   0.062177 0.239151 0.414190 0.000000
C558  C     C_R   0.021339 0.266285 0.408518 0.000000
N186  N     N_R   0.974932 0.256453 0.425855 0.000000
H611  H     H_    0.840604 0.377823 0.407904 0.000000
H612  H     H_    0.830100 0.324742 0.450764 0.000000
H613  H     H_    0.862030 0.362705 0.463405 0.000000
H614  H     H_    0.926909 0.318465 0.461390 0.000000
H615  H     H_    0.882137 0.277808 0.436786 0.000000
H616  H     H_    0.870818 0.323374 0.384329 0.000000
H617  H     H_    0.062418 0.356619 0.326470 0.000000
H618  H     H_    0.142004 0.311272 0.347059 0.000000
H619  H     H_    0.139134 0.234730 0.397110 0.000000
H620  H     H_    0.057681 0.205522 0.431518 0.000000
C559  C     C_3   0.069650 0.359524 0.992416 0.000000
N187  N     N_3   0.064966 0.397931 0.998286 0.000000
C560  C     C_3   0.074624 0.386251 0.044144 0.000000
C561  C     C_R   0.057802 0.423207 0.051584 0.000000
N188  N     N_R   0.082603 0.461844 0.035079 0.000000
C562  C     C_R   0.054277 0.484378 0.050225 0.000000
C563  C     C_R   0.061965 0.524613 0.045542 0.000000
C564  C     C_R   0.025413 0.543651 0.060048 0.000000
C565  C     C_R   0.985057 0.520693 0.082747 0.000000
C566  C     C_R   0.981581 0.478161 0.091871 0.000000
C567  C     C_R   0.015540 0.461040 0.074054 0.000000
N189  N     N_R   0.016401 0.421411 0.076690 0.000000
H621  H     H_    0.069196 0.368927 0.957157 0.000000
H622  H     H_    0.105767 0.341125 0.008160 0.000000
H623  H     H_    0.037885 0.338677 0.007039 0.000000
H624  H     H_    0.027171 0.410440 0.989551 0.000000
H625  H     H_    0.053258 0.358185 0.064635 0.000000
H626  H     H_    0.115501 0.377387 0.054099 0.000000
H627  H     H_    0.095079 0.541216 0.031104 0.000000
H628  H     H_    0.028721 0.576425 0.054160 0.000000
H629  H     H_    0.956694 0.536144 0.093739 0.000000
H630  H     H_    0.950914 0.459802 0.109592 0.000000
C568  C     C_3   0.256409 0.069789 0.144032 0.000000
N190  N     N_3   0.227953 0.108888 0.113970 0.000000
C569  C     C_3   0.261405 0.133224 0.079832 0.000000
C570  C     C_R   0.249562 0.178668 0.066895 0.000000
N191  N     N_R   0.203986 0.199726 0.043414 0.000000
C571  C     C_R   0.192125 0.225789 0.061013 0.000000
C572  C     C_R   0.147358 0.250851 0.053292 0.000000
C573  C     C_R   0.136006 0.266923 0.081908 0.000000
C574  C     C_R   0.170689 0.260046 0.115583 0.000000
C575  C     C_R   0.217298 0.238048 0.120230 0.000000
C576  C     C_R   0.228272 0.221094 0.092377 0.000000
N192  N     N_R   0.267990 0.193597 0.094933 0.000000
H631  H     H_    0.273582 0.054438 0.125594 0.000000
H632  H     H_    0.287727 0.076557 0.161247 0.000000
H633  H     H_    0.230409 0.048479 0.168233 0.000000
H634  H     H_    0.221193 0.126202 0.131004 0.000000
H635  H     H_    0.300468 0.126249 0.094011 0.000000
H636  H     H_    0.257673 0.125028 0.052752 0.000000
H637  H     H_    0.121114 0.257408 0.026158 0.000000
H638  H     H_    0.099776 0.284330 0.078499 0.000000
H639  H     H_    0.161482 0.272163 0.138340 0.000000
H640  H     H_    0.241591 0.231883 0.147418 0.000000
C577  C     C_3   0.288699 0.199219 0.959730 0.000000
N193  N     N_3   0.235897 0.188770 0.960500 0.000000
C578  C     C_3   0.232326 0.152398 0.952207 0.000000
C579  C     C_R   0.188928 0.127442 0.972581 0.000000
N194  N     N_R   0.183131 0.087362 0.975220 0.000000
C580  C     C_R   0.138966 0.076490 0.996079 0.000000
C581  C     C_R   0.116843 0.037601 0.011834 0.000000
C582  C     C_R   0.074166 0.031325 0.035983 0.000000
C583  C     C_R   0.055656 0.063010 0.045938 0.000000
C584  C     C_R   0.079938 0.100915 0.032282 0.000000
C585  C     C_R   0.121571 0.107289 0.007147 0.000000
N195  N     N_R   0.153178 0.139995 0.993486 0.000000
H641  H     H_    0.297209 0.224800 0.927145 0.000000
H642  H     H_    0.295505 0.208475 0.985534 0.000000
H643  H     H_    0.314903 0.171047 0.969794 0.000000
H644  H     H_    0.227872 0.177428 0.992468 0.000000
H645  H     H_    0.227845 0.164556 0.916607 0.000000
H646  H     H_    0.263738 0.128550 0.969536 0.000000
H647  H     H_    0.133562 0.011274 0.008140 0.000000
H648  H     H_    0.056578 0.000819 0.048775 0.000000
H649  H     H_    0.023449 0.057264 0.066210 0.000000
H650  H     H_    0.066817 0.123284 0.042991 0.000000
C586  C     C_3   0.273863 0.283757 0.979338 0.000000
N196  N     N_3   0.224145 0.274482 0.967920 0.000000
C587  C     C_3   0.219828 0.296596 0.921250 0.000000
C588  C     C_R   0.177940 0.281683 0.905093 0.000000
N197  N     N_R   0.150239 0.246256 0.930637 0.000000
C589  C     C_R   0.122324 0.242772 0.898900 0.000000
C590  C     C_R   0.090423 0.210910 0.903413 0.000000
C591  C     C_R   0.061938 0.215748 0.866985 0.000000
C592  C     C_R   0.066385 0.251417 0.826895 0.000000
C593  C     C_R   0.101783 0.281272 0.822070 0.000000
C594  C     C_R   0.130766 0.275361 0.858292 0.000000
N198  N     N_R   0.168370 0.299444 0.860505 0.000000
H651  H     H_    0.285281 0.262623 0.014044 0.000000
H652  H     H_    0.300664 0.276474 0.960537 0.000000
H653  H     H_    0.275200 0.318246 0.970395 0.000000
H654  H     H_    0.196287 0.289438 0.977957 0.000000
H655  H     H_    0.213261 0.331229 0.910305 0.000000
H656  H     H_    0.253172 0.289598 0.906559 0.000000
H657  H     H_    0.084812 0.184203 0.934680 0.000000
H658  H     H_    0.034989 0.192111 0.870044 0.000000
H659  H     H_    0.042777 0.255409 0.798976 0.000000
H660  H     H_    0.105335 0.308752 0.790878 0.000000
C595  C     C_3   0.615010 0.363025 0.434786 0.000000
N199  N     N_3   0.633046 0.352722 0.401216 0.000000
C596  C     C_3   0.658803 0.389003 0.370044 0.000000
C597  C     C_R   0.635556 0.406535 0.324501 0.000000
N200  N     N_R   0.665088 0.401718 0.294572 0.000000
C598  C     C_R   0.652357 0.438381 0.257669 0.000000
C599  C     C_R   0.663038 0.450495 0.215364 0.000000
C600  C     C_R   0.657174 0.493764 0.186057 0.000000
C601  C     C_R   0.642732 0.523259 0.200490 0.000000
C602  C     C_R   0.623598 0.508645 0.241327 0.000000
C603  C     C_R   0.621843 0.464942 0.266238 0.000000
N201  N     N_R   0.603530 0.444004 0.305852 0.000000
H661  H     H_    0.587342 0.391220 0.420596 0.000000
H662  H     H_    0.594849 0.335464 0.458182 0.000000
H663  H     H_    0.647661 0.369174 0.451863 0.000000
H664  H     H_    0.660759 0.327439 0.416203 0.000000
H665  H     H_    0.659815 0.414408 0.380110 0.000000
H666  H     H_    0.699015 0.377862 0.370119 0.000000
H667  H     H_    0.673267 0.427276 0.204802 0.000000
H668  H     H_    0.666598 0.504681 0.152601 0.000000
H669  H     H_    0.642563 0.557398 0.178790 0.000000
H670  H     H_    0.610769 0.530857 0.253051 0.000000
C604  C     C_3   0.885269 0.297514 0.256130 0.000000
N202  N     N_3   0.863344 0.336072 0.255499 0.000000
C605  C     C_3   0.850966 0.325000 0.299547 0.000000
C606  C     C_R   0.842186 0.364596 0.304018 0.000000
N203  N     N_R   0.881261 0.389336 0.304597 0.000000
C607  C     C_R   0.856814 0.420293 0.310939 0.000000
C608  C     C_R   0.877577 0.454028 0.314246 0.000000
C609  C     C_R   0.844646 0.483045 0.319349 0.000000
C610  C     C_R   0.792287 0.478000 0.320698 0.000000
C611  C     C_R   0.772215 0.443426 0.317859 0.000000
C612  C     C_R   0.805561 0.414227 0.314021 0.000000
N204  N     N_R   0.794915 0.378458 0.310600 0.000000
H671  H     H_    0.880986 0.300947 0.222795 0.000000
H672  H     H_    0.925724 0.292581 0.267920 0.000000
H673  H     H_    0.864901 0.269658 0.278407 0.000000
H674  H     H_    0.828921 0.342339 0.237729 0.000000
H675  H     H_    0.815782 0.307020 0.306870 0.000000
H676  H     H_    0.883538 0.305655 0.321998 0.000000
H677  H     H_    0.917997 0.458301 0.312647 0.000000
H678  H     H_    0.859725 0.510151 0.321753 0.000000
H679  H     H_    0.766905 0.501343 0.323942 0.000000
H680  H     H_    0.731697 0.440445 0.318165 0.000000
C613  C     C_3   0.791721 0.466677 0.191313 0.000000
N205  N     N_3   0.781543 0.421843 0.217601 0.000000
C614  C     C_3   0.763151 0.405923 0.188235 0.000000
C615  C     C_R   0.733523 0.366461 0.210467 0.000000
N206  N     N_R   0.713626 0.347732 0.186984 0.000000
C616  C     C_R   0.691743 0.313309 0.216887 0.000000
C617  C     C_R   0.662074 0.284831 0.210809 0.000000
C618  C     C_R   0.653453 0.246778 0.247052 0.000000
C619  C     C_R   0.678459 0.237134 0.286619 0.000000
C620  C     C_R   0.705156 0.267938 0.291597 0.000000
C621  C     C_R   0.703897 0.308437 0.257002 0.000000
N207  N     N_R   0.725512 0.343714 0.254460 0.000000
H681  H     H_    0.811216 0.478476 0.212164 0.000000
H682  H     H_    0.815071 0.469808 0.164025 0.000000
H683  H     H_    0.755838 0.486561 0.177388 0.000000
H684  H     H_    0.752927 0.420930 0.237923 0.000000
H685  H     H_    0.738762 0.431253 0.161153 0.000000
H686  H     H_    0.796730 0.397910 0.174348 0.000000
H687  H     H_    0.647379 0.291000 0.178878 0.000000
H688  H     H_    0.631722 0.222865 0.243632 0.000000
H689  H     H_    0.677000 0.205519 0.313785 0.000000
H690  H     H_    0.727541 0.259522 0.321205 0.000000
C622  C     C_3   0.425180 0.718759 0.333007 0.000000
N208  N     N_3   0.470017 0.726076 0.353187 0.000000
C623  C     C_3   0.463467 0.769242 0.348363 0.000000
C624  C     C_R   0.503083 0.773346 0.377080 0.000000
N209  N     N_R   0.516490 0.739598 0.418081 0.000000
C625  C     C_R   0.562044 0.751245 0.426999 0.000000
C626  C     C_R   0.595565 0.727978 0.462062 0.000000
C627  C     C_R   0.643896 0.742513 0.461515 0.000000
C628  C     C_R   0.658106 0.779112 0.425739 0.000000
C629  C     C_R   0.623427 0.802752 0.391066 0.000000
C630  C     C_R   0.574622 0.789409 0.393435 0.000000
N210  N     N_R   0.536370 0.806265 0.362325 0.000000
H691  H     H_    0.431838 0.688448 0.330702 0.000000
H692  H     H_    0.391783 0.716477 0.352668 0.000000
H693  H     H_    0.418056 0.746309 0.300261 0.000000
H694  H     H_    0.501062 0.725653 0.335126 0.000000
H695  H     H_    0.468994 0.792764 0.314336 0.000000
H696  H     H_    0.424691 0.774834 0.357055 0.000000
H697  H     H_    0.585607 0.698551 0.488491 0.000000
H698  H     H_    0.671591 0.724127 0.488166 0.000000
H699  H     H_    0.696869 0.788648 0.424575 0.000000
H700  H     H_    0.635497 0.829441 0.362390 0.000000
C631  C     C_3   0.426425 0.937807 0.206240 0.000000
N211  N     N_3   0.415401 0.903115 0.196156 0.000000
C632  C     C_3   0.433880 0.862960 0.233081 0.000000
C633  C     C_R   0.487403 0.853125 0.229000 0.000000
N212  N     N_R   0.502150 0.840180 0.199363 0.000000
C634  C     C_R   0.552577 0.829872 0.209638 0.000000
C635  C     C_R   0.586902 0.813935 0.190629 0.000000
C636  C     C_R   0.636223 0.802280 0.209243 0.000000
C637  C     C_R   0.649889 0.806132 0.246376 0.000000
C638  C     C_R   0.614498 0.822011 0.265146 0.000000
C639  C     C_R   0.566192 0.834195 0.245484 0.000000
N213  N     N_R   0.526141 0.850642 0.257708 0.000000
H701  H     H_    0.420105 0.969036 0.176751 0.000000
H702  H     H_    0.399925 0.938215 0.229650 0.000000
H703  H     H_    0.466196 0.933970 0.219747 0.000000
H704  H     H_    0.435907 0.907011 0.169292 0.000000
H705  H     H_    0.433086 0.864997 0.263411 0.000000
H706  H     H_    0.411310 0.836432 0.234875 0.000000
H707  H     H_    0.575690 0.809433 0.162923 0.000000
H708  H     H_    0.664077 0.789374 0.195212 0.000000
H709  H     H_    0.688351 0.796357 0.260894 0.000000
H710  H     H_    0.624629 0.824407 0.294351 0.000000
C640  C     C_3   0.304931 0.859749 0.343537 0.000000
N214  N     N_3   0.344692 0.888588 0.339465 0.000000
C641  C     C_3   0.385882 0.880800 0.317323 0.000000
C642  C     C_R   0.422545 0.913961 0.309917 0.000000
N215  N     N_R   0.406537 0.952793 0.308200 0.000000
C643  C     C_R   0.450209 0.971440 0.304702 0.000000
C644  C     C_R   0.457592 0.008035 0.307711 0.000000
C645  C     C_R   0.506125 0.022600 0.302169 0.000000
C646  C     C_R   0.541060 0.005405 0.284283 0.000000
C647  C     C_R   0.530372 0.969836 0.279672 0.000000
C648  C     C_R   0.488596 0.948789 0.298331 0.000000
N216  N     N_R   0.474423 0.910136 0.303995 0.000000
H711  H     H_    0.276095 0.861597 0.365286 0.000000
H712  H     H_    0.285534 0.870522 0.311560 0.000000
H713  H     H_    0.321197 0.826391 0.355998 0.000000
H714  H     H_    0.359906 0.882475 0.369737 0.000000
H715  H     H_    0.404640 0.848402 0.337465 0.000000
H716  H     H_    0.369076 0.884676 0.286104 0.000000
H717  H     H_    0.425925 0.025753 0.311809 0.000000
H718  H     H_    0.512926 0.051971 0.303680 0.000000
H719  H     H_    0.573490 0.022217 0.268576 0.000000
H720  H     H_    0.549563 0.963429 0.256655 0.000000
C649  C     C_3   0.497427 0.801651 0.492970 0.000000
N217  N     N_3   0.501488 0.758147 0.528141 0.000000
C650  C     C_3   0.462915 0.733259 0.521444 0.000000
C651  C     C_R   0.477294 0.687931 0.547094 0.000000
N218  N     N_R   0.499194 0.669406 0.524305 0.000000
C652  C     C_R   0.532522 0.639528 0.553955 0.000000
C653  C     C_R   0.573980 0.619245 0.546118 0.000000
C654  C     C_R   0.605399 0.591010 0.581373 0.000000
C655  C     C_R   0.594761 0.583862 0.623124 0.000000
C656  C     C_R   0.554526 0.606631 0.629781 0.000000
C657  C     C_R   0.524888 0.636075 0.594231 0.000000
N219  N     N_R   0.489831 0.667132 0.591333 0.000000
H721  H     H_    0.524330 0.820938 0.500851 0.000000
H722  H     H_    0.507341 0.801811 0.462046 0.000000
H723  H     H_    0.458364 0.815930 0.490122 0.000000
H724  H     H_    0.491949 0.760585 0.555360 0.000000
H725  H     H_    0.423465 0.741867 0.525477 0.000000
H726  H     H_    0.467612 0.736593 0.489100 0.000000
H727  H     H_    0.581326 0.624430 0.513508 0.000000
H728  H     H_    0.637652 0.573766 0.576485 0.000000
H729  H     H_    0.618914 0.561079 0.650662 0.000000
H730  H     H_    0.548394 0.601575 0.661892 0.000000
C658  C     C_3   0.358041 0.522725 0.720153 0.000000
N220  N     N_3   0.399426 0.536124 0.737773 0.000000
C659  C     C_3   0.421014 0.572502 0.703052 0.000000
C660  C     C_R   0.459592 0.586688 0.724180 0.000000
N221  N     N_R   0.485689 0.623782 0.701733 0.000000
C661  C     C_R   0.530154 0.613073 0.726294 0.000000
C662  C     C_R   0.573417 0.635827 0.718093 0.000000
C663  C     C_R   0.616605 0.616531 0.745508 0.000000
C664  C     C_R   0.616436 0.574855 0.779467 0.000000
C665  C     C_R   0.572706 0.552181 0.786939 0.000000
C666  C     C_R   0.529953 0.572341 0.760492 0.000000
N222  N     N_R   0.483953 0.556037 0.762743 0.000000
H731  H     H_    0.324899 0.543312 0.718909 0.000000
H732  H     H_    0.366160 0.526725 0.687277 0.000000
H733  H     H_    0.351583 0.488589 0.742443 0.000000
H734  H     H_    0.426422 0.510596 0.752244 0.000000
H735  H     H_    0.440035 0.562843 0.680572 0.000000
H736  H     H_    0.391476 0.597759 0.684161 0.000000
H737  H     H_    0.574326 0.667451 0.691037 0.000000
H738  H     H_    0.651175 0.633734 0.739829 0.000000
H739  H     H_    0.650807 0.559925 0.799934 0.000000
H740  H     H_    0.572076 0.519414 0.811986 0.000000
C667  C     C_3   0.371350 0.711504 0.714997 0.000000
N223  N     N_3   0.330719 0.683511 0.718258 0.000000
C668  C     C_3   0.345830 0.655741 0.699817 0.000000
C669  C     C_R   0.345561 0.683321 0.653129 0.000000
N224  N     N_R   0.299859 0.704920 0.631330 0.000000
C670  C     C_R   0.316438 0.739136 0.598310 0.000000
C671  C     C_R   0.285913 0.769859 0.565987 0.000000
C672  C     C_R   0.309197 0.799933 0.532136 0.000000
C673  C     C_R   0.361419 0.804042 0.534898 0.000000
C674  C     C_R   0.391130 0.774345 0.570707 0.000000
C675  C     C_R   0.368451 0.738551 0.599147 0.000000
N225  N     N_R   0.389625 0.702023 0.632697 0.000000
H741  H     H_    0.368634 0.721308 0.740924 0.000000
H742  H     H_    0.408571 0.693268 0.721464 0.000000
H743  H     H_    0.368442 0.740644 0.682888 0.000000
H744  H     H_    0.297929 0.701215 0.701411 0.000000
H745  H     H_    0.384034 0.640811 0.713178 0.000000
H746  H     H_    0.317679 0.630876 0.707263 0.000000
H747  H     H_    0.244957 0.769765 0.565180 0.000000
H748  H     H_    0.284369 0.820863 0.505110 0.000000
H749  H     H_    0.378539 0.830871 0.509368 0.000000
H750  H     H_    0.429619 0.779962 0.576455 0.000000
C676  C     C_3   0.504769 0.258360 0.455487 0.000000
N226  N     N_3   0.504190 0.227598 0.500670 0.000000
C677  C     C_3   0.482861 0.189829 0.502505 0.000000
C678  C     C_R   0.449822 0.173972 0.539325 0.000000
N227  N     N_R   0.467670 0.165134 0.580933 0.000000
C679  C     C_R   0.426447 0.148161 0.603822 0.000000
C680  C     C_R   0.420398 0.133768 0.647114 0.000000
C681  C     C_R   0.378517 0.110504 0.664785 0.000000
C682  C     C_R   0.347042 0.098651 0.640279 0.000000
C683  C     C_R   0.350515 0.117780 0.596138 0.000000
C684  C     C_R   0.388271 0.145171 0.578150 0.000000
N228  N     N_R   0.399772 0.163617 0.536201 0.000000
H751  H     H_    0.520840 0.288070 0.452945 0.000000
H752  H     H_    0.528766 0.243830 0.439341 0.000000
H753  H     H_    0.465909 0.265913 0.439946 0.000000
H754  H     H_    0.479839 0.239711 0.516013 0.000000
H755  H     H_    0.459944 0.196699 0.472330 0.000000
H756  H     H_    0.514432 0.165645 0.507934 0.000000
H757  H     H_    0.446779 0.140230 0.667018 0.000000
H758  H     H_    0.373228 0.097793 0.698611 0.000000
H759  H     H_    0.319066 0.075092 0.655540 0.000000
H760  H     H_    0.329107 0.106469 0.577676 0.000000
C685  C     C_3   0.449149 0.018165 0.660148 0.000000
N229  N     N_3   0.454303 0.045700 0.681047 0.000000
C686  C     C_3   0.506386 0.058333 0.677913 0.000000
C687  C     C_R   0.517636 0.082084 0.702449 0.000000
N230  N     N_R   0.540242 0.120874 0.679618 0.000000
C688  C     C_R   0.570261 0.121780 0.711244 0.000000
C689  C     C_R   0.611115 0.146444 0.705603 0.000000
C690  C     C_R   0.641270 0.140231 0.741629 0.000000
C691  C     C_R   0.628750 0.110330 0.782782 0.000000
C692  C     C_R   0.588335 0.084680 0.787523 0.000000
C693  C     C_R   0.561919 0.088508 0.751097 0.000000
N231  N     N_R   0.527983 0.061811 0.747787 0.000000
H761  H     H_    0.418236 0.031934 0.634154 0.000000
H762  H     H_    0.485860 0.013920 0.647513 0.000000
H763  H     H_    0.439896 0.985697 0.683081 0.000000
H764  H     H_    0.445732 0.030616 0.713619 0.000000
H765  H     H_    0.534379 0.031016 0.690602 0.000000
H766  H     H_    0.513671 0.079415 0.643469 0.000000
H767  H     H_    0.622285 0.166772 0.673755 0.000000
H768  H     H_    0.674157 0.159078 0.737731 0.000000
H769  H     H_    0.651072 0.106586 0.811220 0.000000
H770  H     H_    0.578410 0.062666 0.818896 0.000000
C694  C     C_3   0.372814 0.212821 0.662886 0.000000
N232  N     N_3   0.425995 0.221908 0.662879 0.000000
C695  C     C_3   0.439988 0.243053 0.618254 0.000000
C696  C     C_R   0.493326 0.252821 0.618250 0.000000
N233  N     N_R   0.507434 0.286723 0.624903 0.000000
C697  C     C_R   0.558490 0.284563 0.622434 0.000000
C698  C     C_R   0.592701 0.308467 0.631288 0.000000
C699  C     C_R   0.644226 0.298386 0.631513 0.000000
C700  C     C_R   0.660185 0.264772 0.623276 0.000000
C701  C     C_R   0.624890 0.240972 0.614570 0.000000
C702  C     C_R   0.573924 0.250697 0.615465 0.000000
N234  N     N_R   0.533420 0.228933 0.613218 0.000000
H771  H     H_    0.362072 0.195031 0.696085 0.000000
H772  H     H_    0.348898 0.242981 0.648160 0.000000
H773  H     H_    0.365374 0.193814 0.645949 0.000000
H774  H     H_    0.448857 0.193716 0.680362 0.000000
H775  H     H_    0.434612 0.222878 0.602101 0.000000
H776  H     H_    0.417198 0.273831 0.600596 0.000000
H777  H     H_    0.579878 0.333467 0.639136 0.000000
H778  H     H_    0.672184 0.316406 0.638660 0.000000
H779  H     H_    0.700631 0.256932 0.623884 0.000000
H780  H     H_    0.637637 0.214863 0.608338 0.000000
C703  C     C_3   0.378558 0.129921 0.329445 0.000000
N235  N     N_3   0.361836 0.088734 0.334980 0.000000
C704  C     C_3   0.396282 0.055445 0.368014 0.000000
C705  C     C_R   0.373254 0.012540 0.387966 0.000000
N236  N     N_R   0.370161 0.990542 0.432385 0.000000
C706  C     C_R   0.354624 0.953205 0.438052 0.000000
C707  C     C_R   0.341379 0.923032 0.476090 0.000000
C708  C     C_R   0.302354 0.898543 0.477013 0.000000
C709  C     C_R   0.283476 0.901592 0.438430 0.000000
C710  C     C_R   0.308229 0.925081 0.401020 0.000000
C711  C     C_R   0.341890 0.953477 0.400658 0.000000
N237  N     N_R   0.354062 0.990197 0.366774 0.000000
H781  H     H_    0.356649 0.156341 0.301554 0.000000
H782  H     H_    0.371692 0.133709 0.358991 0.000000
H783  H     H_    0.419857 0.132138 0.323015 0.000000
H784  H     H_    0.367738 0.087910 0.305733 0.000000
H785  H     H_    0.433602 0.054034 0.354542 0.000000
H786  H     H_    0.404352 0.063807 0.394720 0.000000
H787  H     H_    0.352171 0.927904 0.502235 0.000000
H788  H     H_    0.282780 0.881940 0.506705 0.000000
H789  H     H_    0.250315 0.884567 0.437907 0.000000
H790  H     H_    0.296385 0.924542 0.372573 0.000000
C712  C     C_3   0.480094 0.078720 0.563454 0.000000
N238  N     N_3   0.444762 0.096096 0.525639 0.000000
C713  C     C_3   0.402779 0.068118 0.533824 0.000000
C714  C     C_R   0.372200 0.083886 0.492752 0.000000
N239  N     N_R   0.347759 0.124151 0.473900 0.000000
C715  C     C_R   0.316638 0.123025 0.443360 0.000000
C716  C     C_R   0.272472 0.147707 0.426797 0.000000
C717  C     C_R   0.238850 0.137665 0.401837 0.000000
C718  C     C_R   0.251299 0.103689 0.393407 0.000000
C719  C     C_R   0.293803 0.076726 0.414602 0.000000
C720  C     C_R   0.324227 0.085478 0.441795 0.000000
N240  N     N_R   0.358765 0.058763 0.473485 0.000000
H791  H     H_    0.518071 0.092112 0.554630 0.000000
H792  H     H_    0.464950 0.087350 0.587507 0.000000
H793  H     H_    0.483327 0.043516 0.578140 0.000000
H794  H     H_    0.463045 0.099153 0.498117 0.000000
H795  H     H_    0.414947 0.034106 0.546163 0.000000
H796  H     H_    0.379169 0.069405 0.558805 0.000000
H797  H     H_    0.264125 0.172513 0.435868 0.000000
H798  H     H_    0.202604 0.155594 0.389471 0.000000
H799  H     H_    0.226086 0.096551 0.372601 0.000000
H800  H     H_    0.303405 0.050548 0.408806 0.000000
C721  C     C_3   0.463013 0.824837 0.913496 0.000000
N241  N     N_3   0.475621 0.779437 0.931009 0.000000
C722  C     C_3   0.448835 0.764084 0.904127 0.000000
C723  C     C_R   0.487235 0.744107 0.889377 0.000000
N242  N     N_R   0.507588 0.703653 0.917830 0.000000
C724  C     C_R   0.552150 0.702490 0.899682 0.000000
C725  C     C_R   0.592712 0.672844 0.917287 0.000000
C726  C     C_R   0.636898 0.680033 0.894516 0.000000
C727  C     C_R   0.637623 0.713775 0.852780 0.000000
C728  C     C_R   0.596164 0.743167 0.835417 0.000000
C729  C     C_R   0.555783 0.739036 0.861075 0.000000
N243  N     N_R   0.515598 0.767310 0.853819 0.000000
H801  H     H_    0.466036 0.840095 0.878070 0.000000
H802  H     H_    0.423475 0.832088 0.918587 0.000000
H803  H     H_    0.489271 0.838277 0.928907 0.000000
H804  H     H_    0.465414 0.763797 0.963151 0.000000
H805  H     H_    0.424732 0.738025 0.923312 0.000000
H806  H     H_    0.425413 0.789818 0.877162 0.000000
H807  H     H_    0.590582 0.644422 0.947434 0.000000
H808  H     H_    0.669593 0.657181 0.907959 0.000000
H809  H     H_    0.670633 0.717028 0.833679 0.000000
H810  H     H_    0.595465 0.767330 0.802396 0.000000
C730  C     C_3   0.579235 0.954052 0.694175 0.000000
N244  N     N_3   0.570004 0.944187 0.739110 0.000000
C731  C     C_3   0.515216 0.943896 0.745526 0.000000
C732  C     C_R   0.507305 0.922541 0.792162 0.000000
N245  N     N_R   0.518996 0.943691 0.816456 0.000000
C733  C     C_R   0.545549 0.910955 0.851755 0.000000
C734  C     C_R   0.561414 0.908091 0.891308 0.000000
C735  C     C_R   0.589915 0.872016 0.921404 0.000000
C736  C     C_R   0.598493 0.837073 0.913801 0.000000
C737  C     C_R   0.574683 0.836911 0.877942 0.000000
C738  C     C_R   0.547711 0.873886 0.848084 0.000000
N246  N     N_R   0.518661 0.878845 0.813489 0.000000
H811  H     H_    0.620456 0.948010 0.691625 0.000000
H812  H     H_    0.556491 0.934355 0.683686 0.000000
H813  H     H_    0.569629 0.988077 0.671371 0.000000
H814  H     H_    0.584834 0.968308 0.745016 0.000000
H815  H     H_    0.499474 0.976078 0.734962 0.000000
H816  H     H_    0.496371 0.926810 0.729741 0.000000
H817  H     H_    0.546671 0.929620 0.902211 0.000000
H818  H     H_    0.603397 0.870352 0.952003 0.000000
H819  H     H_    0.620489 0.808838 0.937423 0.000000
H820  H     H_    0.577929 0.808439 0.873837 0.000000
C739  C     C_3   0.369751 0.968025 0.737904 0.000000
N247  N     N_3   0.377192 0.925159 0.742377 0.000000
C740  C     C_3   0.376184 0.894695 0.787833 0.000000
C741  C     C_R   0.373456 0.852187 0.791590 0.000000
N248  N     N_R   0.328684 0.830721 0.797806 0.000000
C742  C     C_R   0.347395 0.791686 0.805046 0.000000
C743  C     C_R   0.321469 0.755839 0.815780 0.000000
C744  C     C_R   0.349534 0.718736 0.824225 0.000000
C745  C     C_R   0.401804 0.718109 0.819432 0.000000
C746  C     C_R   0.426910 0.754803 0.807137 0.000000
C747  C     C_R   0.399130 0.790533 0.802298 0.000000
N249  N     N_R   0.417565 0.828172 0.794431 0.000000
H821  H     H_    0.362232 0.991537 0.703274 0.000000
H822  H     H_    0.336638 0.970245 0.755884 0.000000
H823  H     H_    0.405012 0.975659 0.749891 0.000000
H824  H     H_    0.414125 0.922286 0.733900 0.000000
H825  H     H_    0.412199 0.893913 0.805377 0.000000
H826  H     H_    0.342628 0.901284 0.802030 0.000000
H827  H     H_    0.280643 0.756049 0.816288 0.000000
H828  H     H_    0.329593 0.690463 0.833595 0.000000
H829  H     H_    0.423711 0.689247 0.825177 0.000000
H830  H     H_    0.466793 0.755396 0.800424 0.000000
C748  C     C_3   0.109786 0.966253 0.707398 0.000000
N250  N     N_3   0.159960 0.967550 0.725676 0.000000
C749  C     C_3   0.162137 0.938876 0.772149 0.000000
C750  C     C_R   0.214399 0.934558 0.793131 0.000000
N251  N     N_R   0.239151 0.893862 0.814480 0.000000
C751  C     C_R   0.262406 0.894456 0.849307 0.000000
C752  C     C_R   0.301099 0.867395 0.877483 0.000000
C753  C     C_R   0.313957 0.872250 0.913805 0.000000
C754  C     C_R   0.291700 0.905480 0.919158 0.000000
C755  C     C_R   0.263194 0.937439 0.885256 0.000000
C756  C     C_R   0.250459 0.932016 0.849668 0.000000
N252  N     N_R   0.226933 0.960688 0.811697 0.000000
H831  H     H_    0.106560 0.990040 0.672372 0.000000
H832  H     H_    0.104962 0.933729 0.710494 0.000000
H833  H     H_    0.079387 0.974054 0.724677 0.000000
H834  H     H_    0.164929 0.998733 0.720554 0.000000
H835  H     H_    0.133959 0.950609 0.788018 0.000000
H836  H     H_    0.151933 0.906470 0.777774 0.000000
H837  H     H_    0.322913 0.844688 0.870701 0.000000
H838  H     H_    0.342466 0.851504 0.937592 0.000000
H839  H     H_    0.300577 0.908849 0.947999 0.000000
H840  H     H_    0.250778 0.964611 0.888387 0.000000
C757  C     C_3   0.192202 0.808659 0.923964 0.000000
N253  N     N_3   0.223115 0.768095 0.942118 0.000000
C758  C     C_3   0.259021 0.767498 0.911066 0.000000
C759  C     C_R   0.232701 0.755129 0.882348 0.000000
N254  N     N_R   0.202885 0.720604 0.900952 0.000000
C760  C     C_R   0.161316 0.734404 0.872777 0.000000
C761  C     C_R   0.114343 0.717249 0.879072 0.000000
C762  C     C_R   0.072922 0.742450 0.852719 0.000000
C763  C     C_R   0.078696 0.784700 0.822058 0.000000
C764  C     C_R   0.126576 0.801217 0.815381 0.000000
C765  C     C_R   0.167662 0.774699 0.839323 0.000000
N255  N     N_R   0.214438 0.787532 0.842678 0.000000
H841  H     H_    0.169202 0.813794 0.894479 0.000000
H842  H     H_    0.165734 0.808146 0.948546 0.000000
H843  H     H_    0.216424 0.835711 0.916681 0.000000
H844  H     H_    0.242609 0.764206 0.970366 0.000000
H845  H     H_    0.269982 0.799200 0.890336 0.000000
H846  H     H_    0.291625 0.744835 0.926753 0.000000
H847  H     H_    0.108671 0.686883 0.906370 0.000000
H848  H     H_    0.035226 0.730104 0.858047 0.000000
H849  H     H_    0.045484 0.804965 0.803590 0.000000
H850  H     H_    0.131335 0.834724 0.793750 0.000000
C766  C     C_3   0.169880 0.677496 0.797168 0.000000
N256  N     N_3   0.163281 0.647706 0.779140 0.000000
C767  C     C_3   0.193990 0.662017 0.741229 0.000000
C768  C     C_R   0.199089 0.629322 0.725120 0.000000
N257  N     N_R   0.181318 0.587925 0.747906 0.000000
C769  C     C_R   0.157454 0.583249 0.715419 0.000000
C770  C     C_R   0.129546 0.549431 0.718968 0.000000
C771  C     C_R   0.111771 0.548998 0.681262 0.000000
C772  C     C_R   0.123198 0.581381 0.641044 0.000000
C773  C     C_R   0.151599 0.614821 0.638080 0.000000
C774  C     C_R   0.166911 0.616220 0.675727 0.000000
N258  N     N_R   0.193754 0.646163 0.680412 0.000000
H851  H     H_    0.134431 0.680780 0.812275 0.000000
H852  H     H_    0.202352 0.665413 0.821937 0.000000
H853  H     H_    0.177448 0.709837 0.771121 0.000000
H854  H     H_    0.125056 0.651264 0.767953 0.000000
H855  H     H_    0.173976 0.690967 0.714469 0.000000
H856  H     H_    0.231640 0.671194 0.747833 0.000000
H857  H     H_    0.121753 0.523377 0.749918 0.000000
H858  H     H_    0.089988 0.522718 0.683187 0.000000
H859  H     H_    0.110111 0.580444 0.611668 0.000000
H860  H     H_    0.162276 0.637661 0.606823 0.000000
C775  C     C_3   0.312802 0.613764 0.623823 0.000000
N259  N     N_3   0.266615 0.638447 0.601062 0.000000
C776  C     C_3   0.277555 0.674988 0.559966 0.000000
C777  C     C_R   0.231008 0.703040 0.542747 0.000000
N260  N     N_R   0.208529 0.708988 0.504126 0.000000
C778  C     C_R   0.158982 0.716311 0.508208 0.000000
C779  C     C_R   0.118988 0.717943 0.480859 0.000000
C780  C     C_R   0.069927 0.719504 0.493770 0.000000
C781  C     C_R   0.062408 0.715957 0.534764 0.000000
C782  C     C_R   0.103680 0.712662 0.562262 0.000000
C783  C     C_R   0.152071 0.715760 0.547297 0.000000
N261  N     N_R   0.197728 0.708501 0.569939 0.000000
H861  H     H_    0.345052 0.634582 0.616319 0.000000
H862  H     H_    0.306584 0.600443 0.658778 0.000000
H863  H     H_    0.320541 0.587209 0.615714 0.000000
H864  H     H_    0.251909 0.649175 0.621921 0.000000
H865  H     H_    0.310626 0.692289 0.561977 0.000000
H866  H     H_    0.284412 0.663888 0.535721 0.000000
H867  H     H_    0.125581 0.718095 0.450217 0.000000
H868  H     H_    0.037505 0.721005 0.472953 0.000000
H869  H     H_    0.024135 0.713404 0.546261 0.000000
H870  H     H_    0.097840 0.702064 0.595836 0.000000
C784  C     C_3   0.966419 0.224271 0.256907 0.000000
N262  N     N_3   0.955598 0.251556 0.210591 0.000000
C785  C     C_3   0.998734 0.246828 0.187870 0.000000
C786  C     C_R   0.986982 0.269472 0.140516 0.000000
N263  N     N_R   0.977085 0.246554 0.117600 0.000000
C787  C     C_R   0.964312 0.279050 0.077433 0.000000
C788  C     C_R   0.942697 0.275809 0.042672 0.000000
C789  C     C_R   0.928130 0.313151 0.005013 0.000000
C790  C     C_R   0.932677 0.353114 0.003474 0.000000
C791  C     C_R   0.950933 0.355915 0.039952 0.000000
C792  C     C_R   0.966830 0.318319 0.076417 0.000000
N264  N     N_R   0.979298 0.314217 0.116120 0.000000
H871  H     H_    0.988580 0.242397 0.269545 0.000000
H872  H     H_    0.930030 0.215886 0.273655 0.000000
H873  H     H_    0.988580 0.194098 0.263560 0.000000
H874  H     H_    0.954491 0.283306 0.205077 0.000000
H875  H     H_    0.034082 0.256386 0.197159 0.000000
H876  H     H_    0.005866 0.213425 0.196945 0.000000
H877  H     H_    0.933161 0.245281 0.045898 0.000000
H878  H     H_    0.910962 0.311092 0.977295 0.000000
H879  H     H_    0.919891 0.382043 0.974325 0.000000
H880  H     H_    0.951556 0.386696 0.039872 0.000000
C793  C     C_3   0.125161 0.091806 0.169816 0.000000
N265  N     N_3   0.091147 0.112528 0.130850 0.000000
C794  C     C_3   0.101066 0.157864 0.108444 0.000000
C795  C     C_R   0.063776 0.180945 0.070654 0.000000
N266  N     N_R   0.077110 0.197143 0.027489 0.000000
C796  C     C_R   0.030732 0.206503 0.006306 0.000000
C797  C     C_R   0.018273 0.228508 0.962578 0.000000
C798  C     C_R   0.968912 0.226777 0.948396 0.000000
C799  C     C_R   0.934150 0.202572 0.978266 0.000000
C800  C     C_R   0.946492 0.185388 0.022487 0.000000
C801  C     C_R   0.993281 0.192554 0.035043 0.000000
N267  N     N_R   0.011680 0.180548 0.075849 0.000000
H881  H     H_    0.143514 0.061936 0.171754 0.000000
H882  H     H_    0.154174 0.113691 0.169557 0.000000
H883  H     H_    0.103658 0.083494 0.199242 0.000000
H884  H     H_    0.053702 0.109752 0.140450 0.000000
H885  H     H_    0.098416 0.172478 0.130669 0.000000
H886  H     H_    0.139416 0.159943 0.096344 0.000000
H887  H     H_    0.044690 0.248922 0.940432 0.000000
H888  H     H_    0.958050 0.242976 0.913925 0.000000
H889  H     H_    0.897005 0.198326 0.966954 0.000000
H890  H     H_    0.921950 0.165013 0.046899 0.000000
C802  C     C_3   0.115152 0.952049 0.356821 0.000000
N268  N     N_3   0.154478 0.972663 0.326766 0.000000
C803  C     C_3   0.203187 0.949872 0.346166 0.000000
C804  C     C_R   0.231752 0.944641 0.312488 0.000000
N269  N     N_R   0.208990 0.929961 0.285829 0.000000
C805  C     C_R   0.237247 0.948024 0.250730 0.000000
C806  C     C_R   0.226077 0.955028 0.209304 0.000000
C807  C     C_R   0.264704 0.969164 0.180723 0.000000
C808  C     C_R   0.310107 0.980937 0.191666 0.000000
C809  C     C_R   0.316591 0.980676 0.230919 0.000000
C810  C     C_R   0.279100 0.964645 0.259372 0.000000
N270  N     N_R   0.277890 0.963482 0.298178 0.000000
H891  H     H_    0.112164 0.918597 0.362363 0.000000
H892  H     H_    0.122647 0.952031 0.387987 0.000000
H893  H     H_    0.078492 0.970533 0.342885 0.000000
H894  H     H_    0.156160 0.003816 0.323079 0.000000
H895  H     H_    0.224876 0.969908 0.356793 0.000000
H896  H     H_    0.197928 0.918425 0.374178 0.000000
H897  H     H_    0.188874 0.950344 0.199084 0.000000
H898  H     H_    0.259106 0.973807 0.148526 0.000000
H899  H     H_    0.338233 0.994753 0.167792 0.000000
H900  H     H_    0.350747 0.991839 0.238724 0.000000
C811  C     C_3   0.317389 0.803093 0.282979 0.000000
N271  N     N_3   0.263152 0.815315 0.273602 0.000000
C812  C     C_3   0.255786 0.857381 0.235964 0.000000
C813  C     C_R   0.200998 0.866691 0.218214 0.000000
N272  N     N_R   0.187606 0.866337 0.180059 0.000000
C814  C     C_R   0.137246 0.876181 0.174494 0.000000
C815  C     C_R   0.106066 0.881705 0.139243 0.000000
C816  C     C_R   0.054707 0.891819 0.139477 0.000000
C817  C     C_R   0.036151 0.896322 0.174337 0.000000
C818  C     C_R   0.068824 0.892204 0.208427 0.000000
C819  C     C_R   0.120268 0.883125 0.207331 0.000000
N273  N     N_R   0.159940 0.878154 0.235766 0.000000
H901  H     H_    0.322573 0.769093 0.308370 0.000000
H902  H     H_    0.336006 0.807680 0.253540 0.000000
H903  H     H_    0.336283 0.823426 0.294542 0.000000
H904  H     H_    0.252585 0.819978 0.299739 0.000000
H905  H     H_    0.269442 0.881123 0.245120 0.000000
H906  H     H_    0.279955 0.859335 0.209811 0.000000
H907  H     H_    0.120989 0.877146 0.112836 0.000000
H908  H     H_    0.028928 0.895708 0.112770 0.000000
H909  H     H_    0.995778 0.903882 0.174604 0.000000
H910  H     H_    0.052951 0.897030 0.233786 0.000000
C820  C     C_3   0.153424 0.827181 0.469983 0.000000
N274  N     N_3   0.147968 0.807091 0.441703 0.000000
C821  C     C_3   0.182536 0.826454 0.406885 0.000000
C822  C     C_R   0.187357 0.801486 0.382050 0.000000
N275  N     N_R   0.170831 0.820927 0.338780 0.000000
C823  C     C_R   0.172598 0.787052 0.329952 0.000000
C824  C     C_R   0.153851 0.783948 0.294030 0.000000
C825  C     C_R   0.169241 0.747937 0.289807 0.000000
C826  C     C_R   0.202714 0.716616 0.320522 0.000000
C827  C     C_R   0.215744 0.718163 0.358443 0.000000
C828  C     C_R   0.196651 0.752107 0.363411 0.000000
N276  N     N_R   0.204143 0.758174 0.398363 0.000000
H911  H     H_    0.190943 0.816656 0.488532 0.000000
H912  H     H_    0.150541 0.862616 0.450076 0.000000
H913  H     H_    0.122627 0.817319 0.493425 0.000000
H914  H     H_    0.110827 0.814874 0.427465 0.000000
H915  H     H_    0.165429 0.858343 0.383420 0.000000
H916  H     H_    0.219506 0.830955 0.419454 0.000000
H917  H     H_    0.125902 0.806899 0.271088 0.000000
H918  H     H_    0.156376 0.744085 0.262242 0.000000
H919  H     H_    0.216200 0.689510 0.316001 0.000000
H920  H     H_    0.240912 0.694045 0.383116 0.000000
C829  C     C_3   0.246786 0.419432 0.900160 0.000000
N277  N     N_3   0.261792 0.459749 0.866232 0.000000
C830  C     C_3   0.309697 0.456241 0.847594 0.000000
C831  C     C_R   0.324562 0.500055 0.822580 0.000000
N278  N     N_R   0.285038 0.530634 0.810855 0.000000
C832  C     C_R   0.309059 0.564970 0.804791 0.000000
C833  C     C_R   0.287004 0.601074 0.802524 0.000000
C834  C     C_R   0.318382 0.631643 0.801061 0.000000
C835  C     C_R   0.371050 0.625017 0.801241 0.000000
C836  C     C_R   0.391903 0.586569 0.806196 0.000000
C837  C     C_R   0.360200 0.556633 0.809359 0.000000
N279  N     N_R   0.373482 0.515589 0.820216 0.000000
H921  H     H_    0.212600 0.426010 0.914556 0.000000
H922  H     H_    0.236474 0.397923 0.887123 0.000000
H923  H     H_    0.277558 0.404331 0.925122 0.000000
H924  H     H_    0.267798 0.478128 0.881663 0.000000
H925  H     H_    0.339530 0.436975 0.873156 0.000000
H926  H     H_    0.300439 0.445702 0.823195 0.000000
H927  H     H_    0.246759 0.603532 0.805316 0.000000
H928  H     H_    0.301009 0.661307 0.797624 0.000000
H929  H     H_    0.396214 0.649294 0.798479 0.000000
H930  H     H_    0.431120 0.578794 0.808739 0.000000
C838  C     C_3   0.469991 0.482654 0.685228 0.000000
N280  N     N_3   0.450934 0.461127 0.728179 0.000000
C839  C     C_3   0.493186 0.437155 0.758275 0.000000
C840  C     C_R   0.474814 0.417178 0.802570 0.000000
N281  N     N_R   0.465905 0.440463 0.825490 0.000000
C841  C     C_R   0.466486 0.408185 0.866246 0.000000
C842  C     C_R   0.454109 0.410627 0.902714 0.000000
C843  C     C_R   0.469779 0.376044 0.942427 0.000000
C844  C     C_R   0.495957 0.340340 0.943910 0.000000
C845  C     C_R   0.500880 0.336795 0.906287 0.000000
C846  C     C_R   0.480863 0.369975 0.868104 0.000000
N282  N     N_R   0.478979 0.372789 0.828191 0.000000
H931  H     H_    0.436614 0.495257 0.661460 0.000000
H932  H     H_    0.493388 0.509050 0.683215 0.000000
H933  H     H_    0.494788 0.460417 0.678379 0.000000
H934  H     H_    0.423041 0.440658 0.729087 0.000000
H935  H     H_    0.509615 0.411613 0.751176 0.000000
H936  H     H_    0.523349 0.459142 0.756416 0.000000
H937  H     H_    0.438691 0.440775 0.899238 0.000000
H938  H     H_    0.466903 0.378187 0.972298 0.000000
H939  H     H_    0.512548 0.315305 0.974521 0.000000
H940  H     H_    0.524490 0.311113 0.906746 0.000000
C847  C     C_3   0.631996 0.433623 0.884153 0.000000
N283  N     N_3   0.605113 0.457240 0.903445 0.000000
C848  C     C_3   0.554899 0.440612 0.914237 0.000000
C849  C     C_R   0.517503 0.473959 0.915090 0.000000
N284  N     N_R   0.529378 0.488616 0.945032 0.000000
C850  C     C_R   0.531831 0.530761 0.918784 0.000000
C851  C     C_R   0.564398 0.556517 0.926302 0.000000
C852  C     C_R   0.574019 0.595230 0.892360 0.000000
C853  C     C_R   0.547193 0.610223 0.853014 0.000000
C854  C     C_R   0.515603 0.583813 0.845394 0.000000
C855  C     C_R   0.510937 0.542112 0.878009 0.000000
N285  N     N_R   0.496922 0.506344 0.875121 0.000000
H941  H     H_    0.673011 0.440567 0.882466 0.000000
H942  H     H_    0.628736 0.398541 0.904561 0.000000
H943  H     H_    0.615945 0.443818 0.850559 0.000000
H944  H     H_    0.601405 0.489592 0.880560 0.000000
H945  H     H_    0.543696 0.432533 0.888433 0.000000
H946  H     H_    0.558164 0.411748 0.946610 0.000000
H947  H     H_    0.588101 0.544649 0.955835 0.000000
H948  H     H_    0.605218 0.612157 0.895840 0.000000
H949  H     H_    0.554858 0.641133 0.826560 0.000000
H950  H     H_    0.501382 0.596486 0.812675 0.000000
C856  C     C_3   0.213550 0.241894 0.330275 0.000000
N286  N     N_3   0.239623 0.253043 0.360885 0.000000
C857  C     C_3   0.294614 0.246490 0.359045 0.000000
C858  C     C_R   0.323682 0.259887 0.388152 0.000000
N287  N     N_R   0.339401 0.301417 0.371334 0.000000
C859  C     C_R   0.361777 0.301347 0.406728 0.000000
C860  C     C_R   0.387181 0.333242 0.409475 0.000000
C861  C     C_R   0.408215 0.326150 0.448881 0.000000
C862  C     C_R   0.397622 0.289724 0.486108 0.000000
C863  C     C_R   0.371820 0.258078 0.482654 0.000000
C864  C     C_R   0.358547 0.263085 0.442346 0.000000
N288  N     N_R   0.337119 0.234259 0.432758 0.000000
H951  H     H_    0.238721 0.220631 0.322340 0.000000
H952  H     H_    0.178688 0.225257 0.344368 0.000000
H953  H     H_    0.201283 0.271439 0.300672 0.000000
H954  H     H_    0.227862 0.232204 0.391337 0.000000
H955  H     H_    0.306833 0.213308 0.366403 0.000000
H956  H     H_    0.303799 0.267704 0.325131 0.000000
H957  H     H_    0.390560 0.363773 0.382653 0.000000
H958  H     H_    0.430971 0.350491 0.450004 0.000000
H959  H     H_    0.411055 0.285145 0.517755 0.000000
H960  H     H_    0.360158 0.231142 0.510588 0.000000
C865  C     C_3   0.107731 0.891317 0.014237 0.000000
N289  N     N_3   0.131350 0.929555 0.010616 0.000000
C866  C     C_3   0.186660 0.922989 0.011023 0.000000
C867  C     C_R   0.211718 0.941273 0.036724 0.000000
N290  N     N_R   0.224395 0.983786 0.018933 0.000000
C868  C     C_R   0.227604 0.990090 0.054032 0.000000
C869  C     C_R   0.234597 0.028799 0.052813 0.000000
C870  C     C_R   0.205569 0.039425 0.078994 0.000000
C871  C     C_R   0.174037 0.010177 0.107031 0.000000
C872  C     C_R   0.175917 0.968654 0.112508 0.000000
C873  C     C_R   0.208991 0.956954 0.088709 0.000000
N291  N     N_R   0.206188 0.922536 0.081015 0.000000
H961  H     H_    0.065554 0.897408 0.010738 0.000000
H962  H     H_    0.120188 0.883976 0.987907 0.000000
H963  H     H_    0.117835 0.863562 0.046671 0.000000
H964  H     H_    0.121874 0.933366 0.037751 0.000000
H965  H     H_    0.196436 0.888772 0.028859 0.000000
H966  H     H_    0.200154 0.936956 0.977438 0.000000
H967  H     H_    0.255452 0.052659 0.027572 0.000000
H968  H     H_    0.201500 0.072162 0.072853 0.000000
H969  H     H_    0.147489 0.020015 0.124417 0.000000
H970  H     H_    0.146532 0.950154 0.130537 0.000000
C874  C     C_3   0.233194 0.837616 0.003616 0.000000
N292  N     N_3   0.208387 0.811679 0.043607 0.000000
C875  C     C_3   0.239849 0.804685 0.082160 0.000000
C876  C     C_R   0.211509 0.779487 0.121130 0.000000
N293  N     N_R   0.185972 0.803177 0.137338 0.000000
C877  C     C_R   0.149930 0.775919 0.160738 0.000000
C878  C     C_R   0.112484 0.780305 0.185975 0.000000
C879  C     C_R   0.077355 0.749183 0.203318 0.000000
C880  C     C_R   0.080010 0.713501 0.196379 0.000000
C881  C     C_R   0.119886 0.707453 0.174361 0.000000
C882  C     C_R   0.155309 0.738091 0.158489 0.000000
N294  N     N_R   0.196034 0.737429 0.136087 0.000000
H971  H     H_    0.205158 0.862108 0.979504 0.000000
H972  H     H_    0.265531 0.853490 0.010183 0.000000
H973  H     H_    0.246038 0.817303 0.988944 0.000000
H974  H     H_    0.201996 0.782532 0.044347 0.000000
H975  H     H_    0.278427 0.791115 0.085237 0.000000
H976  H     H_    0.244895 0.836171 0.081281 0.000000
H977  H     H_    0.110641 0.804673 0.195772 0.000000
H978  H     H_    0.047693 0.752771 0.222703 0.000000
H979  H     H_    0.051481 0.689946 0.208956 0.000000
H980  H     H_    0.120868 0.680628 0.167688 0.000000
C883  C     C_3   0.155176 0.131263 0.856129 0.000000
N295  N     N_3   0.210522 0.126928 0.864713 0.000000
C884  C     C_3   0.235821 0.101824 0.846157 0.000000
C885  C     C_R   0.222083 0.056200 0.868618 0.000000
N296  N     N_R   0.201246 0.041496 0.908479 0.000000
C886  C     C_R   0.164851 0.016816 0.906059 0.000000
C887  C     C_R   0.120139 0.007914 0.927227 0.000000
C888  C     C_R   0.086875 0.982438 0.919501 0.000000
C889  C     C_R   0.100322 0.965063 0.892406 0.000000
C890  C     C_R   0.142619 0.978686 0.867824 0.000000
C891  C     C_R   0.170710 0.009710 0.871106 0.000000
N297  N     N_R   0.208379 0.033596 0.846349 0.000000
H981  H     H_    0.141259 0.164254 0.848847 0.000000
H982  H     H_    0.144205 0.125561 0.828115 0.000000
H983  H     H_    0.136391 0.108473 0.885549 0.000000
H984  H     H_    0.218543 0.112080 0.898165 0.000000
H985  H     H_    0.222247 0.116106 0.811831 0.000000
H986  H     H_    0.277755 0.103433 0.849466 0.000000
H987  H     H_    0.108381 0.023692 0.945645 0.000000
H988  H     H_    0.051361 0.974828 0.935871 0.000000
H989  H     H_    0.076236 0.942579 0.888620 0.000000
H990  H     H_    0.151172 0.964905 0.846849 0.000000
C892  C     C_3   0.082629 0.614683 0.878700 0.000000
N298  N     N_3   0.131141 0.607031 0.903525 0.000000
C893  C     C_3   0.120412 0.594805 0.948547 0.000000
C894  C     C_R   0.168731 0.581099 0.976408 0.000000
N299  N     N_R   0.183483 0.537984 0.000246 0.000000
C895  C     C_R   0.230509 0.539131 0.016546 0.000000
C896  C     C_R   0.268371 0.507210 0.037241 0.000000
C897  C     C_R   0.310680 0.514078 0.056393 0.000000
C898  C     C_R   0.318781 0.554806 0.048969 0.000000
C899  C     C_R   0.283429 0.587677 0.024439 0.000000
C900  C     C_R   0.240951 0.579682 0.006201 0.000000
N300  N     N_R   0.204270 0.608266 0.979145 0.000000
H991  H     H_    0.089770 0.617069 0.846286 0.000000
H992  H     H_    0.057731 0.587620 0.895397 0.000000
H993  H     H_    0.062755 0.644925 0.874594 0.000000
H994  H     H_    0.150320 0.635376 0.891143 0.000000
H995  H     H_    0.099030 0.620743 0.952040 0.000000
H996  H     H_    0.096711 0.566648 0.959988 0.000000
H997  H     H_    0.270577 0.478680 0.035102 0.000000
H998  H     H_    0.339979 0.488518 0.073083 0.000000
H999  H     H_    0.354760 0.560865 0.059656 0.000000
H1000 H     H_    0.286912 0.617810 0.024067 0.000000
C901  C     C_3   0.188142 0.549860 0.102940 0.000000
N301  N     N_3   0.189355 0.594750 0.070778 0.000000
C902  C     C_3   0.226037 0.615866 0.085622 0.000000
C903  C     C_R   0.219853 0.663077 0.057262 0.000000
N302  N     N_R   0.204176 0.679841 0.013744 0.000000
C904  C     C_R   0.165191 0.707924 0.010058 0.000000
C905  C     C_R   0.126985 0.725604 0.977916 0.000000
C906  C     C_R   0.087913 0.750977 0.982107 0.000000
C907  C     C_R   0.087134 0.757407 0.018756 0.000000
C908  C     C_R   0.124501 0.737335 0.052032 0.000000
C909  C     C_R   0.163158 0.712569 0.046747 0.000000
N303  N     N_R   0.198787 0.685648 0.076740 0.000000
H1001 H     H_    0.221354 0.531539 0.099544 0.000000
H1002 H     H_    0.189836 0.546148 0.136421 0.000000
H1003 H     H_    0.152650 0.536651 0.097199 0.000000
H1004 H     H_    0.153116 0.609869 0.066406 0.000000
H1005 H     H_    0.219075 0.609977 0.118900 0.000000
H1006 H     H_    0.264179 0.601843 0.088473 0.000000
H1007 H     H_    0.126632 0.718936 0.950938 0.000000
H1008 H     H_    0.057609 0.765520 0.956872 0.000000
H1009 H     H_    0.056197 0.776922 0.022025 0.000000
H1010 H     H_    0.121953 0.740063 0.081613 0.000000
C910  C     C_3   0.092508 0.631346 0.447717 0.000000
N304  N     N_3   0.120671 0.655554 0.408989 0.000000
C911  C     C_3   0.160829 0.627751 0.404871 0.000000
C912  C     C_R   0.205976 0.618529 0.435839 0.000000
N305  N     N_R   0.214432 0.641620 0.459004 0.000000
C913  C     C_R   0.234293 0.610529 0.496904 0.000000
C914  C     C_R   0.225399 0.607562 0.536647 0.000000
C915  C     C_R   0.243998 0.571196 0.572784 0.000000
C916  C     C_R   0.272022 0.539239 0.568544 0.000000
C917  C     C_R   0.271194 0.539343 0.528655 0.000000
C918  C     C_R   0.247137 0.574347 0.494014 0.000000
N306  N     N_R   0.227610 0.576863 0.456578 0.000000
H1011 H     H_    0.061316 0.652770 0.449464 0.000000
H1012 H     H_    0.075247 0.603833 0.445887 0.000000
H1013 H     H_    0.117873 0.619620 0.477623 0.000000
H1014 H     H_    0.136508 0.681163 0.411308 0.000000
H1015 H     H_    0.145227 0.596700 0.411183 0.000000
H1016 H     H_    0.173288 0.642194 0.371525 0.000000
H1017 H     H_    0.200129 0.630494 0.540116 0.000000
H1018 H     H_    0.234334 0.567400 0.604184 0.000000
H1019 H     H_    0.287622 0.511470 0.597243 0.000000
H1020 H     H_    0.284392 0.511214 0.526210 0.000000
C919  C     C_3   0.273556 0.477808 0.961352 0.000000
N307  N     N_3   0.279971 0.519384 0.925226 0.000000
C920  C     C_3   0.230294 0.541507 0.906830 0.000000
C921  C     C_R   0.189557 0.513819 0.904479 0.000000
N308  N     N_R   0.172492 0.518753 0.863961 0.000000
C922  C     C_R   0.122733 0.510700 0.870061 0.000000
C923  C     C_R   0.085377 0.516989 0.838811 0.000000
C924  C     C_R   0.035512 0.509932 0.851266 0.000000
C925  C     C_R   0.023841 0.498043 0.894084 0.000000
C926  C     C_R   0.061867 0.493191 0.924892 0.000000
C927  C     C_R   0.111319 0.498863 0.912254 0.000000
N309  N     N_R   0.153010 0.498872 0.935951 0.000000
H1021 H     H_    0.269618 0.452883 0.951188 0.000000
H1022 H     H_    0.306964 0.468345 0.984484 0.000000
H1023 H     H_    0.239311 0.480369 0.977249 0.000000
H1024 H     H_    0.303353 0.517736 0.902157 0.000000
H1025 H     H_    0.217472 0.557450 0.925850 0.000000
H1026 H     H_    0.234283 0.567379 0.873872 0.000000
H1027 H     H_    0.094165 0.528651 0.805344 0.000000
H1028 H     H_    0.005260 0.514695 0.827266 0.000000
H1029 H     H_    0.984545 0.493679 0.903160 0.000000
H1030 H     H_    0.052245 0.486682 0.957238 0.000000
C928  C     C_3   0.057049 0.399804 0.859546 0.000000
N310  N     N_3   0.094354 0.418420 0.826617 0.000000
C929  C     C_3   0.143109 0.417322 0.848351 0.000000
C930  C     C_R   0.182747 0.432374 0.815359 0.000000
N311  N     N_R   0.200651 0.407412 0.796557 0.000000
C931  C     C_R   0.220348 0.436951 0.760305 0.000000
C932  C     C_R   0.241195 0.430895 0.727546 0.000000
C933  C     C_R   0.258242 0.466179 0.692642 0.000000
C934  C     C_R   0.256148 0.505684 0.691986 0.000000
C935  C     C_R   0.238737 0.510383 0.726736 0.000000
C936  C     C_R   0.219209 0.475850 0.759772 0.000000
N312  N     N_R   0.197605 0.474561 0.794996 0.000000
H1031 H     H_    0.018858 0.403047 0.843272 0.000000
H1032 H     H_    0.067723 0.365157 0.880706 0.000000
H1033 H     H_    0.055214 0.416987 0.879541 0.000000
H1034 H     H_    0.082480 0.450645 0.806741 0.000000
H1035 H     H_    0.140053 0.438376 0.864027 0.000000
H1036 H     H_    0.153424 0.384008 0.873413 0.000000
H1037 H     H_    0.247235 0.399657 0.729445 0.000000
H1038 H     H_    0.275962 0.462517 0.666778 0.000000
H1039 H     H_    0.273165 0.531960 0.666233 0.000000
H1040 H     H_    0.241860 0.540164 0.728029 0.000000
C937  C     C_3   0.363183 0.589974 0.115609 0.000000
N313  N     N_3   0.407068 0.614125 0.112250 0.000000
C938  C     C_3   0.436061 0.616232 0.076663 0.000000
C939  C     C_R   0.468772 0.652689 0.064384 0.000000
N314  N     N_R   0.489695 0.663747 0.094390 0.000000
C940  C     C_R   0.528230 0.687583 0.072999 0.000000
C941  C     C_R   0.570276 0.696594 0.091132 0.000000
C942  C     C_R   0.608733 0.717565 0.064136 0.000000
C943  C     C_R   0.604719 0.728530 0.020132 0.000000
C944  C     C_R   0.563230 0.717097 0.002925 0.000000
C945  C     C_R   0.526342 0.694791 0.030819 0.000000
N315  N     N_R   0.489513 0.672039 0.024587 0.000000
H1041 H     H_    0.376025 0.556586 0.123716 0.000000
H1042 H     H_    0.338354 0.590316 0.140691 0.000000
H1043 H     H_    0.341613 0.606357 0.084367 0.000000
H1044 H     H_    0.429891 0.597344 0.140445 0.000000
H1045 H     H_    0.459395 0.585923 0.086845 0.000000
H1046 H     H_    0.411536 0.620397 0.048526 0.000000
H1047 H     H_    0.574666 0.685896 0.125716 0.000000
H1048 H     H_    0.642435 0.725003 0.077514 0.000000
H1049 H     H_    0.635673 0.744010 0.999775 0.000000
H1050 H     H_    0.562352 0.722810 0.969573 0.000000
C946  C     C_3   0.372167 0.530274 0.979056 0.000000
N316  N     N_3   0.406611 0.554341 0.991598 0.000000
C947  C     C_3   0.454922 0.548550 0.976116 0.000000
C948  C     C_R   0.496737 0.556096 0.999524 0.000000
N317  N     N_R   0.508512 0.594593 0.998870 0.000000
C949  C     C_R   0.554828 0.582795 0.021295 0.000000
C950  C     C_R   0.587815 0.607890 0.029420 0.000000
C951  C     C_R   0.635475 0.590344 0.049411 0.000000
C952  C     C_R   0.650216 0.548114 0.060307 0.000000
C953  C     C_R   0.617092 0.523027 0.051733 0.000000
C954  C     C_R   0.569325 0.540862 0.033078 0.000000
N318  N     N_R   0.533163 0.523237 0.019495 0.000000
H1051 H     H_    0.333197 0.545478 0.973352 0.000000
H1052 H     H_    0.383249 0.530294 0.948405 0.000000
H1053 H     H_    0.373078 0.496857 0.005399 0.000000
H1054 H     H_    0.411780 0.538076 0.025485 0.000000
H1055 H     H_    0.460414 0.514623 0.983948 0.000000
H1056 H     H_    0.457992 0.567529 0.941084 0.000000
H1057 H     H_    0.579275 0.641244 0.016927 0.000000
H1058 H     H_    0.662103 0.610232 0.055046 0.000000
H1059 H     H_    0.688084 0.534990 0.074816 0.000000
H1060 H     H_    0.629333 0.490808 0.059133 0.000000
C955  C     C_3   0.361737 0.769840 0.963149 0.000000
N319  N     N_3   0.384418 0.726540 0.988156 0.000000
C956  C     C_3   0.346701 0.695023 0.003961 0.000000
C957  C     C_R   0.349497 0.673177 0.976920 0.000000
N320  N     N_R   0.306217 0.667200 0.957284 0.000000
C958  C     C_R   0.326251 0.652080 0.931664 0.000000
C959  C     C_R   0.300978 0.632819 0.911162 0.000000
C960  C     C_R   0.331094 0.611948 0.894048 0.000000
C961  C     C_R   0.383547 0.616104 0.891955 0.000000
C962  C     C_R   0.407612 0.637897 0.910817 0.000000
C963  C     C_R   0.378258 0.651304 0.934161 0.000000
N321  N     N_R   0.395227 0.662656 0.963810 0.000000
H1061 H     H_    0.322150 0.773505 0.969961 0.000000
H1062 H     H_    0.383989 0.790737 0.971887 0.000000
H1063 H     H_    0.361986 0.780291 0.927911 0.000000
H1064 H     H_    0.408042 0.723903 0.013817 0.000000
H1065 H     H_    0.355809 0.673260 0.038487 0.000000
H1066 H     H_    0.307390 0.708623 0.001610 0.000000
H1067 H     H_    0.259977 0.630927 0.911269 0.000000
H1068 H     H_    0.313828 0.591900 0.882508 0.000000
H1069 H     H_    0.406728 0.599033 0.879054 0.000000
H1070 H     H_    0.448676 0.639872 0.911293 0.000000
C964  C     C_3   0.139267 0.409813 0.137123 0.000000
N322  N     N_3   0.192620 0.408728 0.150146 0.000000
C965  C     C_3   0.218119 0.439114 0.112630 0.000000
C966  C     C_R   0.229024 0.420093 0.083410 0.000000
N323  N     N_R   0.264911 0.386711 0.092378 0.000000
C967  C     C_R   0.248005 0.374235 0.062784 0.000000
C968  C     C_R   0.253625 0.334970 0.064344 0.000000
C969  C     C_R   0.230080 0.329452 0.031808 0.000000
C970  C     C_R   0.201123 0.361654 0.998039 0.000000
C971  C     C_R   0.190226 0.398959 0.999862 0.000000
C972  C     C_R   0.212824 0.403228 0.033511 0.000000
N324  N     N_R   0.200977 0.433751 0.044409 0.000000
H1071 H     H_    0.120510 0.384291 0.163967 0.000000
H1072 H     H_    0.119754 0.441316 0.129543 0.000000
H1073 H     H_    0.136094 0.402811 0.109265 0.000000
H1074 H     H_    0.208608 0.377994 0.158738 0.000000
H1075 H     H_    0.192663 0.468566 0.094810 0.000000
H1076 H     H_    0.254262 0.447371 0.122533 0.000000
H1077 H     H_    0.272885 0.307999 0.090544 0.000000
H1078 H     H_    0.232724 0.298598 0.034293 0.000000
H1079 H     H_    0.183013 0.356239 0.972731 0.000000
H1080 H     H_    0.161696 0.421862 0.977673 0.000000

loop_
_geom_bond_atom_site_label_1
_geom_bond_atom_site_label_2
_geom_bond_distance
_geom_bond_site_symmetry_2
_ccdc_geom_bond_type
Zn1   N3    2.150 .      S
Zn1   N5    2.052 .      S
Zn1   N78   2.059 .      S
Zn1   N323  2.154 .      S
Zn2   N2    2.164 .      S
Zn2   N57   2.107 .      S
Zn2   N284  2.144 1_554  S
Zn2   N318  2.037 .      S
Zn3   N6    2.061 .      S
Zn3   N36   2.076 .      S
Zn3   N104  2.119 .      S
Zn3   N287  2.090 .      S
Zn4   N8    2.102 .      S
Zn4   N23   2.084 1_546  S
Zn4   N66   2.122 1_556  S
Zn4   N84   2.084 .      S
Zn5   N75   2.129 .      S
Zn5   N99   2.077 .      S
Zn5   N198  2.163 .      S
Zn5   N311  2.075 .      S
Zn6   N71   2.119 .      S
Zn6   N108  2.194 .      S
Zn6   N294  2.131 .      S
Zn6   N303  2.014 .      S
Zn7   N9    2.156 .      S
Zn7   N194  2.145 .      S
Zn7   N290  2.060 1_546  S
Zn7   N296  2.076 .      S
Zn8   N11   2.147 .      S
Zn8   N15   2.085 .      S
Zn8   N209  2.139 .      S
Zn8   N218  2.038 .      S
Zn9   N17   2.038 .      S
Zn9   N20   2.067 .      S
Zn9   N24   1.995 .      S
Zn9   N212  1.986 .      S
Zn10  N26   2.062 1_565  S
Zn10  N215  2.046 .      S
Zn10  N237  2.040 .      S
Zn10  N270  2.091 .      S
Zn11  N29   2.002 .      S
Zn11  N32   2.037 .      S
Zn11  N35   2.111 .      S
Zn11  N201  2.125 .      S
Zn12  N38   2.038 .      S
Zn12  N41   2.161 .      S
Zn12  N45   2.158 .      S
Zn12  N182  2.141 .      S
Zn13  N47   2.158 .      S
Zn13  N51   2.132 1_655  S
Zn13  N185  2.069 .      S
Zn13  N203  2.027 .      S
Zn14  N54   2.083 .      S
Zn14  N56   2.053 .      S
Zn14  N176  2.051 .      S
Zn14  N206  1.961 .      S
Zn15  N60   2.191 1_554  S
Zn15  N62   2.247 .      S
Zn15  N65   2.063 .      S
Zn15  N179  2.114 .      S
Zn16  N12   2.099 .      S
Zn16  N30   2.042 .      S
Zn16  N69   2.072 .      S
Zn16  N86   2.081 .      S
Zn17  N18   2.118 .      S
Zn17  N33   2.117 .      S
Zn17  N72   2.176 .      S
Zn17  N314  2.066 .      S
Zn18  N59   2.164 .      S
Zn18  N74   2.145 .      S
Zn18  N89   2.073 .      S
Zn18  N282  2.133 .      S
Zn19  N27   2.113 .      S
Zn19  N63   2.101 .      S
Zn19  N77   2.130 .      S
Zn19  N192  2.169 .      S
Zn20  N81   2.137 .      S
Zn20  N83   2.173 .      S
Zn20  N231  2.209 .      S
Zn20  N245  2.219 1_545  S
Zn21  N87   2.035 .      S
Zn21  N90   2.056 .      S
Zn21  N93   2.088 .      S
Zn21  N233  2.070 .      S
Zn22  N44   2.116 .      S
Zn22  N92   2.099 .      S
Zn22  N95   2.064 .      S
Zn22  N98   2.132 .      S
Zn23  N50   2.127 .      S
Zn23  N101  2.034 .      S
Zn23  N105  2.145 .      S
Zn23  N107  2.198 .      S
Zn24  N110  2.093 .      S
Zn24  N114  2.072 .      S
Zn24  N117  2.189 .      S
Zn24  N120  2.118 1_565  S
Zn25  N111  2.052 .      S
Zn25  N123  2.065 1_565  S
Zn25  N126  2.152 .      S
Zn25  N129  2.089 .      S
Zn26  N113  2.146 1_545  S
Zn26  N132  2.107 .      S
Zn26  N134  2.164 .      S
Zn26  N138  2.122 1_645  S
Zn27  N116  2.175 .      S
Zn27  N140  2.138 .      S
Zn27  N144  2.030 .      S
Zn27  N146  2.106 .      S
Zn28  N119  2.151 .      S
Zn28  N150  2.165 .      S
Zn28  N152  2.146 .      S
Zn28  N155  2.139 .      S
Zn29  N128  2.086 .      S
Zn29  N135  2.187 .      S
Zn29  N158  2.133 1_565  S
Zn29  N162  2.095 1_655  S
Zn30  N137  2.205 .      S
Zn30  N164  2.120 .      S
Zn30  N167  2.038 .      S
Zn30  N171  2.168 .      S
Zn31  N122  2.062 .      S
Zn31  N174  2.070 .      S
Zn31  N177  2.116 .      S
Zn31  N180  2.098 .      S
Zn32  N131  2.158 .      S
Zn32  N153  2.111 .      S
Zn32  N183  2.125 1_655  S
Zn32  N186  2.174 .      S
Zn33  N68   2.028 .      S
Zn33  N96   2.095 .      S
Zn33  N102  2.076 .      S
Zn33  N306  2.067 .      S
Zn34  N48   2.104 .      S
Zn34  N53   2.095 .      S
Zn34  N189  2.167 1_655  S
Zn34  N264  2.136 .      S
Zn35  N191  2.152 1_556  S
Zn35  N195  2.085 .      S
Zn35  N197  2.194 .      S
Zn35  N266  2.115 1_556  S
Zn36  N149  2.083 .      S
Zn36  N200  2.073 .      S
Zn36  N204  2.058 .      S
Zn36  N207  2.033 .      S
Zn37  N125  2.161 .      S
Zn37  N210  2.108 .      S
Zn37  N213  2.013 .      S
Zn37  N216  2.120 .      S
Zn38  N141  2.160 .      S
Zn38  N219  2.085 .      S
Zn38  N221  2.149 .      S
Zn38  N225  2.175 .      S
Zn39  N156  2.184 .      S
Zn39  N227  2.131 .      S
Zn39  N230  2.174 .      S
Zn39  N234  2.094 .      S
Zn40  N143  2.176 .      S
Zn40  N165  2.164 .      S
Zn40  N236  2.030 .      S
Zn40  N240  2.056 1_565  S
Zn41  N147  2.072 .      S
Zn41  N243  2.125 .      S
Zn41  N246  2.075 .      S
Zn41  N249  2.076 .      S
Zn42  N168  2.077 .      S
Zn42  N248  2.115 .      S
Zn42  N251  2.082 .      S
Zn42  N255  2.120 .      S
Zn43  N170  2.134 .      S
Zn43  N224  2.114 .      S
Zn43  N258  2.132 .      S
Zn43  N261  2.087 .      S
Zn44  N159  2.169 .      S
Zn44  N173  2.088 .      S
Zn44  N263  2.158 .      S
Zn44  N267  2.107 1_655  S
Zn45  N161  2.040 .      S
Zn45  N269  2.105 .      S
Zn45  N273  2.008 .      S
Zn45  N275  2.107 .      S
Zn46  N222  2.175 .      S
Zn46  N279  2.177 .      S
Zn46  N281  2.145 .      S
Zn46  N285  2.190 .      S
Zn47  N39   2.086 .      S
Zn47  N228  2.135 .      S
Zn47  N239  2.017 .      S
Zn47  N288  2.143 .      S
Zn48  N21   2.047 .      S
Zn48  N272  1.928 .      S
Zn48  N291  2.116 .      S
Zn48  N293  2.131 .      S
Zn49  N42   2.201 .      S
Zn49  N80   2.220 .      S
Zn49  N252  2.098 1_545  S
Zn49  N297  2.111 .      S
Zn50  N254  2.109 .      S
Zn50  N300  2.066 .      S
Zn50  N302  2.071 1_556  S
Zn50  N320  2.089 .      S
Zn51  N14   2.064 .      S
Zn51  N260  2.002 .      S
Zn51  N276  2.098 .      S
Zn51  N305  2.135 .      S
Zn52  N257  2.163 .      S
Zn52  N278  2.058 .      S
Zn52  N308  2.124 .      S
Zn52  N312  2.121 .      S
Zn53  N242  2.121 .      S
Zn53  N315  2.005 1_556  S
Zn53  N317  2.132 .      S
Zn53  N321  2.102 .      S
Zn54  N188  2.149 .      S
Zn54  N299  2.055 .      S
Zn54  N309  2.138 1_554  S
Zn54  N324  2.028 .      S
C1    N1    1.457 .      S
C1    H1    1.107 .      S
C1    H2    1.105 .      S
C1    H3    1.095 .      S
N1    C2    1.451 .      S
N1    H4    1.038 .      S
C2    C3    1.489 .      S
C2    H5    1.107 .      S
C2    H6    1.109 .      S
C5    H7    1.062 .      S
C6    H8    1.073 .      S
C7    H9    1.069 .      S
C8    H10   1.052 .      S
C10   N4    1.455 .      S
C10   H11   1.099 .      S
C10   H12   1.107 .      S
C10   H13   1.102 .      S
N4    C11   1.445 .      S
N4    H14   1.038 .      S
C11   C12   1.482 .      S
C11   H15   1.100 .      S
C11   H16   1.095 .      S
C14   H17   1.078 .      S
C15   H18   1.077 .      S
C16   H19   1.081 .      S
C17   H20   1.071 .      S
C19   N7    1.435 1_545  S
C19   H21   1.095 .      S
C19   H22   1.087 .      S
C19   H23   1.106 .      S
N7    C19   1.435 1_565  S
N7    C20   1.451 .      S
N7    H24   1.037 .      S
C20   C21   1.456 1_565  S
C20   H25   1.098 .      S
C20   H26   1.096 1_556  S
C21   C20   1.456 1_545  S
C23   H27   1.062 .      S
C24   H28   1.075 .      S
C25   H29   1.070 .      S
C26   H30   1.062 .      S
H26   C20   1.096 1_554  S
C28   N10   1.442 .      S
C28   H31   1.102 .      S
C28   H32   1.098 .      S
C28   H33   1.104 .      S
N10   C29   1.438 .      S
N10   H34   1.036 .      S
C29   C30   1.473 .      S
C29   H35   1.096 .      S
C29   H36   1.093 .      S
C32   H37   1.066 .      S
C33   H38   1.081 .      S
C34   H39   1.080 .      S
C35   H40   1.064 .      S
C37   N13   1.436 .      S
C37   H41   1.104 .      S
C37   H42   1.108 .      S
C37   H43   1.081 .      S
N13   C38   1.449 .      S
N13   H44   1.040 .      S
C38   C39   1.448 .      S
C38   H45   1.084 .      S
C38   H46   1.092 .      S
C41   H47   1.070 .      S
C42   H48   1.041 .      S
C43   H49   1.079 .      S
C44   H50   1.057 .      S
C46   N16   1.455 .      S
C46   H51   1.106 1_554  S
C46   H52   1.107 .      S
C46   H53   1.107 .      S
N16   C47   1.451 .      S
N16   H54   1.038 .      S
C47   C48   1.503 .      S
C47   H55   1.102 .      S
C47   H56   1.101 .      S
C50   H57   1.074 .      S
C51   H58   1.077 .      S
C52   H59   1.080 .      S
C53   H60   1.080 .      S
H51   C46   1.106 1_556  S
C55   N19   1.447 .      S
C55   H61   1.100 .      S
C55   H62   1.097 .      S
C55   H63   1.097 .      S
N19   C56   1.437 .      S
N19   H64   1.034 .      S
C56   C57   1.468 .      S
C56   H65   1.107 .      S
C56   H66   1.097 .      S
C59   H67   1.062 .      S
C60   H68   1.075 .      S
C61   H69   1.067 .      S
C62   H70   1.072 .      S
C64   N22   1.453 .      S
C64   H71   1.109 .      S
C64   H72   1.109 .      S
C64   H73   1.108 .      S
N22   C65   1.454 .      S
N22   H74   1.041 .      S
C65   C66   1.489 .      S
C65   H75   1.105 .      S
C65   H76   1.103 .      S
N23   Zn4   2.084 1_564  S
C68   H77   1.072 .      S
C69   H78   1.064 .      S
C70   H79   1.067 .      S
C71   H80   1.075 .      S
C73   N25   1.454 .      S
C73   H81   1.104 .      S
C73   H82   1.097 .      S
C73   H83   1.095 .      S
N25   C74   1.446 .      S
N25   H84   1.037 .      S
C74   C75   1.484 .      S
C74   H85   1.088 .      S
C74   H86   1.106 .      S
N26   Zn10  2.062 1_545  S
C77   H87   1.076 .      S
C78   H88   1.077 .      S
C79   H89   1.069 .      S
C80   H90   1.056 .      S
C82   N28   1.448 .      S
C82   H91   1.091 .      S
C82   H92   1.101 .      S
C82   H93   1.086 .      S
N28   C83   1.439 .      S
N28   H94   1.026 .      S
C83   C84   1.464 .      S
C83   H95   1.090 .      S
C83   H96   1.103 .      S
C86   H97   1.076 .      S
C87   H98   1.081 .      S
C88   H99   1.081 .      S
C89   H100  1.067 .      S
C91   N31   1.451 .      S
C91   H101  1.097 .      S
C91   H102  1.107 .      S
C91   H103  1.099 .      S
N31   C92   1.461 .      S
N31   H104  1.040 .      S
C92   C93   1.494 .      S
C92   H105  1.103 .      S
C92   H106  1.104 .      S
C95   H107  1.077 .      S
C96   H108  1.074 .      S
C97   H109  1.070 .      S
C98   H110  1.067 .      S
C100  N34   1.441 .      S
C100  H111  1.100 .      S
C100  H112  1.106 .      S
C100  H113  1.102 .      S
N34   C101  1.436 .      S
N34   H114  1.038 .      S
C101  C102  1.461 .      S
C101  H115  1.103 .      S
C101  H116  1.103 .      S
C104  H117  1.061 .      S
C105  H118  1.075 .      S
C106  H119  1.079 .      S
C107  H120  1.048 .      S
C109  N37   1.450 .      S
C109  H121  1.108 .      S
C109  H122  1.107 .      S
C109  H123  1.108 .      S
N37   C110  1.445 .      S
N37   H124  1.032 .      S
C110  C111  1.490 .      S
C110  H125  1.099 .      S
C110  H126  1.103 .      S
C113  H127  1.073 .      S
C114  H128  1.079 .      S
C115  H129  1.074 .      S
C116  H130  1.055 .      S
C118  N40   1.454 .      S
C118  H131  1.106 .      S
C118  H132  1.100 .      S
C118  H133  1.103 .      S
N40   C119  1.456 .      S
N40   H134  1.030 .      S
C119  C120  1.443 .      S
C119  H135  1.096 .      S
C119  H136  1.090 .      S
C122  H137  1.067 .      S
C123  H138  1.080 .      S
C124  H139  1.081 .      S
C125  H140  1.048 .      S
C127  N43   1.453 .      S
C127  H141  1.109 .      S
C127  H142  1.109 .      S
C127  H143  1.110 .      S
N43   C128  1.450 .      S
N43   H144  1.041 .      S
C128  C129  1.483 .      S
C128  H145  1.107 .      S
C128  H146  1.106 .      S
C131  H147  1.073 .      S
C132  H148  1.066 .      S
C133  H149  1.072 .      S
C134  H150  1.062 .      S
C136  N46   1.451 .      S
C136  H151  1.106 .      S
C136  H152  1.106 .      S
C136  H153  1.107 .      S
N46   C137  1.450 .      S
N46   H154  1.039 .      S
C137  C138  1.481 .      S
C137  H155  1.104 .      S
C137  H156  1.106 .      S
C140  H157  1.065 .      S
C141  H158  1.079 .      S
C142  H159  1.081 .      S
C143  H160  1.081 .      S
C145  N49   1.453 1_655  S
C145  H161  1.109 1_655  S
C145  H162  1.107 .      S
C145  H163  1.109 .      S
N49   C145  1.453 1_455  S
N49   C146  1.455 .      S
N49   H164  1.044 .      S
C146  C147  1.485 .      S
C146  H165  1.105 1_455  S
C146  H166  1.099 .      S
C149  H167  1.071 .      S
C150  H168  1.072 .      S
C151  H169  1.081 .      S
C152  H170  1.067 .      S
N51   Zn13  2.132 1_455  S
H161  C145  1.109 1_455  S
H165  C146  1.105 1_655  S
C154  N52   1.449 .      S
C154  H171  1.106 .      S
C154  H172  1.106 .      S
C154  H173  1.103 .      S
N52   C155  1.453 .      S
N52   H174  1.043 .      S
C155  C156  1.469 .      S
C155  H175  1.071 .      S
C155  H176  1.094 .      S
C158  H177  1.075 .      S
C159  H178  1.081 .      S
C160  H179  1.081 .      S
C161  H180  1.078 .      S
C163  N55   1.455 .      S
C163  H181  1.108 .      S
C163  H182  1.100 .      S
C163  H183  1.098 .      S
N55   C164  1.449 .      S
N55   H184  1.044 .      S
C164  C165  1.484 .      S
C164  H185  1.106 .      S
C164  H186  1.110 .      S
C167  H187  1.074 .      S
C168  H188  1.081 .      S
C169  H189  1.081 .      S
C170  H190  1.061 .      S
C172  N58   1.453 .      S
C172  H191  1.109 .      S
C172  H192  1.109 .      S
C172  H193  1.109 .      S
N58   C173  1.451 .      S
N58   H194  1.042 .      S
C173  C174  1.496 .      S
C173  H195  1.103 .      S
C173  H196  1.105 .      S
C176  H197  1.047 .      S
C177  H198  1.068 .      S
C178  H199  1.078 1_556  S
C179  H200  1.054 1_556  S
N60   Zn15  2.191 1_556  S
H199  C178  1.078 1_554  S
H200  C179  1.054 1_554  S
C181  N61   1.447 .      S
C181  H201  1.098 .      S
C181  H202  1.107 .      S
C181  H203  1.102 .      S
N61   C182  1.440 .      S
N61   H204  1.036 .      S
C182  C183  1.495 .      S
C182  H205  1.096 .      S
C182  H206  1.082 .      S
C185  H207  1.057 .      S
C186  H208  1.069 .      S
C187  H209  1.077 .      S
C188  H210  1.074 .      S
C190  N64   1.456 .      S
C190  H211  1.106 .      S
C190  H212  1.108 .      S
C190  H213  1.107 .      S
N64   C191  1.447 .      S
N64   H214  1.043 .      S
C191  C192  1.488 .      S
C191  H215  1.108 .      S
C191  H216  1.102 .      S
C194  H217  1.072 .      S
C195  H218  1.076 .      S
C196  H219  1.070 .      S
C197  H220  1.064 1_545  S
N66   Zn4   2.122 1_554  S
H220  C197  1.064 1_565  S
C199  N67   1.442 .      S
C199  H221  1.098 .      S
C199  H222  1.106 .      S
C199  H223  1.108 .      S
N67   C200  1.453 .      S
N67   H224  1.039 .      S
C200  C201  1.484 .      S
C200  H225  1.094 .      S
C200  H226  1.092 .      S
C203  H227  1.074 .      S
C204  H228  1.075 .      S
C205  H229  1.059 .      S
C206  H230  1.064 .      S
C208  N70   1.450 .      S
C208  H231  1.094 .      S
C208  H232  1.085 .      S
C208  H233  1.098 .      S
N70   C209  1.447 .      S
N70   H234  1.039 .      S
C209  C210  1.474 .      S
C209  H235  1.094 .      S
C209  H236  1.107 .      S
C212  H237  1.055 .      S
C213  H238  1.059 .      S
C214  H239  1.070 .      S
C215  H240  1.044 .      S
C217  N73   1.439 .      S
C217  H241  1.099 .      S
C217  H242  1.102 .      S
C217  H243  1.094 .      S
N73   C218  1.440 .      S
N73   H244  1.016 .      S
C218  C219  1.456 .      S
C218  H245  1.090 .      S
C218  H246  1.099 .      S
C221  H247  1.078 .      S
C222  H248  1.069 .      S
C223  H249  1.074 .      S
C224  H250  1.070 .      S
C226  N76   1.445 .      S
C226  H251  1.106 .      S
C226  H252  1.098 1_554  S
C226  H253  1.107 .      S
N76   C227  1.441 .      S
N76   H254  1.042 .      S
C227  C228  1.473 .      S
C227  H255  1.086 .      S
C227  H256  1.096 .      S
C230  H257  1.067 .      S
C231  H258  1.081 .      S
C232  H259  1.073 .      S
C233  H260  1.077 .      S
H252  C226  1.098 1_556  S
C235  N79   1.433 .      S
C235  H261  1.088 .      S
C235  H262  1.091 .      S
C235  H263  1.088 .      S
N79   C236  1.440 .      S
N79   H264  1.036 .      S
C236  C237  1.435 1_565  S
C236  H265  1.081 .      S
C236  H266  1.067 .      S
C237  C236  1.435 1_545  S
C239  H267  1.059 .      S
C240  H268  1.056 .      S
C241  H269  1.071 .      S
C242  H270  1.062 .      S
C244  N82   1.444 .      S
C244  H271  1.103 .      S
C244  H272  1.101 .      S
C244  H273  1.096 .      S
N82   C245  1.458 .      S
N82   H274  1.042 .      S
C245  C246  1.457 .      S
C245  H275  1.083 .      S
C245  H276  1.093 .      S
C248  H277  1.081 .      S
C249  H278  1.081 .      S
C250  H279  1.081 .      S
C251  H280  1.081 .      S
C253  N85   1.450 .      S
C253  H281  1.098 .      S
C253  H282  1.106 .      S
C253  H283  1.104 .      S
N85   C254  1.443 .      S
N85   H284  1.037 .      S
C254  C255  1.488 .      S
C254  H285  1.102 .      S
C254  H286  1.104 .      S
C257  H287  1.076 .      S
C258  H288  1.081 .      S
C259  H289  1.081 .      S
C260  H290  1.074 .      S
C262  N88   1.445 .      S
C262  H291  1.094 .      S
C262  H292  1.104 .      S
C262  H293  1.108 .      S
N88   C263  1.442 .      S
N88   H294  1.041 .      S
C263  C264  1.461 .      S
C263  H295  1.105 .      S
C263  H296  1.082 .      S
C266  H297  1.054 .      S
C267  H298  1.073 .      S
C268  H299  1.072 .      S
C269  H300  1.055 .      S
C271  N91   1.452 .      S
C271  H301  1.108 .      S
C271  H302  1.105 .      S
C271  H303  1.104 .      S
N91   C272  1.448 .      S
N91   H304  1.039 .      S
C272  C273  1.472 .      S
C272  H305  1.102 .      S
C272  H306  1.102 .      S
C275  H307  1.072 .      S
C276  H308  1.070 .      S
C277  H309  1.067 .      S
C278  H310  1.060 .      S
C280  N94   1.452 .      S
C280  H311  1.101 .      S
C280  H312  1.107 .      S
C280  H313  1.104 .      S
N94   C281  1.446 .      S
N94   H314  1.030 .      S
C281  C282  1.493 .      S
C281  H315  1.106 .      S
C281  H316  1.106 .      S
C284  H317  1.074 .      S
C285  H318  1.080 .      S
C286  H319  1.078 .      S
C287  H320  1.079 .      S
C289  N97   1.452 .      S
C289  H321  1.107 .      S
C289  H322  1.108 .      S
C289  H323  1.104 .      S
N97   C290  1.453 .      S
N97   H324  1.043 .      S
C290  C291  1.490 .      S
C290  H325  1.095 .      S
C290  H326  1.082 .      S
C293  H327  1.079 .      S
C294  H328  1.081 .      S
C295  H329  1.081 .      S
C296  H330  1.078 .      S
C298  N100  1.453 .      S
C298  H331  1.109 1_455  S
C298  H332  1.109 .      S
C298  H333  1.109 .      S
N100  C299  1.454 .      S
N100  H334  1.042 .      S
C299  C300  1.489 .      S
C299  H335  1.107 .      S
C299  H336  1.106 .      S
C302  H337  1.063 .      S
C303  H338  1.065 .      S
C304  H339  1.050 .      S
C305  H340  1.044 .      S
H331  C298  1.109 1_655  S
C307  N103  1.450 .      S
C307  H341  1.103 .      S
C307  H342  1.095 .      S
C307  H343  1.095 .      S
N103  C308  1.441 .      S
N103  H344  1.041 .      S
C308  C309  1.485 .      S
C308  H345  1.105 .      S
C308  H346  1.093 .      S
C311  H347  1.074 .      S
C312  H348  1.077 .      S
C313  H349  1.077 .      S
C314  H350  1.057 .      S
C316  N106  1.448 .      S
C316  H351  1.109 .      S
C316  H352  1.106 .      S
C316  H353  1.109 .      S
N106  C317  1.451 .      S
N106  H354  1.043 .      S
C317  C318  1.478 .      S
C317  H355  1.108 .      S
C317  H356  1.085 .      S
C320  H357  1.063 .      S
C321  H358  1.077 .      S
C322  H359  1.080 .      S
C323  H360  1.064 .      S
C325  N109  1.452 .      S
C325  H361  1.109 .      S
C325  H362  1.097 .      S
C325  H363  1.105 .      S
N109  C326  1.452 .      S
N109  H364  1.042 .      S
C326  C327  1.480 .      S
C326  H365  1.105 .      S
C326  H366  1.100 .      S
C329  H367  1.062 .      S
C330  H368  1.081 .      S
C331  H369  1.079 .      S
C332  H370  1.079 .      S
C334  N112  1.451 .      S
C334  H371  1.109 .      S
C334  H372  1.106 .      S
C334  H373  1.098 .      S
N112  C335  1.459 .      S
N112  H374  1.034 .      S
C335  C336  1.472 .      S
C335  H375  1.096 .      S
C335  H376  1.100 .      S
N113  Zn26  2.146 1_565  S
C338  H377  1.060 .      S
C339  H378  1.081 .      S
C340  H379  1.078 .      S
C341  H380  1.081 .      S
C343  N115  1.456 .      S
C343  H381  1.108 .      S
C343  H382  1.108 .      S
C343  H383  1.108 1_565  S
N115  C344  1.447 .      S
N115  H384  1.036 .      S
C344  C345  1.491 .      S
C344  H385  1.092 .      S
C344  H386  1.103 .      S
C347  H387  1.081 .      S
C348  H388  1.081 .      S
C349  H389  1.081 .      S
C350  H390  1.066 .      S
H383  C343  1.108 1_545  S
C352  N118  1.446 .      S
C352  H391  1.104 .      S
C352  H392  1.106 .      S
C352  H393  1.097 .      S
N118  C353  1.452 .      S
N118  H394  1.041 .      S
C353  C354  1.468 .      S
C353  H395  1.100 .      S
C353  H396  1.096 .      S
C356  H397  1.077 .      S
C357  H398  1.081 .      S
C358  H399  1.081 .      S
C359  H400  1.071 .      S
N120  Zn24  2.118 1_545  S
C361  N121  1.454 .      S
C361  H401  1.106 .      S
C361  H402  1.108 .      S
C361  H403  1.109 .      S
N121  C362  1.457 .      S
N121  H404  1.038 .      S
C362  C363  1.507 .      S
C362  H405  1.084 .      S
C362  H406  1.105 .      S
C365  H407  1.073 .      S
C366  H408  1.079 .      S
C367  H409  1.079 .      S
C368  H410  1.079 .      S
N123  Zn25  2.065 1_545  S
C370  N124  1.450 .      S
C370  H411  1.107 .      S
C370  H412  1.103 .      S
C370  H413  1.107 .      S
N124  C371  1.447 .      S
N124  H414  1.040 .      S
C371  C372  1.494 .      S
C371  H415  1.106 .      S
C371  H416  1.101 .      S
C374  H417  1.066 .      S
C375  H418  1.078 .      S
C376  H419  1.078 .      S
C377  H420  1.058 .      S
C379  N127  1.445 .      S
C379  H421  1.101 .      S
C379  H422  1.108 .      S
C379  H423  1.094 .      S
N127  C380  1.456 .      S
N127  H424  1.032 .      S
C380  C381  1.461 .      S
C380  H425  1.101 .      S
C380  H426  1.090 .      S
C383  H427  1.078 .      S
C384  H428  1.081 .      S
C385  H429  1.081 .      S
C386  H430  1.074 .      S
C388  N130  1.451 .      S
C388  H431  1.109 .      S
C388  H432  1.105 .      S
C388  H433  1.109 .      S
N130  C389  1.440 1_455  S
N130  H434  1.044 .      S
C389  N130  1.440 1_655  S
C389  C390  1.488 .      S
C389  H435  1.101 .      S
C389  H436  1.099 .      S
C392  H437  1.066 .      S
C393  H438  1.073 .      S
C394  H439  1.073 .      S
C395  H440  1.078 .      S
C397  N133  1.438 .      S
C397  H441  1.098 .      S
C397  H442  1.101 .      S
C397  H443  1.084 .      S
N133  C398  1.442 .      S
N133  H444  1.044 .      S
C398  C399  1.491 .      S
C398  H445  1.109 .      S
C398  H446  1.103 .      S
C401  H447  1.063 1_455  S
C402  H448  1.078 .      S
C403  H449  1.080 .      S
C404  H450  1.047 .      S
H447  C401  1.063 1_655  S
C406  N136  1.454 .      S
C406  H451  1.108 .      S
C406  H452  1.106 .      S
C406  H453  1.108 .      S
N136  C407  1.442 .      S
N136  H454  1.042 .      S
C407  C408  1.481 1_545  S
C407  H455  1.105 .      S
C407  H456  1.097 1_545  S
C408  C407  1.481 1_565  S
C410  H457  1.063 .      S
C411  H458  1.080 .      S
C412  H459  1.081 .      S
C413  H460  1.069 .      S
N138  Zn26  2.122 1_465  S
H456  C407  1.097 1_565  S
C415  N139  1.452 .      S
C415  H461  1.108 .      S
C415  H462  1.106 .      S
C415  H463  1.106 .      S
N139  C416  1.455 .      S
N139  H464  1.043 .      S
C416  C417  1.447 .      S
C416  H465  1.089 .      S
C416  H466  1.085 .      S
C419  H467  1.070 .      S
C420  H468  1.080 .      S
C421  H469  1.080 .      S
C422  H470  1.066 .      S
C424  N142  1.429 .      S
C424  H471  1.103 .      S
C424  H472  1.102 .      S
C424  H473  1.101 .      S
N142  C425  1.440 .      S
N142  H474  1.027 .      S
C425  C426  1.467 .      S
C425  H475  1.102 .      S
C425  H476  1.104 .      S
C428  H477  1.080 .      S
C429  H478  1.058 .      S
C430  H479  1.081 .      S
C431  H480  1.077 .      S
C433  N145  1.443 .      S
C433  H481  1.096 .      S
C433  H482  1.094 .      S
C433  H483  1.109 .      S
N145  C434  1.433 .      S
N145  H484  1.029 .      S
C434  C435  1.467 .      S
C434  H485  1.108 .      S
C434  H486  1.099 .      S
C437  H487  1.065 .      S
C438  H488  1.081 .      S
C439  H489  1.081 .      S
C440  H490  1.070 .      S
C442  N148  1.451 .      S
C442  H491  1.105 .      S
C442  H492  1.105 .      S
C442  H493  1.083 .      S
N148  C443  1.449 .      S
N148  H494  1.031 .      S
C443  C444  1.464 .      S
C443  H495  1.092 .      S
C443  H496  1.095 .      S
C446  H497  1.077 .      S
C447  H498  1.081 .      S
C448  H499  1.081 .      S
C449  H500  1.064 .      S
C451  N151  1.464 .      S
C451  H501  1.107 .      S
C451  H502  1.107 .      S
C451  H503  1.102 .      S
N151  C452  1.449 .      S
N151  H504  1.031 .      S
C452  C453  1.460 .      S
C452  H505  1.088 .      S
C452  H506  1.103 .      S
C455  H507  1.074 .      S
C456  H508  1.080 .      S
C457  H509  1.081 .      S
C458  H510  1.077 .      S
C460  N154  1.450 .      S
C460  H511  1.109 .      S
C460  H512  1.105 .      S
C460  H513  1.095 .      S
N154  C461  1.456 .      S
N154  H514  1.038 .      S
C461  C462  1.489 .      S
C461  H515  1.107 .      S
C461  H516  1.096 .      S
C464  H517  1.056 .      S
C465  H518  1.074 .      S
C466  H519  1.079 .      S
C467  H520  1.047 .      S
C469  N157  1.450 .      S
C469  H521  1.106 .      S
C469  H522  1.108 .      S
C469  H523  1.104 .      S
N157  C470  1.454 .      S
N157  H524  1.042 .      S
C470  C471  1.485 .      S
C470  H525  1.100 .      S
C470  H526  1.094 .      S
N158  Zn29  2.133 1_545  S
C473  H527  1.069 .      S
C474  H528  1.081 .      S
C475  H529  1.081 .      S
C476  H530  1.078 .      S
C478  N160  1.453 1_565  S
C478  H531  1.108 .      S
C478  H532  1.107 1_565  S
C478  H533  1.104 .      S
N160  C478  1.453 1_545  S
N160  C479  1.457 1_545  S
N160  H534  1.034 .      S
C479  N160  1.457 1_565  S
C479  C480  1.479 .      S
C479  H535  1.107 .      S
C479  H536  1.104 1_565  S
C482  H537  1.065 .      S
C483  H538  1.081 .      S
C484  H539  1.081 .      S
C485  H540  1.063 .      S
N162  Zn29  2.095 1_455  S
H532  C478  1.107 1_545  S
H536  C479  1.104 1_545  S
C487  N163  1.446 .      S
C487  H541  1.091 .      S
C487  H542  1.109 .      S
C487  H543  1.107 .      S
N163  C488  1.440 .      S
N163  H544  1.035 .      S
C488  C489  1.477 .      S
C488  H545  1.086 .      S
C488  H546  1.107 .      S
C491  H547  1.073 .      S
C492  H548  1.078 .      S
C493  H549  1.069 .      S
C494  H550  1.057 .      S
C496  N166  1.454 .      S
C496  H551  1.109 .      S
C496  H552  1.106 .      S
C496  H553  1.106 .      S
N166  C497  1.448 .      S
N166  H554  1.038 .      S
C497  C498  1.493 .      S
C497  H555  1.105 .      S
C497  H556  1.079 .      S
C500  H557  1.078 .      S
C501  H558  1.062 1_565  S
C502  H559  1.072 .      S
C503  H560  1.054 .      S
H558  C501  1.062 1_545  S
C505  N169  1.443 .      S
C505  H561  1.093 .      S
C505  H562  1.103 .      S
C505  H563  1.094 .      S
N169  C506  1.447 .      S
N169  H564  1.036 .      S
C506  C507  1.471 .      S
C506  H565  1.107 .      S
C506  H566  1.093 .      S
C509  H567  1.080 .      S
C510  H568  1.081 .      S
C511  H569  1.081 1_455  S
C512  H570  1.063 .      S
H569  C511  1.081 1_655  S
C514  N172  1.453 .      S
C514  H571  1.107 .      S
C514  H572  1.108 1_554  S
C514  H573  1.109 1_554  S
N172  C515  1.455 .      S
N172  H574  1.041 .      S
C515  C516  1.487 .      S
C515  H575  1.095 .      S
C515  H576  1.090 .      S
C518  H577  1.049 .      S
C519  H578  1.079 .      S
C520  H579  1.076 .      S
C521  H580  1.051 .      S
H572  C514  1.108 1_556  S
H573  C514  1.109 1_556  S
C523  N175  1.457 .      S
C523  H581  1.106 .      S
C523  H582  1.109 .      S
C523  H583  1.108 .      S
N175  C524  1.442 .      S
N175  H584  1.033 .      S
C524  C525  1.486 .      S
C524  H585  1.098 .      S
C524  H586  1.088 .      S
C527  H587  1.078 .      S
C528  H588  1.074 .      S
C529  H589  1.076 .      S
C530  H590  1.060 .      S
C532  N178  1.456 .      S
C532  H591  1.109 .      S
C532  H592  1.108 .      S
C532  H593  1.106 .      S
N178  C533  1.455 .      S
N178  H594  1.041 .      S
C533  C534  1.479 .      S
C533  H595  1.104 .      S
C533  H596  1.097 .      S
C536  H597  1.071 .      S
C537  H598  1.081 .      S
C538  H599  1.081 .      S
C539  H600  1.073 .      S
C541  N181  1.455 .      S
C541  H601  1.107 .      S
C541  H602  1.097 .      S
C541  H603  1.096 .      S
N181  C542  1.436 .      S
N181  H604  1.026 .      S
C542  C543  1.470 .      S
C542  H605  1.099 .      S
C542  H606  1.079 .      S
C545  H607  1.078 .      S
C546  H608  1.081 .      S
C547  H609  1.081 .      S
C548  H610  1.076 .      S
N183  Zn32  2.125 1_455  S
C550  N184  1.454 .      S
C550  H611  1.108 .      S
C550  H612  1.108 .      S
C550  H613  1.109 .      S
N184  C551  1.450 .      S
N184  H614  1.041 .      S
C551  C552  1.486 .      S
C551  H615  1.089 .      S
C551  H616  1.091 .      S
C554  H617  1.075 .      S
C555  H618  1.081 .      S
C556  H619  1.071 .      S
C557  H620  1.062 .      S
C559  N187  1.453 .      S
C559  H621  1.106 .      S
C559  H622  1.097 1_556  S
C559  H623  1.103 1_556  S
N187  C560  1.455 1_556  S
N187  H624  1.043 .      S
C560  N187  1.455 1_554  S
C560  C561  1.485 .      S
C560  H625  1.100 .      S
C560  H626  1.102 .      S
C563  H627  1.067 .      S
C564  H628  1.079 .      S
C565  H629  1.078 .      S
C566  H630  1.069 .      S
N189  Zn34  2.167 1_455  S
H622  C559  1.097 1_554  S
H623  C559  1.103 1_554  S
C568  N190  1.440 .      S
C568  H631  1.101 .      S
C568  H632  1.096 .      S
C568  H633  1.105 .      S
N190  C569  1.443 .      S
N190  H634  1.036 .      S
C569  C570  1.460 .      S
C569  H635  1.089 .      S
C569  H636  1.102 .      S
N191  Zn35  2.152 1_554  S
C572  H637  1.076 .      S
C573  H638  1.080 .      S
C574  H639  1.081 .      S
C575  H640  1.050 .      S
C577  N193  1.443 .      S
C577  H641  1.106 .      S
C577  H642  1.094 .      S
C577  H643  1.087 .      S
N193  C578  1.436 .      S
N193  H644  1.020 .      S
C578  C579  1.454 .      S
C578  H645  1.102 .      S
C578  H646  1.090 .      S
C581  H647  1.067 .      S
C582  H648  1.081 .      S
C583  H649  1.078 .      S
C584  H650  1.060 .      S
C586  N196  1.442 .      S
C586  H651  1.105 1_556  S
C586  H652  1.070 .      S
C586  H653  1.104 .      S
N196  C587  1.431 .      S
N196  H654  1.038 .      S
C587  C588  1.439 .      S
C587  H655  1.097 .      S
C587  H656  1.097 .      S
C590  H657  1.075 .      S
C591  H658  1.081 .      S
C592  H659  1.081 .      S
C593  H660  1.075 .      S
H651  C586  1.105 1_554  S
C595  N199  1.451 .      S
C595  H661  1.103 .      S
C595  H662  1.102 .      S
C595  H663  1.109 .      S
N199  C596  1.444 .      S
N199  H664  1.041 .      S
C596  C597  1.501 .      S
C596  H665  1.097 .      S
C596  H666  1.107 .      S
C599  H667  1.063 .      S
C600  H668  1.078 .      S
C601  H669  1.081 .      S
C602  H670  1.078 .      S
C604  N202  1.437 .      S
C604  H671  1.104 .      S
C604  H672  1.102 .      S
C604  H673  1.098 .      S
N202  C605  1.439 .      S
N202  H674  1.032 .      S
C605  C606  1.476 .      S
C605  H675  1.107 .      S
C605  H676  1.104 .      S
C608  H677  1.075 .      S
C609  H678  1.081 .      S
C610  H679  1.081 .      S
C611  H680  1.070 .      S
C613  N205  1.449 .      S
C613  H681  1.106 .      S
C613  H682  1.104 .      S
C613  H683  1.101 .      S
N205  C614  1.446 .      S
N205  H684  1.033 .      S
C614  C615  1.500 .      S
C614  H685  1.107 .      S
C614  H686  1.100 .      S
C617  H687  1.078 .      S
C618  H688  1.081 .      S
C619  H689  1.077 .      S
C620  H690  1.073 .      S
C622  N208  1.440 .      S
C622  H691  1.109 .      S
C622  H692  1.106 .      S
C622  H693  1.103 .      S
N208  C623  1.447 .      S
N208  H694  1.043 .      S
C623  C624  1.473 .      S
C623  H695  1.101 .      S
C623  H696  1.102 .      S
C626  H697  1.065 .      S
C627  H698  1.080 .      S
C628  H699  1.078 .      S
C629  H700  1.071 .      S
C631  N211  1.449 .      S
C631  H701  1.101 .      S
C631  H702  1.086 .      S
C631  H703  1.106 .      S
N211  C632  1.449 .      S
N211  H704  1.043 .      S
C632  C633  1.456 .      S
C632  H705  1.084 .      S
C632  H706  1.101 .      S
C635  H707  1.075 .      S
C636  H708  1.081 .      S
C637  H709  1.081 .      S
C638  H710  1.078 .      S
C640  N214  1.446 .      S
C640  H711  1.102 .      S
C640  H712  1.091 .      S
C640  H713  1.104 .      S
N214  C641  1.428 .      S
N214  H714  1.031 .      S
C641  C642  1.474 .      S
C641  H715  1.106 .      S
C641  H716  1.100 .      S
C644  H717  1.067 .      S
C645  H718  1.077 .      S
C646  H719  1.066 .      S
C647  H720  1.056 .      S
C649  N217  1.445 .      S
C649  H721  1.107 .      S
C649  H722  1.105 .      S
C649  H723  1.101 .      S
N217  C650  1.443 .      S
N217  H724  1.021 .      S
C650  C651  1.445 .      S
C650  H725  1.095 .      S
C650  H726  1.081 .      S
C653  H727  1.081 .      S
C654  H728  1.081 .      S
C655  H729  1.081 .      S
C656  H730  1.059 .      S
C658  N220  1.426 .      S
C658  H731  1.093 .      S
C658  H732  1.108 .      S
C658  H733  1.109 .      S
N220  C659  1.441 .      S
N220  H734  1.033 .      S
C659  C660  1.462 .      S
C659  H735  1.104 .      S
C659  H736  1.091 .      S
C662  H737  1.074 .      S
C663  H738  1.081 .      S
C664  H739  1.081 .      S
C665  H740  1.075 .      S
C667  N223  1.449 .      S
C667  H741  1.101 .      S
C667  H742  1.101 .      S
C667  H743  1.107 .      S
N223  C668  1.438 .      S
N223  H744  1.028 .      S
C668  C669  1.450 .      S
C668  H745  1.094 .      S
C668  H746  1.108 .      S
C671  H747  1.072 .      S
C672  H748  1.062 .      S
C673  H749  1.076 .      S
C674  H750  1.065 .      S
C676  N226  1.434 .      S
C676  H751  1.106 .      S
C676  H752  1.106 .      S
C676  H753  1.100 .      S
N226  C677  1.434 .      S
N226  H754  1.036 .      S
C677  C678  1.459 .      S
C677  H755  1.108 .      S
C677  H756  1.107 .      S
C680  H757  1.064 .      S
C681  H758  1.059 .      S
C682  H759  1.081 .      S
C683  H760  1.054 .      S
C685  N229  1.456 .      S
C685  H761  1.106 .      S
C685  H762  1.100 .      S
C685  H763  1.089 1_545  S
N229  C686  1.443 .      S
N229  H764  1.037 .      S
C686  C687  1.469 .      S
C686  H765  1.088 .      S
C686  H766  1.102 .      S
C689  H767  1.058 .      S
C690  H768  1.081 .      S
C691  H769  1.081 .      S
C692  H770  1.050 .      S
H763  C685  1.089 1_565  S
C694  N232  1.441 .      S
C694  H771  1.077 .      S
C694  H772  1.096 .      S
C694  H773  1.091 .      S
N232  C695  1.438 .      S
N232  H774  1.040 .      S
C695  C696  1.452 .      S
C695  H775  1.096 .      S
C695  H776  1.101 .      S
C698  H777  1.075 .      S
C699  H778  1.081 .      S
C700  H779  1.080 .      S
C701  H780  1.076 .      S
C703  N235  1.455 .      S
C703  H781  1.104 .      S
C703  H782  1.108 .      S
C703  H783  1.109 .      S
N235  C704  1.451 .      S
N235  H784  1.041 .      S
C704  C705  1.499 .      S
C704  H785  1.104 .      S
C704  H786  1.108 .      S
C707  H787  1.029 .      S
C708  H788  1.077 .      S
C709  H789  1.078 .      S
C710  H790  1.032 .      S
C712  N238  1.445 .      S
C712  H791  1.108 .      S
C712  H792  1.087 .      S
C712  H793  1.096 .      S
N238  C713  1.450 .      S
N238  H794  1.041 .      S
C713  C714  1.463 .      S
C713  H795  1.095 .      S
C713  H796  1.093 .      S
C716  H797  1.069 .      S
C717  H798  1.076 .      S
C718  H799  1.081 .      S
C719  H800  1.049 .      S
N240  Zn40  2.056 1_545  S
C721  N241  1.438 .      S
C721  H801  1.095 .      S
C721  H802  1.094 .      S
C721  H803  1.103 .      S
N241  C722  1.450 .      S
N241  H804  1.037 .      S
C722  C723  1.436 .      S
C722  H805  1.089 .      S
C722  H806  1.098 .      S
C725  H807  1.065 .      S
C726  H808  1.081 .      S
C727  H809  1.081 .      S
C728  H810  1.062 .      S
C730  N244  1.458 .      S
C730  H811  1.105 .      S
C730  H812  1.103 .      S
C730  H813  1.098 .      S
N244  C731  1.458 .      S
N244  H814  1.044 .      S
C731  C732  1.458 .      S
C731  H815  1.072 .      S
C731  H816  1.100 .      S
N245  Zn20  2.219 1_565  S
C734  H817  1.053 .      S
C735  H818  1.081 .      S
C736  H819  1.077 .      S
C737  H820  1.072 .      S
C739  N247  1.443 .      S
C739  H821  1.103 .      S
C739  H822  1.102 .      S
C739  H823  1.094 .      S
N247  C740  1.439 .      S
N247  H824  1.033 .      S
C740  C741  1.440 .      S
C740  H825  1.099 .      S
C740  H826  1.086 .      S
C743  H827  1.070 .      S
C744  H828  1.057 .      S
C745  H829  1.074 .      S
C746  H830  1.075 .      S
C748  N250  1.453 .      S
C748  H831  1.108 .      S
C748  H832  1.108 .      S
C748  H833  1.107 .      S
N250  C749  1.449 .      S
N250  H834  1.039 .      S
C749  C750  1.499 .      S
C749  H835  1.105 .      S
C749  H836  1.107 .      S
C752  H837  1.076 .      S
C753  H838  1.064 .      S
C754  H839  1.077 .      S
C755  H840  1.047 .      S
N252  Zn49  2.098 1_565  S
C757  N253  1.458 .      S
C757  H841  1.105 .      S
C757  H842  1.106 .      S
C757  H843  1.097 .      S
N253  C758  1.454 .      S
N253  H844  1.038 .      S
C758  C759  1.425 .      S
C758  H845  1.066 .      S
C758  H846  1.084 .      S
C761  H847  1.069 .      S
C762  H848  1.081 .      S
C763  H849  1.081 .      S
C764  H850  1.079 .      S
C766  N256  1.456 .      S
C766  H851  1.106 .      S
C766  H852  1.109 .      S
C766  H853  1.107 .      S
N256  C767  1.451 .      S
N256  H854  1.044 .      S
C767  C768  1.491 .      S
C767  H855  1.107 .      S
C767  H856  1.099 .      S
C770  H857  1.072 .      S
C771  H858  1.081 .      S
C772  H859  1.078 .      S
C773  H860  1.061 .      S
C775  N259  1.436 .      S
C775  H861  1.097 .      S
C775  H862  1.097 .      S
C775  H863  1.102 .      S
N259  C776  1.456 .      S
N259  H864  1.032 .      S
C776  C777  1.459 .      S
C776  H865  1.096 .      S
C776  H866  1.091 .      S
C779  H867  1.076 .      S
C780  H868  1.081 .      S
C781  H869  1.081 .      S
C782  H870  1.062 .      S
C784  N262  1.450 .      S
C784  H871  1.097 .      S
C784  H872  1.108 .      S
C784  H873  1.108 .      S
N262  C785  1.441 .      S
N262  H874  1.038 .      S
C785  C786  1.470 .      S
C785  H875  1.086 1_655  S
C785  H876  1.070 1_655  S
C788  H877  1.065 .      S
C789  H878  1.081 1_554  S
C790  H879  1.081 1_554  S
C791  H880  1.079 .      S
H875  C785  1.086 1_455  S
H876  C785  1.070 1_455  S
H878  C789  1.081 1_556  S
H879  C790  1.081 1_556  S
C793  N265  1.454 .      S
C793  H881  1.107 .      S
C793  H882  1.099 .      S
C793  H883  1.100 .      S
N265  C794  1.451 .      S
N265  H884  1.038 .      S
C794  C795  1.484 .      S
C794  H885  1.105 .      S
C794  H886  1.091 .      S
N266  Zn35  2.115 1_554  S
C797  H887  1.069 .      S
C798  H888  1.081 .      S
C799  H889  1.079 .      S
C800  H890  1.072 .      S
N267  Zn44  2.107 1_455  S
C802  N268  1.447 .      S
C802  H891  1.105 .      S
C802  H892  1.090 .      S
C802  H893  1.099 .      S
N268  C803  1.445 .      S
N268  H894  1.043 1_565  S
C803  C804  1.478 .      S
C803  H895  1.100 .      S
C803  H896  1.100 .      S
C806  H897  1.071 .      S
C807  H898  1.053 .      S
C808  H899  1.075 .      S
C809  H900  1.067 .      S
H894  N268  1.043 1_545  S
C811  N271  1.450 .      S
C811  H901  1.107 .      S
C811  H902  1.088 .      S
C811  H903  1.093 .      S
N271  C812  1.449 .      S
N271  H904  1.033 .      S
C812  C813  1.506 .      S
C812  H905  1.087 .      S
C812  H906  1.097 .      S
C815  H907  1.078 .      S
C816  H908  1.081 .      S
C817  H909  1.081 1_455  S
C818  H910  1.059 .      S
H909  C817  1.081 1_655  S
C820  N274  1.452 .      S
C820  H911  1.109 .      S
C820  H912  1.107 .      S
C820  H913  1.109 .      S
N274  C821  1.446 .      S
N274  H914  1.044 .      S
C821  C822  1.487 .      S
C821  H915  1.101 .      S
C821  H916  1.097 .      S
C824  H917  1.069 .      S
C825  H918  1.070 .      S
C826  H919  1.079 .      S
C827  H920  1.065 .      S
C829  N277  1.440 .      S
C829  H921  1.103 .      S
C829  H922  1.081 .      S
C829  H923  1.086 .      S
N277  C830  1.453 .      S
N277  H924  1.022 .      S
C830  C831  1.451 .      S
C830  H925  1.102 .      S
C830  H926  1.091 .      S
C833  H927  1.065 .      S
C834  H928  1.071 .      S
C835  H929  1.069 .      S
C836  H930  1.042 .      S
C838  N280  1.437 .      S
C838  H931  1.108 .      S
C838  H932  1.108 .      S
C838  H933  1.106 .      S
N280  C839  1.437 .      S
N280  H934  1.036 .      S
C839  C840  1.466 .      S
C839  H935  1.107 .      S
C839  H936  1.109 .      S
C842  H937  1.068 .      S
C843  H938  1.074 .      S
C844  H939  1.080 .      S
C845  H940  1.065 .      S
C847  N283  1.454 .      S
C847  H941  1.108 .      S
C847  H942  1.110 .      S
C847  H943  1.110 .      S
N283  C848  1.449 .      S
N283  H944  1.040 .      S
C848  C849  1.505 .      S
C848  H945  1.090 .      S
C848  H946  1.108 .      S
N284  Zn2   2.144 1_556  S
C851  H947  1.073 .      S
C852  H948  1.065 .      S
C853  H949  1.080 .      S
C854  H950  1.056 .      S
C856  N286  1.450 .      S
C856  H951  1.106 .      S
C856  H952  1.104 .      S
C856  H953  1.096 .      S
N286  C857  1.457 .      S
N286  H954  1.033 .      S
C857  C858  1.495 .      S
C857  H955  1.101 .      S
C857  H956  1.102 .      S
C860  H957  1.055 .      S
C861  H958  1.075 .      S
C862  H959  1.076 .      S
C863  H960  1.058 .      S
C865  N289  1.454 .      S
C865  H961  1.109 .      S
C865  H962  1.108 1_554  S
C865  H963  1.110 .      S
N289  C866  1.456 .      S
N289  H964  1.042 .      S
C866  C867  1.469 .      S
C866  H965  1.081 .      S
C866  H966  1.108 1_554  S
N290  Zn7   2.060 1_564  S
C869  H967  1.074 .      S
C870  H968  1.067 .      S
C871  H969  1.077 .      S
C872  H970  1.048 .      S
H962  C865  1.108 1_556  S
H966  C866  1.108 1_556  S
C874  N292  1.450 .      S
C874  H971  1.107 1_554  S
C874  H972  1.106 .      S
C874  H973  1.096 1_554  S
N292  C875  1.461 .      S
N292  H974  1.031 .      S
C875  C876  1.470 .      S
C875  H975  1.080 .      S
C875  H976  1.104 .      S
C878  H977  1.054 .      S
C879  H978  1.081 .      S
C880  H979  1.081 .      S
C881  H980  1.066 .      S
H971  C874  1.107 1_556  S
H973  C874  1.096 1_556  S
C883  N295  1.459 .      S
C883  H981  1.107 .      S
C883  H982  1.108 .      S
C883  H983  1.108 .      S
N295  C884  1.457 .      S
N295  H984  1.037 .      S
C884  C885  1.487 .      S
C884  H985  1.095 .      S
C884  H986  1.107 .      S
C887  H987  1.062 .      S
C888  H988  1.081 .      S
C889  H989  1.081 .      S
C890  H990  1.065 .      S
C892  N298  1.456 .      S
C892  H991  1.107 .      S
C892  H992  1.108 .      S
C892  H993  1.108 .      S
N298  C893  1.452 .      S
N298  H994  1.042 .      S
C893  C894  1.488 .      S
C893  H995  1.104 .      S
C893  H996  1.105 .      S
C896  H997  1.036 .      S
C897  H998  1.080 .      S
C898  H999  1.067 .      S
C899  H1000 1.059 .      S
C901  N301  1.452 .      S
C901  H1001 1.101 .      S
C901  H1002 1.103 .      S
C901  H1003 1.108 .      S
N301  C902  1.454 .      S
N301  H1004 1.040 .      S
C902  C903  1.484 .      S
C902  H1005 1.094 .      S
C902  H1006 1.076 .      S
N302  Zn50  2.071 1_554  S
C905  H1007 1.061 .      S
C906  H1008 1.081 .      S
C907  H1009 1.081 .      S
C908  H1010 1.074 .      S
C910  N304  1.456 .      S
C910  H1011 1.109 .      S
C910  H1012 1.109 .      S
C910  H1013 1.107 .      S
N304  C911  1.459 .      S
N304  H1014 1.039 .      S
C911  C912  1.492 .      S
C911  H1015 1.106 .      S
C911  H1016 1.091 .      S
C914  H1017 1.072 .      S
C915  H1018 1.071 .      S
C916  H1019 1.074 .      S
C917  H1020 1.072 .      S
C919  N307  1.438 .      S
C919  H1021 1.089 .      S
C919  H1022 1.099 .      S
C919  H1023 1.087 .      S
N307  C920  1.454 .      S
N307  H1024 1.040 .      S
C920  C921  1.497 .      S
C920  H1025 1.093 .      S
C920  H1026 1.093 .      S
C923  H1027 1.071 .      S
C924  H1028 1.081 .      S
C925  H1029 1.081 1_455  S
C926  H1030 1.074 .      S
N309  Zn54  2.138 1_556  S
H1029 C925  1.081 1_655  S
C928  N310  1.452 .      S
C928  H1031 1.109 .      S
C928  H1032 1.109 .      S
C928  H1033 1.108 .      S
N310  C929  1.453 .      S
N310  H1034 1.044 .      S
C929  C930  1.489 .      S
C929  H1035 1.101 .      S
C929  H1036 1.103 .      S
C932  H1037 1.071 .      S
C933  H1038 1.076 .      S
C934  H1039 1.068 .      S
C935  H1040 1.072 .      S
C937  N313  1.431 .      S
C937  H1041 1.106 .      S
C937  H1042 1.103 .      S
C937  H1043 1.088 .      S
N313  C938  1.439 .      S
N313  H1044 1.031 .      S
C938  C939  1.470 .      S
C938  H1045 1.103 .      S
C938  H1046 1.098 .      S
C941  H1047 1.077 .      S
C942  H1048 1.081 .      S
C943  H1049 1.079 1_554  S
C944  H1050 1.075 1_554  S
N315  Zn53  2.005 1_554  S
H1049 C943  1.079 1_556  S
H1050 C944  1.075 1_556  S
C946  N316  1.446 .      S
C946  H1051 1.101 .      S
C946  H1052 1.107 .      S
C946  H1053 1.103 1_556  S
N316  C947  1.430 .      S
N316  H1054 1.042 1_556  S
C947  C948  1.447 .      S
C947  H1055 1.094 .      S
C947  H1056 1.088 .      S
C950  H1057 1.054 .      S
C951  H1058 1.081 .      S
C952  H1059 1.081 .      S
C953  H1060 1.069 .      S
H1053 C946  1.103 1_554  S
H1054 N316  1.042 1_554  S
C955  N319  1.447 .      S
C955  H1061 1.085 .      S
C955  H1062 1.094 .      S
C955  H1063 1.099 .      S
N319  C956  1.435 1_556  S
N319  H1064 1.033 1_556  S
C956  N319  1.435 1_554  S
C956  C957  1.458 1_554  S
C956  H1065 1.093 .      S
C956  H1066 1.101 .      S
C957  C956  1.458 1_556  S
C959  H1067 1.078 .      S
C960  H1068 1.064 .      S
C961  H1069 1.076 .      S
C962  H1070 1.081 .      S
H1064 N319  1.033 1_554  S
C964  N322  1.449 .      S
C964  H1071 1.096 .      S
C964  H1072 1.109 .      S
C964  H1073 1.100 .      S
N322  C965  1.449 .      S
N322  H1074 1.042 .      S
C965  C966  1.473 .      S
C965  H1075 1.106 .      S
C965  H1076 1.092 .      S
C968  H1077 1.056 .      S
C969  H1078 1.044 .      S
C970  H1079 1.079 .      S
C971  H1080 1.069 .      S
C3    N2    1.401 .      A
C3    N3    1.397 .      A
N2    C4    1.349 .      A
C4    C5    1.371 1_554  A
C4    C9    1.352 .      A
C5    C4    1.371 1_556  A
C5    C6    1.382 .      A
C6    C7    1.376 .      A
C7    C8    1.355 1_556  A
C8    C7    1.355 1_554  A
C8    C9    1.343 .      A
C9    N3    1.329 .      A
C12   N5    1.382 .      A
C12   N6    1.376 .      A
N5    C13   1.349 .      A
C13   C14   1.377 .      A
C13   C18   1.356 .      A
C14   C15   1.378 .      A
C15   C16   1.381 .      A
C16   C17   1.380 .      A
C17   C18   1.382 .      A
C18   N6    1.354 .      A
C21   N8    1.387 .      A
C21   N9    1.388 .      A
N8    C22   1.325 .      A
C22   C23   1.353 .      A
C22   C27   1.354 .      A
C23   C24   1.355 .      A
C24   C25   1.362 .      A
C25   C26   1.384 .      A
C26   C27   1.358 .      A
C27   N9    1.355 .      A
C30   N11   1.403 .      A
C30   N12   1.366 .      A
N11   C31   1.348 .      A
C31   C32   1.372 .      A
C31   C36   1.366 .      A
C32   C33   1.380 .      A
C33   C34   1.383 .      A
C34   C35   1.379 .      A
C35   C36   1.373 .      A
C36   N12   1.351 .      A
C39   N14   1.377 .      A
C39   N15   1.375 .      A
N14   C40   1.322 .      A
C40   C41   1.342 .      A
C40   C45   1.358 .      A
C41   C42   1.358 .      A
C42   C43   1.367 .      A
C43   C44   1.358 .      A
C44   C45   1.371 .      A
C45   N15   1.348 .      A
C48   N17   1.367 .      A
C48   N18   1.385 .      A
N17   C49   1.353 .      A
C49   C50   1.372 .      A
C49   C54   1.349 .      A
C50   C51   1.379 .      A
C51   C52   1.386 .      A
C52   C53   1.383 .      A
C53   C54   1.369 .      A
C54   N18   1.332 .      A
C57   N20   1.380 .      A
C57   N21   1.380 .      A
N20   C58   1.340 .      A
C58   C59   1.359 .      A
C58   C63   1.358 .      A
C59   C60   1.373 .      A
C60   C61   1.385 .      A
C61   C62   1.364 .      A
C62   C63   1.363 .      A
C63   N21   1.334 .      A
C66   N23   1.379 .      A
C66   N24   1.380 .      A
N23   C67   1.336 .      A
C67   C68   1.345 1_554  A
C67   C72   1.344 .      A
C68   C67   1.345 1_556  A
C68   C69   1.379 .      A
C69   C70   1.371 1_556  A
C70   C69   1.371 1_554  A
C70   C71   1.368 .      A
C71   C72   1.364 .      A
C72   N24   1.328 .      A
C75   N26   1.388 .      A
C75   N27   1.388 .      A
N26   C76   1.335 .      A
C76   C77   1.368 .      A
C76   C81   1.352 .      A
C77   C78   1.378 .      A
C78   C79   1.387 .      A
C79   C80   1.371 .      A
C80   C81   1.355 .      A
C81   N27   1.346 .      A
C84   N29   1.366 .      A
C84   N30   1.374 .      A
N29   C85   1.343 .      A
C85   C86   1.373 .      A
C85   C90   1.357 .      A
C86   C87   1.383 .      A
C87   C88   1.388 .      A
C88   C89   1.383 .      A
C89   C90   1.368 .      A
C90   N30   1.347 .      A
C93   N32   1.382 .      A
C93   N33   1.389 .      A
N32   C94   1.338 .      A
C94   C95   1.374 .      A
C94   C99   1.352 .      A
C95   C96   1.378 .      A
C96   C97   1.376 .      A
C97   C98   1.377 .      A
C98   C99   1.371 .      A
C99   N33   1.351 .      A
C102  N35   1.395 .      A
C102  N36   1.374 .      A
N35   C103  1.330 .      A
C103  C104  1.343 .      A
C103  C108  1.345 .      A
C104  C105  1.374 .      A
C105  C106  1.384 .      A
C106  C107  1.361 .      A
C107  C108  1.348 .      A
C108  N36   1.334 .      A
C111  N38   1.383 .      A
C111  N39   1.375 .      A
N38   C112  1.334 .      A
C112  C113  1.366 .      A
C112  C117  1.357 .      A
C113  C114  1.375 .      A
C114  C115  1.384 .      A
C115  C116  1.373 .      A
C116  C117  1.371 .      A
C117  N39   1.357 .      A
C120  N41   1.384 .      A
C120  N42   1.395 .      A
N41   C121  1.347 .      A
C121  C122  1.371 .      A
C121  C126  1.368 .      A
C122  C123  1.381 .      A
C123  C124  1.383 .      A
C124  C125  1.379 .      A
C125  C126  1.359 .      A
C126  N42   1.351 .      A
C129  N44   1.395 .      A
C129  N45   1.398 .      A
N44   C130  1.330 .      A
C130  C131  1.359 .      A
C130  C135  1.350 .      A
C131  C132  1.364 .      A
C132  C133  1.374 .      A
C133  C134  1.372 .      A
C134  C135  1.365 .      A
C135  N45   1.351 .      A
C138  N47   1.388 .      A
C138  N48   1.394 .      A
N47   C139  1.358 1_655  A
C139  N47   1.358 1_455  A
C139  C140  1.366 .      A
C139  C144  1.361 .      A
C140  C141  1.383 .      A
C141  C142  1.384 .      A
C142  C143  1.382 .      A
C143  C144  1.366 .      A
C144  N48   1.334 1_455  A
N48   C144  1.334 1_655  A
C147  N50   1.396 .      A
C147  N51   1.388 .      A
N50   C148  1.348 .      A
C148  C149  1.369 .      A
C148  C153  1.353 .      A
C149  C150  1.384 .      A
C150  C151  1.383 .      A
C151  C152  1.376 1_455  A
C152  C151  1.376 1_655  A
C152  C153  1.358 1_655  A
C153  C152  1.358 1_455  A
C153  N51   1.335 .      A
C156  N53   1.381 .      A
C156  N54   1.377 .      A
N53   C157  1.350 .      A
C157  C158  1.371 .      A
C157  C162  1.368 .      A
C158  C159  1.384 .      A
C159  C160  1.389 .      A
C160  C161  1.383 .      A
C161  C162  1.374 .      A
C162  N54   1.348 .      A
C165  N56   1.384 .      A
C165  N57   1.384 .      A
N56   C166  1.336 .      A
C166  C167  1.371 .      A
C166  C171  1.357 .      A
C167  C168  1.377 1_554  A
C168  C167  1.377 1_556  A
C168  C169  1.384 .      A
C169  C170  1.385 .      A
C170  C171  1.366 1_556  A
C171  C170  1.366 1_554  A
C171  N57   1.354 .      A
C174  N59   1.404 .      A
C174  N60   1.406 .      A
N59   C175  1.321 .      A
C175  C176  1.330 .      A
C175  C180  1.335 .      A
C176  C177  1.361 .      A
C177  C178  1.375 .      A
C178  C179  1.368 .      A
C179  C180  1.320 .      A
C180  N60   1.323 .      A
C183  N62   1.413 .      A
C183  N63   1.384 .      A
N62   C184  1.360 .      A
C184  C185  1.369 .      A
C184  C189  1.366 .      A
C185  C186  1.387 .      A
C186  C187  1.374 .      A
C187  C188  1.366 .      A
C188  C189  1.371 .      A
C189  N63   1.329 .      A
C192  N65   1.383 1_556  A
C192  N66   1.390 1_556  A
N65   C192  1.383 1_554  A
N65   C193  1.335 .      A
C193  C194  1.369 .      A
C193  C198  1.351 .      A
C194  C195  1.380 .      A
C195  C196  1.381 1_545  A
C196  C195  1.381 1_565  A
C196  C197  1.370 1_565  A
C197  C196  1.370 1_545  A
C197  C198  1.349 .      A
C198  N66   1.340 .      A
N66   C192  1.390 1_554  A
C201  N68   1.384 .      A
C201  N69   1.381 .      A
N68   C202  1.328 .      A
C202  C203  1.360 .      A
C202  C207  1.348 .      A
C203  C204  1.376 .      A
C204  C205  1.375 .      A
C205  C206  1.368 .      A
C206  C207  1.342 .      A
C207  N69   1.335 .      A
C210  N71   1.387 .      A
C210  N72   1.411 .      A
N71   C211  1.334 .      A
C211  C212  1.348 .      A
C211  C216  1.348 .      A
C212  C213  1.368 .      A
C213  C214  1.361 .      A
C214  C215  1.346 .      A
C215  C216  1.348 .      A
C216  N72   1.328 .      A
C219  N74   1.382 .      A
C219  N75   1.394 .      A
N74   C220  1.345 .      A
C220  C221  1.362 .      A
C220  C225  1.367 .      A
C221  C222  1.388 .      A
C222  C223  1.380 .      A
C223  C224  1.366 .      A
C224  C225  1.358 .      A
C225  N75   1.334 .      A
C228  N77   1.387 .      A
C228  N78   1.377 .      A
N77   C229  1.350 .      A
C229  C230  1.365 .      A
C229  C234  1.354 .      A
C230  C231  1.382 .      A
C231  C232  1.387 .      A
C232  C233  1.377 .      A
C233  C234  1.369 .      A
C234  N78   1.339 .      A
C237  N80   1.403 .      A
C237  N81   1.382 .      A
N80   C238  1.332 .      A
C238  C239  1.335 .      A
C238  C243  1.366 .      A
C239  C240  1.363 .      A
C240  C241  1.382 .      A
C241  C242  1.356 .      A
C242  C243  1.355 .      A
C243  N81   1.328 .      A
C246  N83   1.385 .      A
C246  N84   1.381 .      A
N83   C247  1.361 .      A
C247  C248  1.380 1_545  A
C247  C252  1.369 1_545  A
C248  C247  1.380 1_565  A
C248  C249  1.386 .      A
C249  C250  1.391 .      A
C250  C251  1.384 .      A
C251  C252  1.371 .      A
C252  C247  1.369 1_565  A
C252  N84   1.339 1_565  A
N84   C252  1.339 1_545  A
C255  N86   1.372 .      A
C255  N87   1.373 .      A
N86   C256  1.349 .      A
C256  C257  1.373 .      A
C256  C261  1.363 .      A
C257  C258  1.384 .      A
C258  C259  1.387 .      A
C259  C260  1.382 .      A
C260  C261  1.374 .      A
C261  N87   1.345 .      A
C264  N89   1.381 .      A
C264  N90   1.364 .      A
N89   C265  1.351 .      A
C265  C266  1.371 .      A
C265  C270  1.365 .      A
C266  C267  1.371 .      A
C267  C268  1.370 .      A
C268  C269  1.371 .      A
C269  C270  1.377 .      A
C270  N90   1.351 .      A
C273  N92   1.389 .      A
C273  N93   1.388 .      A
N92   C274  1.322 .      A
C274  C275  1.342 .      A
C274  C279  1.351 .      A
C275  C276  1.363 .      A
C276  C277  1.385 .      A
C277  C278  1.361 .      A
C278  C279  1.353 .      A
C279  N93   1.335 .      A
C282  N95   1.377 .      A
C282  N96   1.386 .      A
N95   C283  1.347 .      A
C283  C284  1.365 .      A
C283  C288  1.348 .      A
C284  C285  1.387 .      A
C285  C286  1.390 .      A
C286  C287  1.381 .      A
C287  C288  1.370 .      A
C288  N96   1.334 .      A
C291  N98   1.388 .      A
C291  N99   1.375 .      A
N98   C292  1.351 .      A
C292  C293  1.374 .      A
C292  C297  1.362 .      A
C293  C294  1.385 .      A
C294  C295  1.391 .      A
C295  C296  1.384 .      A
C296  C297  1.371 .      A
C297  N99   1.344 .      A
C300  N101  1.390 .      A
C300  N102  1.382 .      A
N101  C301  1.327 .      A
C301  C302  1.369 .      A
C301  C306  1.346 .      A
C302  C303  1.345 .      A
C303  C304  1.361 .      A
C304  C305  1.374 .      A
C305  C306  1.353 .      A
C306  N102  1.345 .      A
C309  N104  1.388 .      A
C309  N105  1.390 .      A
N104  C310  1.342 .      A
C310  C311  1.369 .      A
C310  C315  1.360 .      A
C311  C312  1.377 .      A
C312  C313  1.383 .      A
C313  C314  1.373 .      A
C314  C315  1.365 .      A
C315  N105  1.345 .      A
C318  N107  1.407 .      A
C318  N108  1.387 .      A
N107  C319  1.338 .      A
C319  C320  1.357 .      A
C319  C324  1.362 .      A
C320  C321  1.378 .      A
C321  C322  1.384 .      A
C322  C323  1.381 .      A
C323  C324  1.370 .      A
C324  N108  1.351 .      A
C327  N110  1.383 1_545  A
C327  N111  1.385 1_545  A
N110  C327  1.383 1_565  A
N110  C328  1.354 .      A
C328  C329  1.373 .      A
C328  C333  1.358 .      A
C329  C330  1.382 .      A
C330  C331  1.385 .      A
C331  C332  1.380 .      A
C332  C333  1.376 .      A
C333  N111  1.339 .      A
N111  C327  1.385 1_565  A
C336  N113  1.386 .      A
C336  N114  1.378 .      A
N113  C337  1.360 1_565  A
C337  N113  1.360 1_545  A
C337  C338  1.371 .      A
C337  C342  1.368 1_545  A
C338  C339  1.381 1_545  A
C339  C338  1.381 1_565  A
C339  C340  1.383 .      A
C340  C341  1.381 .      A
C341  C342  1.373 .      A
C342  C337  1.368 1_565  A
C342  N114  1.338 .      A
C345  N116  1.397 .      A
C345  N117  1.399 .      A
N116  C346  1.343 .      A
C346  C347  1.375 .      A
C346  C351  1.372 .      A
C347  C348  1.381 .      A
C348  C349  1.387 .      A
C349  C350  1.384 .      A
C350  C351  1.375 .      A
C351  N117  1.360 .      A
C354  N119  1.390 .      A
C354  N120  1.382 .      A
N119  C355  1.354 .      A
C355  C356  1.375 .      A
C355  C360  1.369 .      A
C356  C357  1.384 .      A
C357  C358  1.390 .      A
C358  C359  1.385 .      A
C359  C360  1.370 .      A
C360  N120  1.343 .      A
C363  N122  1.384 .      A
C363  N123  1.387 .      A
N122  C364  1.340 .      A
C364  C365  1.364 .      A
C364  C369  1.358 .      A
C365  C366  1.381 .      A
C366  C367  1.387 .      A
C367  C368  1.386 .      A
C368  C369  1.367 .      A
C369  N123  1.344 .      A
C372  N125  1.396 .      A
C372  N126  1.399 .      A
N125  C373  1.359 .      A
C373  C374  1.381 .      A
C373  C378  1.364 .      A
C374  C375  1.378 .      A
C375  C376  1.376 .      A
C376  C377  1.375 .      A
C377  C378  1.365 .      A
C378  N126  1.344 .      A
C381  N128  1.377 .      A
C381  N129  1.378 .      A
N128  C382  1.352 .      A
C382  C383  1.377 .      A
C382  C387  1.366 .      A
C383  C384  1.383 .      A
C384  C385  1.388 .      A
C385  C386  1.383 .      A
C386  C387  1.372 .      A
C387  N129  1.347 .      A
C390  N131  1.400 .      A
C390  N132  1.380 .      A
N131  C391  1.351 .      A
C391  C392  1.364 .      A
C391  C396  1.364 .      A
C392  C393  1.375 1_655  A
C393  C392  1.375 1_455  A
C393  C394  1.381 .      A
C394  C395  1.380 .      A
C395  C396  1.370 1_455  A
C396  C395  1.370 1_655  A
C396  N132  1.339 .      A
C399  N134  1.407 .      A
C399  N135  1.389 1_545  A
N134  C400  1.347 1_545  A
C400  N134  1.347 1_565  A
C400  C401  1.375 1_655  A
C400  C405  1.363 .      A
C401  C400  1.375 1_455  A
C401  C402  1.377 .      A
C402  C403  1.376 .      A
C403  C404  1.376 .      A
C404  C405  1.372 1_455  A
C405  C404  1.372 1_655  A
C405  N135  1.358 .      A
N135  C399  1.389 1_565  A
C408  N137  1.409 .      A
C408  N138  1.377 .      A
N137  C409  1.351 .      A
C409  C410  1.361 .      A
C409  C414  1.360 .      A
C410  C411  1.383 .      A
C411  C412  1.383 1_455  A
C412  C411  1.383 1_655  A
C412  C413  1.379 .      A
C413  C414  1.371 1_655  A
C414  C413  1.371 1_455  A
C414  N138  1.344 .      A
C417  N140  1.393 .      A
C417  N141  1.375 .      A
N140  C418  1.350 .      A
C418  C419  1.374 .      A
C418  C423  1.371 .      A
C419  C420  1.383 .      A
C420  C421  1.386 .      A
C421  C422  1.381 .      A
C422  C423  1.370 .      A
C423  N141  1.353 .      A
C426  N143  1.401 .      A
C426  N144  1.372 .      A
N143  C427  1.353 .      A
C427  C428  1.363 1_565  A
C427  C432  1.359 .      A
C428  C427  1.363 1_545  A
C428  C429  1.388 .      A
C429  C430  1.382 .      A
C430  C431  1.365 1_545  A
C431  C430  1.365 1_565  A
C431  C432  1.367 .      A
C432  N144  1.325 .      A
C435  N146  1.382 .      A
C435  N147  1.376 .      A
N146  C436  1.352 .      A
C436  C437  1.372 .      A
C436  C441  1.363 .      A
C437  C438  1.382 .      A
C438  C439  1.383 .      A
C439  C440  1.379 .      A
C440  C441  1.375 .      A
C441  N147  1.345 .      A
C444  N149  1.379 .      A
C444  N150  1.391 .      A
N149  C445  1.342 .      A
C445  C446  1.378 .      A
C445  C450  1.370 .      A
C446  C447  1.380 .      A
C447  C448  1.382 .      A
C448  C449  1.381 .      A
C449  C450  1.367 .      A
C450  N150  1.353 .      A
C453  N152  1.388 .      A
C453  N153  1.379 .      A
N152  C454  1.351 .      A
C454  C455  1.365 .      A
C454  C459  1.365 .      A
C455  C456  1.386 .      A
C456  C457  1.386 .      A
C457  C458  1.380 .      A
C458  C459  1.371 .      A
C459  N153  1.344 .      A
C462  N155  1.390 .      A
C462  N156  1.408 .      A
N155  C463  1.348 .      A
C463  C464  1.371 .      A
C463  C468  1.362 .      A
C464  C465  1.376 .      A
C465  C466  1.374 .      A
C466  C467  1.374 .      A
C467  C468  1.371 .      A
C468  N156  1.351 .      A
C471  N158  1.393 .      A
C471  N159  1.393 .      A
N158  C472  1.345 1_655  A
C472  N158  1.345 1_455  A
C472  C473  1.369 .      A
C472  C477  1.370 .      A
C473  C474  1.376 .      A
C474  C475  1.385 .      A
C475  C476  1.382 .      A
C476  C477  1.369 .      A
C477  N159  1.350 1_455  A
N159  C477  1.350 1_655  A
C480  N161  1.378 .      A
C480  N162  1.376 .      A
N161  C481  1.346 .      A
C481  C482  1.374 .      A
C481  C486  1.361 .      A
C482  C483  1.379 .      A
C483  C484  1.382 1_455  A
C484  C483  1.382 1_655  A
C484  C485  1.381 .      A
C485  C486  1.377 1_655  A
C486  C485  1.377 1_455  A
C486  N162  1.359 .      A
C489  N164  1.409 .      A
C489  N165  1.369 .      A
N164  C490  1.334 .      A
C490  C491  1.370 .      A
C490  C495  1.358 .      A
C491  C492  1.370 .      A
C492  C493  1.383 .      A
C493  C494  1.371 .      A
C494  C495  1.371 .      A
C495  N165  1.353 .      A
C498  N167  1.381 .      A
C498  N168  1.390 .      A
N167  C499  1.328 .      A
C499  C500  1.360 .      A
C499  C504  1.345 .      A
C500  C501  1.389 .      A
C501  C502  1.359 .      A
C502  C503  1.368 .      A
C503  C504  1.351 .      A
C504  N168  1.338 .      A
C507  N170  1.384 .      A
C507  N171  1.396 .      A
N170  C508  1.340 .      A
C508  C509  1.368 .      A
C508  C513  1.366 .      A
C509  C510  1.382 .      A
C510  C511  1.386 .      A
C511  C512  1.383 .      A
C512  C513  1.369 .      A
C513  N171  1.353 .      A
C516  N173  1.397 .      A
C516  N174  1.383 .      A
N173  C517  1.342 .      A
C517  C518  1.362 .      A
C517  C522  1.335 .      A
C518  C519  1.372 .      A
C519  C520  1.369 .      A
C520  C521  1.374 .      A
C521  C522  1.372 .      A
C522  N174  1.347 .      A
C525  N176  1.371 .      A
C525  N177  1.394 .      A
N176  C526  1.343 .      A
C526  C527  1.378 .      A
C526  C531  1.350 .      A
C527  C528  1.377 .      A
C528  C529  1.376 .      A
C529  C530  1.375 .      A
C530  C531  1.372 .      A
C531  N177  1.353 .      A
C534  N179  1.388 .      A
C534  N180  1.385 .      A
N179  C535  1.349 .      A
C535  C536  1.369 1_554  A
C535  C540  1.366 .      A
C536  C535  1.369 1_556  A
C536  C537  1.382 .      A
C537  C538  1.384 .      A
C538  C539  1.383 1_556  A
C539  C538  1.383 1_554  A
C539  C540  1.369 .      A
C540  N180  1.346 .      A
C543  N182  1.399 .      A
C543  N183  1.377 .      A
N182  C544  1.347 .      A
C544  C545  1.373 .      A
C544  C549  1.371 1_455  A
C545  C546  1.382 1_455  A
C546  C545  1.382 1_655  A
C546  C547  1.388 .      A
C547  C548  1.384 .      A
C548  C549  1.372 .      A
C549  C544  1.371 1_655  A
C549  N183  1.349 1_655  A
N183  C549  1.349 1_455  A
C552  N185  1.387 .      A
C552  N186  1.389 .      A
N185  C553  1.330 1_655  A
C553  N185  1.330 1_455  A
C553  C554  1.378 .      A
C553  C558  1.356 .      A
C554  C555  1.372 .      A
C555  C556  1.379 .      A
C556  C557  1.386 .      A
C557  C558  1.349 .      A
C558  N186  1.357 1_455  A
N186  C558  1.357 1_655  A
C561  N188  1.402 .      A
C561  N189  1.394 .      A
N188  C562  1.343 .      A
C562  C563  1.368 .      A
C562  C567  1.369 .      A
C563  C564  1.377 .      A
C564  C565  1.384 1_455  A
C565  C564  1.384 1_655  A
C565  C566  1.383 .      A
C566  C567  1.364 1_655  A
C567  C566  1.364 1_455  A
C567  N189  1.349 .      A
C570  N191  1.396 .      A
C570  N192  1.382 .      A
N191  C571  1.342 .      A
C571  C572  1.378 .      A
C571  C576  1.365 .      A
C572  C573  1.379 .      A
C573  C574  1.379 .      A
C574  C575  1.381 .      A
C575  C576  1.376 .      A
C576  N192  1.361 .      A
C579  N194  1.381 .      A
C579  N195  1.375 .      A
N194  C580  1.354 .      A
C580  C581  1.375 1_556  A
C580  C585  1.368 1_556  A
C581  C580  1.375 1_554  A
C581  C582  1.378 .      A
C582  C583  1.380 .      A
C583  C584  1.379 .      A
C584  C585  1.375 .      A
C585  C580  1.368 1_554  A
C585  N195  1.351 1_554  A
N195  C585  1.351 1_556  A
C588  N197  1.396 .      A
C588  N198  1.382 .      A
N197  C589  1.356 .      A
C589  C590  1.376 .      A
C589  C594  1.374 .      A
C590  C591  1.382 .      A
C591  C592  1.387 .      A
C592  C593  1.382 .      A
C593  C594  1.372 .      A
C594  N198  1.346 .      A
C597  N200  1.376 .      A
C597  N201  1.394 .      A
N200  C598  1.350 .      A
C598  C599  1.364 .      A
C598  C603  1.342 .      A
C599  C600  1.381 .      A
C600  C601  1.384 .      A
C601  C602  1.380 .      A
C602  C603  1.373 .      A
C603  N201  1.336 .      A
C606  N203  1.374 .      A
C606  N204  1.374 .      A
N203  C607  1.344 .      A
C607  C608  1.372 .      A
C607  C612  1.367 .      A
C608  C609  1.383 .      A
C609  C610  1.389 .      A
C610  C611  1.384 .      A
C611  C612  1.374 .      A
C612  N204  1.352 .      A
C615  N206  1.363 .      A
C615  N207  1.382 .      A
N206  C616  1.340 .      A
C616  C617  1.376 .      A
C616  C621  1.344 .      A
C617  C618  1.379 .      A
C618  C619  1.386 .      A
C619  C620  1.383 .      A
C620  C621  1.370 .      A
C621  N207  1.349 .      A
C624  N209  1.388 .      A
C624  N210  1.385 .      A
N209  C625  1.349 .      A
C625  C626  1.369 .      A
C625  C630  1.369 .      A
C626  C627  1.381 .      A
C627  C628  1.385 .      A
C628  C629  1.382 .      A
C629  C630  1.371 .      A
C630  N210  1.347 .      A
C633  N212  1.358 .      A
C633  N213  1.370 .      A
N212  C634  1.348 .      A
C634  C635  1.372 .      A
C634  C639  1.356 .      A
C635  C636  1.384 .      A
C636  C637  1.390 .      A
C637  C638  1.384 .      A
C638  C639  1.372 .      A
C639  N213  1.346 .      A
C642  N215  1.382 .      A
C642  N216  1.390 .      A
N215  C643  1.322 .      A
C643  C644  1.356 1_565  A
C643  C648  1.341 .      A
C644  C643  1.356 1_545  A
C644  C645  1.375 .      A
C645  C646  1.383 .      A
C646  C647  1.367 1_545  A
C647  C646  1.367 1_565  A
C647  C648  1.351 .      A
C648  N216  1.347 .      A
C651  N218  1.356 .      A
C651  N219  1.380 .      A
N218  C652  1.340 .      A
C652  C653  1.374 .      A
C652  C657  1.363 .      A
C653  C654  1.381 .      A
C654  C655  1.386 .      A
C655  C656  1.384 .      A
C656  C657  1.375 .      A
C657  N219  1.360 .      A
C660  N221  1.391 .      A
C660  N222  1.384 .      A
N221  C661  1.353 .      A
C661  C662  1.373 .      A
C661  C666  1.372 .      A
C662  C663  1.386 .      A
C663  C664  1.391 .      A
C664  C665  1.383 .      A
C665  C666  1.367 .      A
C666  N222  1.344 .      A
C669  N224  1.386 .      A
C669  N225  1.394 .      A
N224  C670  1.320 .      A
C670  C671  1.348 .      A
C670  C675  1.361 .      A
C671  C672  1.346 .      A
C672  C673  1.386 .      A
C673  C674  1.383 .      A
C674  C675  1.361 .      A
C675  N225  1.353 .      A
C678  N227  1.387 .      A
C678  N228  1.389 .      A
N227  C679  1.347 .      A
C679  C680  1.359 .      A
C679  C684  1.357 .      A
C680  C681  1.377 .      A
C681  C682  1.372 .      A
C682  C683  1.363 .      A
C683  C684  1.360 .      A
C684  N228  1.338 .      A
C687  N230  1.388 .      A
C687  N231  1.404 .      A
N230  C688  1.342 .      A
C688  C689  1.365 .      A
C688  C693  1.366 .      A
C689  C690  1.379 .      A
C690  C691  1.383 .      A
C691  C692  1.382 .      A
C692  C693  1.368 .      A
C693  N231  1.357 .      A
C696  N233  1.373 .      A
C696  N234  1.381 .      A
N233  C697  1.343 .      A
C697  C698  1.372 .      A
C697  C702  1.364 .      A
C698  C699  1.379 .      A
C699  C700  1.386 .      A
C700  C701  1.386 .      A
C701  C702  1.369 .      A
C702  N234  1.353 .      A
C705  N236  1.372 1_545  A
C705  N237  1.394 1_545  A
N236  C705  1.372 1_565  A
N236  C706  1.315 .      A
C706  C707  1.321 .      A
C706  C711  1.322 .      A
C707  C708  1.353 .      A
C708  C709  1.365 .      A
C709  C710  1.372 .      A
C710  C711  1.353 .      A
C711  N237  1.341 .      A
N237  C705  1.394 1_565  A
C714  N239  1.372 .      A
C714  N240  1.377 .      A
N239  C715  1.332 .      A
C715  C716  1.356 .      A
C715  C720  1.349 .      A
C716  C717  1.381 .      A
C717  C718  1.380 .      A
C718  C719  1.378 .      A
C719  C720  1.363 .      A
C720  N240  1.351 .      A
C723  N242  1.373 .      A
C723  N243  1.381 .      A
N242  C724  1.349 .      A
C724  C725  1.367 .      A
C724  C729  1.369 .      A
C725  C726  1.384 .      A
C726  C727  1.383 .      A
C727  C728  1.379 .      A
C728  C729  1.369 .      A
C729  N243  1.350 .      A
C732  N245  1.389 .      A
C732  N246  1.374 .      A
N245  C733  1.373 .      A
C733  C734  1.375 .      A
C733  C738  1.362 .      A
C734  C735  1.380 .      A
C735  C736  1.378 .      A
C736  C737  1.375 .      A
C737  C738  1.377 .      A
C738  N246  1.336 .      A
C741  N248  1.388 .      A
C741  N249  1.375 .      A
N248  C742  1.341 .      A
C742  C743  1.354 .      A
C742  C747  1.361 .      A
C743  C744  1.370 .      A
C744  C745  1.384 .      A
C745  C746  1.360 .      A
C746  C747  1.361 .      A
C747  N249  1.334 .      A
C750  N251  1.388 .      A
C750  N252  1.384 .      A
N251  C751  1.343 .      A
C751  C752  1.374 .      A
C751  C756  1.347 .      A
C752  C753  1.378 .      A
C753  C754  1.371 .      A
C754  C755  1.363 .      A
C755  C756  1.364 .      A
C756  N252  1.342 .      A
C759  N254  1.371 .      A
C759  N255  1.372 .      A
N254  C760  1.353 .      A
C760  C761  1.370 .      A
C760  C765  1.374 .      A
C761  C762  1.382 .      A
C762  C763  1.387 .      A
C763  C764  1.384 .      A
C764  C765  1.366 .      A
C765  N255  1.342 .      A
C768  N257  1.403 .      A
C768  N258  1.378 .      A
N257  C769  1.348 .      A
C769  C770  1.378 .      A
C769  C774  1.365 .      A
C770  C771  1.379 .      A
C771  C772  1.382 .      A
C772  C773  1.380 .      A
C773  C774  1.374 .      A
C774  N258  1.354 .      A
C777  N260  1.365 .      A
C777  N261  1.371 .      A
N260  C778  1.336 .      A
C778  C779  1.372 .      A
C778  C783  1.361 .      A
C779  C780  1.379 .      A
C780  C781  1.386 .      A
C781  C782  1.384 .      A
C782  C783  1.372 .      A
C783  N261  1.358 .      A
C786  N263  1.391 .      A
C786  N264  1.400 .      A
N263  C787  1.350 .      A
C787  C788  1.368 .      A
C787  C792  1.366 .      A
C788  C789  1.384 .      A
C789  C790  1.388 .      A
C790  C791  1.383 .      A
C791  C792  1.376 .      A
C792  N264  1.342 .      A
C795  N266  1.392 .      A
C795  N267  1.381 .      A
N266  C796  1.347 .      A
C796  C797  1.366 1_554  A
C796  C801  1.355 1_455  A
C797  C796  1.366 1_556  A
C797  C798  1.383 1_455  A
C798  C797  1.383 1_655  A
C798  C799  1.388 .      A
C799  C800  1.383 1_556  A
C800  C799  1.383 1_554  A
C800  C801  1.360 .      A
C801  C796  1.355 1_655  A
C801  N267  1.341 1_655  A
N267  C801  1.341 1_455  A
C804  N269  1.379 .      A
C804  N270  1.393 .      A
N269  C805  1.343 .      A
C805  C806  1.358 .      A
C805  C810  1.351 .      A
C806  C807  1.376 .      A
C807  C808  1.373 .      A
C808  C809  1.359 .      A
C809  C810  1.356 .      A
C810  N270  1.325 .      A
C813  N272  1.361 .      A
C813  N273  1.383 .      A
N272  C814  1.335 .      A
C814  C815  1.379 .      A
C814  C819  1.350 .      A
C815  C816  1.378 .      A
C816  C817  1.385 .      A
C817  C818  1.385 .      A
C818  C819  1.377 .      A
C819  N273  1.358 .      A
C822  N275  1.375 .      A
C822  N276  1.400 .      A
N275  C823  1.355 .      A
C823  C824  1.375 .      A
C823  C828  1.351 .      A
C824  C825  1.382 .      A
C825  C826  1.377 .      A
C826  C827  1.371 .      A
C827  C828  1.357 .      A
C828  N276  1.331 .      A
C831  N278  1.367 .      A
C831  N279  1.403 .      A
N278  C832  1.314 .      A
C832  C833  1.337 .      A
C832  C837  1.348 .      A
C833  C834  1.361 .      A
C834  C835  1.388 .      A
C835  C836  1.366 .      A
C836  C837  1.332 .      A
C837  N279  1.337 .      A
C840  N281  1.393 .      A
C840  N282  1.389 .      A
N281  C841  1.340 .      A
C841  C842  1.351 .      A
C841  C846  1.349 .      A
C842  C843  1.385 .      A
C843  C844  1.381 .      A
C844  C845  1.372 .      A
C845  C846  1.366 .      A
C846  N282  1.337 .      A
C849  N284  1.385 .      A
C849  N285  1.397 .      A
N284  C850  1.337 .      A
C850  C851  1.370 .      A
C850  C855  1.366 .      A
C851  C852  1.364 .      A
C852  C853  1.370 .      A
C853  C854  1.374 .      A
C854  C855  1.389 .      A
C855  N285  1.367 .      A
C858  N287  1.383 .      A
C858  N288  1.406 .      A
N287  C859  1.341 .      A
C859  C860  1.363 .      A
C859  C864  1.348 .      A
C860  C861  1.362 .      A
C861  C862  1.379 .      A
C862  C863  1.372 .      A
C863  C864  1.355 .      A
C864  N288  1.339 .      A
C867  N290  1.385 .      A
C867  N291  1.376 .      A
N290  C868  1.331 .      A
C868  C869  1.359 1_565  A
C868  C873  1.350 .      A
C869  C868  1.359 1_545  A
C869  C870  1.365 .      A
C870  C871  1.369 .      A
C871  C872  1.378 1_545  A
C872  C871  1.378 1_565  A
C872  C873  1.385 .      A
C873  N291  1.355 .      A
C876  N293  1.362 .      A
C876  N294  1.402 .      A
N293  C877  1.366 .      A
C877  C878  1.381 .      A
C877  C882  1.366 .      A
C878  C879  1.381 .      A
C879  C880  1.378 .      A
C880  C881  1.375 .      A
C881  C882  1.373 .      A
C882  N294  1.342 .      A
C885  N296  1.370 .      A
C885  N297  1.386 .      A
N296  C886  1.340 .      A
C886  C887  1.369 .      A
C886  C891  1.354 .      A
C887  C888  1.378 1_545  A
C888  C887  1.378 1_565  A
C888  C889  1.379 .      A
C889  C890  1.379 .      A
C890  C891  1.383 1_565  A
C891  C890  1.383 1_545  A
C891  N297  1.365 .      A
C894  N299  1.378 1_556  A
C894  N300  1.391 .      A
N299  C894  1.378 1_554  A
N299  C895  1.349 .      A
C895  C896  1.370 .      A
C895  C900  1.339 .      A
C896  C897  1.361 .      A
C897  C898  1.357 .      A
C898  C899  1.368 .      A
C899  C900  1.365 .      A
C900  N300  1.345 1_554  A
N300  C900  1.345 1_556  A
C903  N302  1.382 .      A
C903  N303  1.364 .      A
N302  C904  1.350 .      A
C904  C905  1.368 1_554  A
C904  C909  1.354 .      A
C905  C904  1.368 1_556  A
C905  C906  1.383 .      A
C906  C907  1.386 1_556  A
C907  C906  1.386 1_554  A
C907  C908  1.382 .      A
C908  C909  1.377 .      A
C909  N303  1.344 .      A
C912  N305  1.396 .      A
C912  N306  1.383 .      A
N305  C913  1.332 .      A
C913  C914  1.358 .      A
C913  C918  1.348 .      A
C914  C915  1.368 .      A
C915  C916  1.380 .      A
C916  C917  1.377 .      A
C917  C918  1.370 .      A
C918  N306  1.341 .      A
C921  N308  1.388 .      A
C921  N309  1.397 .      A
N308  C922  1.347 .      A
C922  C923  1.370 .      A
C922  C927  1.367 .      A
C923  C924  1.383 .      A
C924  C925  1.389 .      A
C925  C926  1.383 .      A
C926  C927  1.372 .      A
C927  N309  1.346 .      A
C930  N311  1.385 .      A
C930  N312  1.393 .      A
N311  C931  1.340 .      A
C931  C932  1.369 .      A
C931  C936  1.355 .      A
C932  C933  1.374 .      A
C933  C934  1.374 .      A
C934  C935  1.374 .      A
C935  C936  1.358 .      A
C936  N312  1.341 .      A
C939  N314  1.372 .      A
C939  N315  1.365 .      A
N314  C940  1.344 .      A
C940  C941  1.370 .      A
C940  C945  1.360 .      A
C941  C942  1.382 .      A
C942  C943  1.387 .      A
C943  C944  1.383 .      A
C944  C945  1.377 .      A
C945  N315  1.350 .      A
C948  N317  1.387 .      A
C948  N318  1.361 1_556  A
N317  C949  1.361 1_556  A
C949  N317  1.361 1_554  A
C949  C950  1.370 .      A
C949  C954  1.366 .      A
C950  C951  1.382 .      A
C951  C952  1.384 .      A
C952  C953  1.379 .      A
C953  C954  1.375 .      A
C954  N318  1.338 .      A
N318  C948  1.361 1_554  A
C957  N320  1.377 .      A
C957  N321  1.387 .      A
N320  C958  1.333 .      A
C958  C959  1.359 .      A
C958  C963  1.360 .      A
C959  C960  1.373 .      A
C960  C961  1.388 .      A
C961  C962  1.372 .      A
C962  C963  1.349 .      A
C963  N321  1.331 .      A
C966  N323  1.381 .      A
C966  N324  1.381 .      A
N323  C967  1.356 .      A
C967  C968  1.355 .      A
C967  C972  1.352 .      A
C968  C969  1.362 .      A
C969  C970  1.370 1_554  A
C970  C969  1.370 1_556  A
C970  C971  1.358 .      A
C971  C972  1.362 1_556  A
C972  C971  1.362 1_554  A
C972  N324  1.317 .      A
