data_str_m1_o12004_SOS
_audit_creation_date              2015-10-01T06:33:23-0700
_symmetry_space_group_name_H-M    P1
_symmetry_Int_Tables_number       1
_space_group_crystal_system       triclinic
loop_
_symmetry_equiv_pos_as_xyz
  x,y,z
_cell_length_a                    15.2095634
_cell_length_b                    25.2884145
_cell_length_c                    38.3368874
_cell_angle_alpha                 90.6514189
_cell_angle_beta                  91.5632111
_cell_angle_gamma                 107.374900
_cell_volume                      14064.3607802

loop_
_atom_site_label
_atom_site_type_symbol
_atom_site_description
_atom_site_fract_x
_atom_site_fract_y
_atom_site_fract_z
_atom_type_partial_charge
Zn1   Zn    Zn3+2 0.795796 0.475220 0.312369 0.000000
Zn2   Zn    Zn3+2 0.791206 0.451197 0.481403 0.000000
Zn3   Zn    Zn3+2 0.082256 0.461658 0.195086 0.000000
Zn4   Zn    Zn3+2 0.750117 0.688067 0.256251 0.000000
Zn5   Zn    Zn3+2 0.464123 0.517955 0.253985 0.000000
Zn6   Zn    Zn3+2 0.369305 0.971434 0.813773 0.000000
Zn7   Zn    Zn3+2 0.077667 0.941745 0.693030 0.000000
Zn8   Zn    Zn3+2 0.737456 0.005129 0.747462 0.000000
Zn9   Zn    Zn3+2 0.360380 0.990464 0.984505 0.000000
Zn10  Zn    Zn3+2 0.555918 0.183252 0.752716 0.000000
Zn11  Zn    Zn3+2 0.122798 0.712042 0.603438 0.000000
Zn12  Zn    Zn3+2 0.945096 0.234504 0.806930 0.000000
Zn13  Zn    Zn3+2 0.740900 0.034730 0.035516 0.000000
Zn14  Zn    Zn3+2 0.203568 0.221572 0.679653 0.000000
Zn15  Zn    Zn3+2 0.071393 0.967613 0.101138 0.000000
Zn16  Zn    Zn3+2 0.551242 0.211820 0.051895 0.000000
Zn17  Zn    Zn3+2 0.423201 0.716254 0.483121 0.000000
Zn18  Zn    Zn3+2 0.900634 0.245663 0.975835 0.000000
Zn19  Zn    Zn3+2 0.748534 0.665715 0.540744 0.000000
Zn20  Zn    Zn3+2 0.099559 0.432976 0.588630 0.000000
Zn21  Zn    Zn3+2 0.120266 0.744951 0.194951 0.000000
Zn22  Zn    Zn3+2 0.172981 0.247683 0.101005 0.000000
Zn23  Zn    Zn3+2 0.443193 0.486206 0.521491 0.000000
Zn24  Zn    Zn3+2 0.420113 0.729993 0.314208 0.000000
C1    C     C_3   0.618793 0.312249 0.364872 0.000000
N1    N     N_3   0.678046 0.347827 0.391591 0.000000
C2    C     C_3   0.673844 0.404135 0.387287 0.000000
C3    C     C_R   0.766663 0.443134 0.394181 0.000000
N2    N     N_R   0.814328 0.444127 0.426080 0.000000
C4    C     C_R   0.900517 0.452307 0.415112 0.000000
C5    C     C_R   0.974475 0.447732 0.434425 0.000000
C6    C     C_R   0.053262 0.449201 0.416880 0.000000
C7    C     C_R   0.059518 0.460634 0.381652 0.000000
C8    C     C_R   0.986279 0.469573 0.363093 0.000000
C9    C     C_R   0.905853 0.461881 0.380046 0.000000
N3    N     N_R   0.822542 0.457861 0.365653 0.000000
H1    H     H_    0.611084 0.268343 0.370915 0.000000
H2    H     H_    0.549757 0.318631 0.364247 0.000000
H3    H     H_    0.650296 0.321162 0.338994 0.000000
H4    H     H_    0.745312 0.347645 0.387047 0.000000
H5    H     H_    0.656717 0.408136 0.359836 0.000000
H6    H     H_    0.621603 0.413680 0.403440 0.000000
H7    H     H_    0.968737 0.439241 0.461700 0.000000
H8    H     H_    0.110376 0.440649 0.430318 0.000000
H9    H     H_    0.121012 0.460273 0.368681 0.000000
H10   H     H_    0.989726 0.478442 0.335760 0.000000
C10   C     C_3   0.797498 0.425790 0.152539 0.000000
N4    N     N_3   0.799535 0.422348 0.190389 0.000000
C11   C     C_3   0.875417 0.468328 0.204338 0.000000
C12   C     C_R   0.911474 0.453121 0.238161 0.000000
N5    N     N_R   0.872593 0.443907 0.271736 0.000000
C13   C     C_R   0.914454 0.407352 0.284092 0.000000
C14   C     C_R   0.894894 0.377023 0.313917 0.000000
C15   C     C_R   0.951205 0.345162 0.323361 0.000000
C16   C     C_R   0.025608 0.344623 0.303271 0.000000
C17   C     C_R   0.041559 0.373355 0.272403 0.000000
C18   C     C_R   0.981421 0.401893 0.262354 0.000000
N6    N     N_R   0.982341 0.431502 0.233272 0.000000
H11   H     H_    0.854114 0.412057 0.141666 0.000000
H12   H     H_    0.730670 0.398399 0.141900 0.000000
H13   H     H_    0.804938 0.468936 0.144680 0.000000
H14   H     H_    0.813593 0.385551 0.196597 0.000000
H15   H     H_    0.932307 0.472661 0.186289 0.000000
H16   H     H_    0.863651 0.508734 0.202827 0.000000
H17   H     H_    0.836602 0.377026 0.329232 0.000000
H18   H     H_    0.938108 0.321235 0.346874 0.000000
H19   H     H_    0.070592 0.320835 0.311530 0.000000
H20   H     H_    0.099441 0.372911 0.257042 0.000000
C19   C     C_3   0.384948 0.396998 0.151314 0.000000
N7    N     N_3   0.307788 0.401063 0.171798 0.000000
C20   C     C_3   0.329387 0.457516 0.185158 0.000000
C21   C     C_R   0.282464 0.460346 0.218009 0.000000
N8    N     N_R   0.197495 0.468364 0.222068 0.000000
C22   C     C_R   0.197909 0.479796 0.256282 0.000000
C23   C     C_R   0.138709 0.501761 0.272973 0.000000
C24   C     C_R   0.159701 0.521291 0.306419 0.000000
C25   C     C_R   0.237057 0.515985 0.323298 0.000000
C26   C     C_R   0.297907 0.494706 0.306040 0.000000
C27   C     C_R   0.277217 0.478203 0.271912 0.000000
N9    N     N_R   0.335170 0.471285 0.247770 0.000000
H21   H     H_    0.448710 0.404856 0.167377 0.000000
H22   H     H_    0.368923 0.355181 0.139558 0.000000
H23   H     H_    0.398951 0.427914 0.130558 0.000000
H24   H     H_    0.301851 0.374673 0.192908 0.000000
H25   H     H_    0.402752 0.471465 0.193139 0.000000
H26   H     H_    0.319439 0.486964 0.165816 0.000000
H27   H     H_    0.081119 0.508198 0.259977 0.000000
H28   H     H_    0.116799 0.542132 0.319121 0.000000
H29   H     H_    0.248553 0.530249 0.349712 0.000000
H30   H     H_    0.361585 0.493831 0.318191 0.000000
C28   C     C_3   0.687404 0.490364 0.215146 0.000000
N10   N     N_3   0.704364 0.539761 0.236804 0.000000
C29   C     C_3   0.798644 0.560120 0.248138 0.000000
C30   C     C_R   0.802656 0.585773 0.281992 0.000000
N11   N     N_R   0.798515 0.638438 0.288246 0.000000
C31   C     C_R   0.825009 0.646322 0.322042 0.000000
C32   C     C_R   0.835346 0.692851 0.342099 0.000000
C33   C     C_R   0.841708 0.687720 0.377538 0.000000
C34   C     C_R   0.833806 0.636353 0.390872 0.000000
C35   C     C_R   0.843416 0.593336 0.370597 0.000000
C36   C     C_R   0.838145 0.599224 0.335388 0.000000
N12   N     N_R   0.822184 0.559319 0.310436 0.000000
H31   H     H_    0.614203 0.474058 0.207780 0.000000
H32   H     H_    0.722496 0.500156 0.190483 0.000000
H33   H     H_    0.711448 0.459733 0.228856 0.000000
H34   H     H_    0.664978 0.534755 0.258467 0.000000
H35   H     H_    0.825302 0.525585 0.253557 0.000000
H36   H     H_    0.841119 0.589558 0.229808 0.000000
H37   H     H_    0.828535 0.730316 0.331026 0.000000
H38   H     H_    0.840383 0.721083 0.394993 0.000000
H39   H     H_    0.813747 0.629207 0.417096 0.000000
H40   H     H_    0.839016 0.554332 0.382071 0.000000
C37   C     C_3   0.517215 0.701694 0.165896 0.000000
N13   N     N_3   0.478098 0.657712 0.190142 0.000000
C38   C     C_3   0.536358 0.665565 0.222186 0.000000
C39   C     C_R   0.577044 0.619433 0.229550 0.000000
N14   N     N_R   0.532634 0.568132 0.215766 0.000000
C40   C     C_R   0.585223 0.565109 0.188437 0.000000
C41   C     C_R   0.564183 0.531378 0.159071 0.000000
C42   C     C_R   0.632257 0.535559 0.135175 0.000000
C43   C     C_R   0.720933 0.569621 0.142449 0.000000
C44   C     C_R   0.740037 0.602474 0.172469 0.000000
C45   C     C_R   0.667408 0.605405 0.192299 0.000000
N15   N     N_R   0.666616 0.635793 0.221684 0.000000
H41   H     H_    0.466141 0.699708 0.144370 0.000000
H42   H     H_    0.534831 0.743055 0.178977 0.000000
H43   H     H_    0.578062 0.694603 0.153881 0.000000
H44   H     H_    0.473820 0.621469 0.176317 0.000000
H45   H     H_    0.596623 0.701025 0.217749 0.000000
H46   H     H_    0.502433 0.677099 0.244716 0.000000
H47   H     H_    0.496198 0.505190 0.153156 0.000000
H48   H     H_    0.617386 0.510142 0.111620 0.000000
H49   H     H_    0.775865 0.568979 0.125298 0.000000
H50   H     H_    0.810179 0.623539 0.179891 0.000000
C46   C     C_3   0.411118 0.404219 0.364701 0.000000
N16   N     N_3   0.489563 0.407970 0.343193 0.000000
C47   C     C_3   0.542414 0.466389 0.340832 0.000000
C48   C     C_R   0.592753 0.476798 0.307369 0.000000
N17   N     N_R   0.657076 0.448733 0.303337 0.000000
C49   C     C_R   0.619542 0.412125 0.277785 0.000000
C50   C     C_R   0.653573 0.372168 0.264123 0.000000
C51   C     C_R   0.611553 0.345717 0.233680 0.000000
C52   C     C_R   0.535272 0.357987 0.219144 0.000000
C53   C     C_R   0.498706 0.395521 0.235115 0.000000
C54   C     C_R   0.546169 0.424507 0.263169 0.000000
N18   N     N_R   0.534288 0.469780 0.278720 0.000000
H51   H     H_    0.379011 0.360461 0.371422 0.000000
H52   H     H_    0.433609 0.430582 0.388450 0.000000
H53   H     H_    0.358374 0.417362 0.349732 0.000000
H54   H     H_    0.461165 0.391894 0.318943 0.000000
H55   H     H_    0.494196 0.490836 0.341391 0.000000
H56   H     H_    0.590526 0.477501 0.363597 0.000000
H57   H     H_    0.713343 0.363609 0.275570 0.000000
H58   H     H_    0.640519 0.317029 0.220684 0.000000
H59   H     H_    0.507199 0.341106 0.194142 0.000000
H60   H     H_    0.439076 0.404790 0.224801 0.000000
C55   C     C_3   0.090958 0.943811 0.865954 0.000000
N19   N     N_3   0.148852 0.937324 0.837687 0.000000
C56   C     C_3   0.125675 0.964968 0.807030 0.000000
C57   C     C_R   0.178443 0.955703 0.775970 0.000000
N20   N     N_R   0.243216 0.931289 0.787358 0.000000
C58   C     C_R   0.201430 0.878279 0.777637 0.000000
C59   C     C_R   0.218860 0.831621 0.790091 0.000000
C60   C     C_R   0.161686 0.780810 0.777888 0.000000
C61   C     C_R   0.089119 0.777836 0.754186 0.000000
C62   C     C_R   0.071532 0.825566 0.742617 0.000000
C63   C     C_R   0.127979 0.875360 0.755216 0.000000
N21   N     N_R   0.123523 0.926643 0.747884 0.000000
H61   H     H_    0.120203 0.934094 0.890997 0.000000
H62   H     H_    0.086309 0.986400 0.867285 0.000000
H63   H     H_    0.020858 0.914397 0.861745 0.000000
H64   H     H_    0.126616 0.894656 0.832842 0.000000
H65   H     H_    0.051909 0.946567 0.803032 0.000000
H66   H     H_    0.140686 0.009078 0.812600 0.000000
H67   H     H_    0.274679 0.834359 0.808749 0.000000
H68   H     H_    0.173438 0.743065 0.786898 0.000000
H69   H     H_    0.045450 0.737798 0.744970 0.000000
H70   H     H_    0.014933 0.823951 0.724754 0.000000
C64   C     C_3   0.466746 0.958005 0.674101 0.000000
N22   N     N_3   0.514496 0.981641 0.706669 0.000000
C65   C     C_3   0.488738 0.940771 0.733392 0.000000
C66   C     C_R   0.535259 0.959766 0.767878 0.000000
N23   N     N_R   0.622614 0.954272 0.771792 0.000000
C67   C     C_R   0.614698 0.921644 0.799587 0.000000
C68   C     C_R   0.671436 0.890645 0.809049 0.000000
C69   C     C_R   0.643161 0.852587 0.835155 0.000000
C70   C     C_R   0.557524 0.844284 0.849629 0.000000
C71   C     C_R   0.500161 0.874769 0.838725 0.000000
C72   C     C_R   0.530910 0.914326 0.814289 0.000000
N24   N     N_R   0.481138 0.942200 0.796644 0.000000
H71   H     H_    0.499214 0.984107 0.652162 0.000000
H72   H     H_    0.471270 0.915552 0.669514 0.000000
H73   H     H_    0.393513 0.956976 0.674870 0.000000
H74   H     H_    0.488647 0.013542 0.714112 0.000000
H75   H     H_    0.415677 0.931313 0.737041 0.000000
H76   H     H_    0.505338 0.902637 0.725431 0.000000
H77   H     H_    0.733406 0.893264 0.795143 0.000000
H78   H     H_    0.685652 0.827024 0.842958 0.000000
H79   H     H_    0.533742 0.811945 0.868397 0.000000
H80   H     H_    0.430254 0.863641 0.846228 0.000000
C73   C     C_3   0.374218 0.823673 0.941998 0.000000
N25   N     N_3   0.413188 0.876494 0.925293 0.000000
C74   C     C_3   0.339814 0.888930 0.905059 0.000000
C75   C     C_R   0.356219 0.949930 0.901757 0.000000
N26   N     N_R   0.335280 0.978356 0.930054 0.000000
C76   C     C_R   0.296988 0.013239 0.914328 0.000000
C77   C     C_R   0.252236 0.046242 0.930089 0.000000
C78   C     C_R   0.218138 0.079814 0.908976 0.000000
C79   C     C_R   0.227439 0.078751 0.873287 0.000000
C80   C     C_R   0.272407 0.044747 0.858175 0.000000
C81   C     C_R   0.306291 0.011817 0.879212 0.000000
N27   N     N_R   0.347288 0.973665 0.869426 0.000000
H81   H     H_    0.430738 0.810060 0.954059 0.000000
H82   H     H_    0.327116 0.827978 0.962669 0.000000
H83   H     H_    0.336220 0.792071 0.922278 0.000000
H84   H     H_    0.460453 0.870135 0.907876 0.000000
H85   H     H_    0.327787 0.867878 0.879377 0.000000
H86   H     H_    0.274491 0.872297 0.918711 0.000000
H87   H     H_    0.243095 0.045557 0.957904 0.000000
H88   H     H_    0.182852 0.106619 0.919841 0.000000
H89   H     H_    0.198644 0.104515 0.857074 0.000000
H90   H     H_    0.279290 0.044106 0.830590 0.000000
C82   C     C_3   0.431404 0.215484 0.844185 0.000000
N28   N     N_3   0.390460 0.156004 0.847786 0.000000
C83   C     C_3   0.458620 0.126696 0.842106 0.000000
C84   C     C_R   0.449560 0.106252 0.806311 0.000000
N29   N     N_R   0.408412 0.052075 0.795560 0.000000
C85   C     C_R   0.384210 0.060048 0.762827 0.000000
C86   C     C_R   0.329990 0.021909 0.741270 0.000000
C87   C     C_R   0.259548 0.035675 0.725436 0.000000
C88   C     C_R   0.243669 0.084511 0.736207 0.000000
C89   C     C_R   0.312493 0.124449 0.752806 0.000000
C90   C     C_R   0.393806 0.113798 0.757794 0.000000
N30   N     N_R   0.453260 0.143503 0.781156 0.000000
H91   H     H_    0.461466 0.225717 0.818278 0.000000
H92   H     H_    0.377695 0.236133 0.847192 0.000000
H93   H     H_    0.483638 0.232408 0.864904 0.000000
H94   H     H_    0.339754 0.143988 0.827976 0.000000
H95   H     H_    0.527367 0.156398 0.844707 0.000000
H96   H     H_    0.451501 0.092334 0.860319 0.000000
H97   H     H_    0.333034 0.981119 0.741218 0.000000
H98   H     H_    0.211724 0.003557 0.710642 0.000000
H99   H     H_    0.181923 0.094582 0.731333 0.000000
H100  H     H_    0.303026 0.162985 0.761491 0.000000
C91   C     C_3   0.935827 0.090160 0.625637 0.000000
N31   N     N_3   0.940958 0.053246 0.653908 0.000000
C92   C     C_3   0.002399 0.084742 0.681814 0.000000
C93   C     C_R   0.098709 0.082317 0.677877 0.000000
N32   N     N_R   0.117306 0.031078 0.672118 0.000000
C94   C     C_R   0.172535 0.044885 0.644803 0.000000
C95   C     C_R   0.198027 0.008407 0.623640 0.000000
C96   C     C_R   0.245931 0.028372 0.594047 0.000000
C97   C     C_R   0.269641 0.084413 0.586839 0.000000
C98   C     C_R   0.245598 0.121297 0.608874 0.000000
C99   C     C_R   0.194976 0.100998 0.637999 0.000000
N33   N     N_R   0.158667 0.128450 0.662078 0.000000
H101  H     H_    0.897642 0.065202 0.603001 0.000000
H102  H     H_    0.898238 0.119339 0.633913 0.000000
H103  H     H_    0.005978 0.113254 0.617506 0.000000
H104  H     H_    0.967572 0.023087 0.643727 0.000000
H105  H     H_    0.005451 0.128855 0.679941 0.000000
H106  H     H_    0.973005 0.070521 0.706796 0.000000
H107  H     H_    0.179419 0.965267 0.629780 0.000000
H108  H     H_    0.266498 0.000428 0.576774 0.000000
H109  H     H_    0.308680 0.099660 0.563981 0.000000
H110  H     H_    0.268296 0.164687 0.602850 0.000000
C100  C     C_3   0.040519 0.911058 0.557568 0.000000
N34   N     N_3   0.029937 0.882470 0.590587 0.000000
C101  C     C_3   0.107765 0.861466 0.596089 0.000000
C102  C     C_R   0.112009 0.838660 0.631696 0.000000
N35   N     N_R   0.125344 0.872449 0.662461 0.000000
C103  C     C_R   0.179688 0.846869 0.680611 0.000000
C104  C     C_R   0.248137 0.869589 0.704850 0.000000
C105  C     C_R   0.294809 0.835473 0.720298 0.000000
C106  C     C_R   0.278320 0.781263 0.709509 0.000000
C107  C     C_R   0.222173 0.762498 0.680832 0.000000
C108  C     C_R   0.179975 0.797330 0.665831 0.000000
N36   N     N_R   0.140062 0.789923 0.634440 0.000000
H111  H     H_    0.976245 0.921366 0.550842 0.000000
H112  H     H_    0.098317 0.949942 0.559693 0.000000
H113  H     H_    0.053476 0.884008 0.536598 0.000000
H114  H     H_    0.971853 0.848227 0.587177 0.000000
H115  H     H_    0.103162 0.827907 0.577153 0.000000
H116  H     H_    0.172887 0.894523 0.591710 0.000000
H117  H     H_    0.262545 0.912237 0.711726 0.000000
H118  H     H_    0.342616 0.849048 0.741993 0.000000
H119  H     H_    0.313798 0.755122 0.722134 0.000000
H120  H     H_    0.212734 0.722256 0.669892 0.000000
C109  C     C_3   0.048394 0.061545 0.778329 0.000000
N37   N     N_3   0.028137 0.023620 0.748669 0.000000
C110  C     C_3   0.948543 0.976458 0.754640 0.000000
C111  C     C_R   0.898554 0.959980 0.722179 0.000000
N38   N     N_R   0.810731 0.963786 0.716321 0.000000
C112  C     C_R   0.789314 0.938541 0.684816 0.000000
C113  C     C_R   0.708284 0.928972 0.665762 0.000000
C114  C     C_R   0.704657 0.907326 0.632237 0.000000
C115  C     C_R   0.781164 0.895909 0.618764 0.000000
C116  C     C_R   0.860942 0.903849 0.639112 0.000000
C117  C     C_R   0.862695 0.923419 0.672413 0.000000
N39   N     N_R   0.934179 0.935754 0.695907 0.000000
H121  H     H_    0.022453 0.096708 0.772590 0.000000
H122  H     H_    0.020819 0.038884 0.801531 0.000000
H123  H     H_    0.123203 0.079058 0.783251 0.000000
H124  H     H_    0.083720 0.009893 0.743925 0.000000
H125  H     H_    0.966572 0.939252 0.761829 0.000000
H126  H     H_    0.901342 0.985365 0.772740 0.000000
H127  H     H_    0.650039 0.939118 0.676255 0.000000
H128  H     H_    0.642506 0.900231 0.616190 0.000000
H129  H     H_    0.778053 0.880291 0.592260 0.000000
H130  H     H_    0.919737 0.894423 0.629734 0.000000
C118  C     C_3   0.637127 0.064069 0.845165 0.000000
N40   N     N_3   0.596854 0.076946 0.812869 0.000000
C119  C     C_3   0.664269 0.083249 0.786943 0.000000
C120  C     C_R   0.636436 0.084014 0.748975 0.000000
N41   N     N_R   0.673884 0.055535 0.725942 0.000000
C121  C     C_R   0.660790 0.076370 0.694718 0.000000
C122  C     C_R   0.688654 0.064039 0.662542 0.000000
C123  C     C_R   0.680029 0.097164 0.634814 0.000000
C124  C     C_R   0.653259 0.144562 0.640529 0.000000
C125  C     C_R   0.628921 0.157063 0.673581 0.000000
C126  C     C_R   0.623651 0.118829 0.699279 0.000000
N42   N     N_R   0.604459 0.123781 0.733101 0.000000
H131  H     H_    0.631542 0.019472 0.844262 0.000000
H132  H     H_    0.710678 0.088160 0.848570 0.000000
H133  H     H_    0.598512 0.072736 0.867523 0.000000
H134  H     H_    0.549307 0.039669 0.806813 0.000000
H135  H     H_    0.720038 0.119728 0.793061 0.000000
H136  H     H_    0.684847 0.046615 0.790639 0.000000
H137  H     H_    0.721296 0.032221 0.659096 0.000000
H138  H     H_    0.701704 0.088807 0.609247 0.000000
H139  H     H_    0.654343 0.172665 0.619394 0.000000
H140  H     H_    0.615308 0.195867 0.678913 0.000000
C127  C     C_3   0.843406 0.191568 0.693820 0.000000
N43   N     N_3   0.845747 0.185040 0.731181 0.000000
C128  C     C_3   0.880133 0.138312 0.736653 0.000000
C129  C     C_R   0.865891 0.118025 0.772486 0.000000
N44   N     N_R   0.909610 0.149414 0.800785 0.000000
C130  C     C_R   0.915285 0.110166 0.823478 0.000000
C131  C     C_R   0.989544 0.112410 0.844911 0.000000
C132  C     C_R   0.989092 0.066106 0.863874 0.000000
C133  C     C_R   0.921115 0.016318 0.857203 0.000000
C134  C     C_R   0.856750 0.012550 0.830544 0.000000
C135  C     C_R   0.861769 0.059408 0.812038 0.000000
N45   N     N_R   0.832173 0.062429 0.778949 0.000000
H141  H     H_    0.903331 0.183954 0.682252 0.000000
H142  H     H_    0.792997 0.157447 0.681936 0.000000
H143  H     H_    0.826199 0.229662 0.686854 0.000000
H144  H     H_    0.778107 0.174011 0.738914 0.000000
H145  H     H_    0.846736 0.103973 0.718092 0.000000
H146  H     H_    0.955113 0.151583 0.732965 0.000000
H147  H     H_    0.047765 0.148578 0.845586 0.000000
H148  H     H_    0.042889 0.068152 0.883089 0.000000
H149  H     H_    0.922582 0.979489 0.870889 0.000000
H150  H     H_    0.812355 0.973005 0.822205 0.000000
C136  C     C_3   0.606974 0.966537 0.909436 0.000000
N46   N     N_3   0.615283 0.969995 0.947264 0.000000
C137  C     C_3   0.566722 0.007180 0.960532 0.000000
C138  C     C_R   0.549968 0.995686 0.997533 0.000000
N47   N     N_R   0.462727 0.964184 0.002946 0.000000
C139  C     C_R   0.473677 0.924612 0.024068 0.000000
C140  C     C_R   0.408639 0.876393 0.032538 0.000000
C141  C     C_R   0.437617 0.839380 0.052770 0.000000
C142  C     C_R   0.528264 0.852810 0.065518 0.000000
C143  C     C_R   0.592691 0.901928 0.056581 0.000000
C144  C     C_R   0.564166 0.936215 0.034303 0.000000
N48   N     N_R   0.614904 0.982601 0.018634 0.000000
H151  H     H_    0.626492 0.930053 0.900178 0.000000
H152  H     H_    0.536710 0.963326 0.899695 0.000000
H153  H     H_    0.653973 0.003799 0.898719 0.000000
H154  H     H_    0.581698 0.930504 0.956190 0.000000
H155  H     H_    0.599408 0.050718 0.955892 0.000000
H156  H     H_    0.498627 0.996817 0.947552 0.000000
H157  H     H_    0.338287 0.866695 0.022667 0.000000
H158  H     H_    0.388946 0.800269 0.059361 0.000000
H159  H     H_    0.549189 0.824057 0.082031 0.000000
H160  H     H_    0.662876 0.910754 0.065872 0.000000
C145  C     C_3   0.364686 0.118313 0.104545 0.000000
N49   N     N_3   0.449477 0.114912 0.089413 0.000000
C146  C     C_3   0.429619 0.076711 0.059566 0.000000
C147  C     C_R   0.436519 0.102884 0.025068 0.000000
N50   N     N_R   0.461630 0.158531 0.020987 0.000000
C148  C     C_R   0.443878 0.164071 0.987225 0.000000
C149  C     C_R   0.471300 0.212729 0.970288 0.000000
C150  C     C_R   0.480775 0.211386 0.935302 0.000000
C151  C     C_R   0.478989 0.161598 0.920042 0.000000
C152  C     C_R   0.446922 0.111931 0.936982 0.000000
C153  C     C_R   0.420508 0.113878 0.970691 0.000000
N51   N     N_R   0.408917 0.073371 0.994325 0.000000
H161  H     H_    0.381701 0.141553 0.129695 0.000000
H162  H     H_    0.329334 0.139899 0.086809 0.000000
H163  H     H_    0.319263 0.076690 0.110921 0.000000
H164  H     H_    0.476339 0.094234 0.108324 0.000000
H165  H     H_    0.475496 0.049986 0.060913 0.000000
H166  H     H_    0.358275 0.054298 0.060164 0.000000
H167  H     H_    0.485682 0.250556 0.984644 0.000000
H168  H     H_    0.509420 0.250027 0.922255 0.000000
H169  H     H_    0.522661 0.163869 0.898810 0.000000
H170  H     H_    0.460091 0.075634 0.926301 0.000000
C154  C     C_3   0.347387 0.894246 0.107982 0.000000
N52   N     N_3   0.279145 0.899957 0.082271 0.000000
C155  C     C_3   0.299528 0.958317 0.075177 0.000000
C156  C     C_R   0.231638 0.967590 0.048881 0.000000
N53   N     N_R   0.140135 0.955089 0.056797 0.000000
C157  C     C_R   0.099121 0.928403 0.027349 0.000000
C158  C     C_R   0.019467 0.885564 0.025505 0.000000
C159  C     C_R   0.993816 0.856556 0.994163 0.000000
C160  C     C_R   0.051065 0.869079 0.965923 0.000000
C161  C     C_R   0.137196 0.907617 0.969783 0.000000
C162  C     C_R   0.160600 0.934938 0.001382 0.000000
N54   N     N_R   0.245677 0.961920 0.013814 0.000000
H171  H     H_    0.417981 0.917868 0.100585 0.000000
H172  H     H_    0.334560 0.910175 0.133628 0.000000
H173  H     H_    0.342408 0.850062 0.109692 0.000000
H174  H     H_    0.215238 0.886694 0.093479 0.000000
H175  H     H_    0.299002 0.981772 0.099631 0.000000
H176  H     H_    0.367816 0.970589 0.063747 0.000000
H177  H     H_    0.980097 0.873882 0.048429 0.000000
H178  H     H_    0.929733 0.823318 0.991884 0.000000
H179  H     H_    0.031091 0.845828 0.941664 0.000000
H180  H     H_    0.185631 0.913005 0.949361 0.000000
C163  C     C_3   0.432808 0.087102 0.658383 0.000000
N55   N     N_3   0.451098 0.146670 0.662187 0.000000
C164  C     C_3   0.370471 0.156345 0.676228 0.000000
C165  C     C_R   0.391345 0.199542 0.703615 0.000000
N56   N     N_R   0.481782 0.220872 0.716230 0.000000
C166  C     C_R   0.497864 0.275077 0.709427 0.000000
C167  C     C_R   0.582518 0.312579 0.704235 0.000000
C168  C     C_R   0.585317 0.363695 0.691031 0.000000
C169  C     C_R   0.504631 0.374699 0.680504 0.000000
C170  C     C_R   0.420176 0.334689 0.682871 0.000000
C171  C     C_R   0.417775 0.285599 0.698275 0.000000
N57   N     N_R   0.346339 0.238558 0.697130 0.000000
H181  H     H_    0.485506 0.077200 0.642519 0.000000
H182  H     H_    0.431264 0.069020 0.684409 0.000000
H183  H     H_    0.366614 0.068415 0.644635 0.000000
H184  H     H_    0.458480 0.163018 0.637168 0.000000
H185  H     H_    0.341774 0.176937 0.655920 0.000000
H186  H     H_    0.322693 0.117712 0.683805 0.000000
H187  H     H_    0.645189 0.301346 0.708028 0.000000
H188  H     H_    0.651061 0.394133 0.686981 0.000000
H189  H     H_    0.508399 0.413474 0.668199 0.000000
H190  H     H_    0.359997 0.340425 0.670148 0.000000
C172  C     C_3   0.670837 0.264709 0.861304 0.000000
N58   N     N_3   0.752094 0.246595 0.858051 0.000000
C173  C     C_3   0.735667 0.200393 0.832915 0.000000
C174  C     C_R   0.744372 0.219928 0.795999 0.000000
N59   N     N_R   0.670269 0.233025 0.780837 0.000000
C175  C     C_R   0.705427 0.287134 0.775592 0.000000
C176  C     C_R   0.654593 0.323761 0.774837 0.000000
C177  C     C_R   0.700553 0.379623 0.776527 0.000000
C178  C     C_R   0.795053 0.397301 0.782092 0.000000
C179  C     C_R   0.844049 0.359555 0.786453 0.000000
C180  C     C_R   0.798951 0.303349 0.781834 0.000000
N60   N     N_R   0.827298 0.258419 0.790747 0.000000
H191  H     H_    0.621336 0.249040 0.839457 0.000000
H192  H     H_    0.691677 0.310577 0.861092 0.000000
H193  H     H_    0.638522 0.250254 0.886309 0.000000
H194  H     H_    0.803330 0.280797 0.849823 0.000000
H195  H     H_    0.788630 0.179443 0.838393 0.000000
H196  H     H_    0.667790 0.171649 0.836780 0.000000
H197  H     H_    0.580188 0.309138 0.774623 0.000000
H198  H     H_    0.662421 0.409468 0.775490 0.000000
H199  H     H_    0.830326 0.441116 0.785273 0.000000
H200  H     H_    0.914543 0.376093 0.794635 0.000000
C181  C     C_3   0.344335 0.685488 0.642073 0.000000
N61   N     N_3   0.294987 0.704490 0.614191 0.000000
C182  C     C_3   0.346947 0.709527 0.582651 0.000000
C183  C     C_R   0.292524 0.722392 0.552979 0.000000
N62   N     N_R   0.210146 0.733149 0.559357 0.000000
C184  C     C_R   0.193422 0.755179 0.528995 0.000000
C185  C     C_R   0.117961 0.771654 0.519674 0.000000
C186  C     C_R   0.118341 0.797433 0.488045 0.000000
C187  C     C_R   0.191946 0.804790 0.466105 0.000000
C188  C     C_R   0.264474 0.784482 0.474832 0.000000
C189  C     C_R   0.262371 0.757959 0.506030 0.000000
N63   N     N_R   0.324820 0.734206 0.519074 0.000000
H201  H     H_    0.371084 0.652416 0.632449 0.000000
H202  H     H_    0.400930 0.720761 0.653061 0.000000
H203  H     H_    0.297038 0.667274 0.663119 0.000000
H204  H     H_    0.296442 0.744802 0.620953 0.000000
H205  H     H_    0.408490 0.745829 0.586098 0.000000
H206  H     H_    0.365080 0.671171 0.577811 0.000000
H207  H     H_    0.059624 0.764726 0.536142 0.000000
H208  H     H_    0.061221 0.812451 0.480501 0.000000
H209  H     H_    0.192401 0.826345 0.441889 0.000000
H210  H     H_    0.322979 0.792809 0.458504 0.000000
C190  C     C_3   0.877542 0.618547 0.639462 0.000000
N64   N     N_3   0.938547 0.615029 0.611484 0.000000
C191  C     C_3   0.904504 0.627809 0.577698 0.000000
C192  C     C_R   0.929553 0.686176 0.573050 0.000000
N65   N     N_R   0.856004 0.706348 0.570881 0.000000
C193  C     C_R   0.872038 0.743500 0.597413 0.000000
C194  C     C_R   0.812528 0.768946 0.611177 0.000000
C195  C     C_R   0.820973 0.781516 0.646414 0.000000
C196  C     C_R   0.889158 0.769357 0.666387 0.000000
C197  C     C_R   0.955374 0.750539 0.650717 0.000000
C198  C     C_R   0.950856 0.743490 0.614782 0.000000
N66   N     N_R   0.994668 0.713893 0.596147 0.000000
H211  H     H_    0.918906 0.632420 0.663914 0.000000
H212  H     H_    0.838408 0.647579 0.633699 0.000000
H213  H     H_    0.828986 0.577203 0.643937 0.000000
H214  H     H_    0.936505 0.573609 0.610264 0.000000
H215  H     H_    0.929872 0.608103 0.556495 0.000000
H216  H     H_    0.831294 0.618954 0.577982 0.000000
H217  H     H_    0.761769 0.779621 0.595259 0.000000
H218  H     H_    0.770936 0.797510 0.658811 0.000000
H219  H     H_    0.889002 0.773548 0.694403 0.000000
H220  H     H_    0.002858 0.736584 0.666886 0.000000
C199  C     C_3   0.064745 0.631836 0.510153 0.000000
N67   N     N_3   0.111684 0.629246 0.543014 0.000000
C200  C     C_3   0.087329 0.572472 0.554693 0.000000
C201  C     C_R   0.107123 0.571987 0.592623 0.000000
N68   N     N_R   0.114531 0.618765 0.614937 0.000000
C202  C     C_R   0.105638 0.593006 0.646154 0.000000
C203  C     C_R   0.093513 0.614784 0.678033 0.000000
C204  C     C_R   0.080972 0.580643 0.706658 0.000000
C205  C     C_R   0.078001 0.525350 0.703131 0.000000
C206  C     C_R   0.085340 0.502689 0.670714 0.000000
C207  C     C_R   0.098349 0.536764 0.642551 0.000000
N69   N     N_R   0.100426 0.520946 0.608879 0.000000
H221  H     H_    0.012400 0.652395 0.515045 0.000000
H222  H     H_    0.113064 0.658441 0.491949 0.000000
H223  H     H_    0.036576 0.589583 0.498939 0.000000
H224  H     H_    0.081324 0.650306 0.559776 0.000000
H225  H     H_    0.013159 0.551146 0.549912 0.000000
H226  H     H_    0.126066 0.548529 0.541174 0.000000
H227  H     H_    0.088865 0.656253 0.680741 0.000000
H228  H     H_    0.071413 0.596943 0.731990 0.000000
H229  H     H_    0.066934 0.499365 0.725773 0.000000
H230  H     H_    0.078564 0.459217 0.667461 0.000000
C208  C     C_3   0.201755 0.236700 0.835842 0.000000
N70   N     N_3   0.205563 0.208715 0.802986 0.000000
C209  C     C_3   0.207598 0.247527 0.775412 0.000000
C210  C     C_R   0.117084 0.234742 0.756441 0.000000
N71   N     N_R   0.118163 0.231489 0.720213 0.000000
C211  C     C_R   0.053223 0.255474 0.710862 0.000000
C212  C     C_R   0.026448 0.266374 0.677973 0.000000
C213  C     C_R   0.976911 0.303764 0.674182 0.000000
C214  C     C_R   0.954447 0.328945 0.703461 0.000000
C215  C     C_R   0.974981 0.312839 0.736222 0.000000
C216  C     C_R   0.018550 0.273367 0.739166 0.000000
N72   N     N_R   0.049893 0.257103 0.768906 0.000000
H231  H     H_    0.136208 0.247293 0.836467 0.000000
H232  H     H_    0.207211 0.208725 0.857211 0.000000
H233  H     H_    0.260611 0.275043 0.839191 0.000000
H234  H     H_    0.144500 0.176463 0.799484 0.000000
H235  H     H_    0.225533 0.290557 0.785901 0.000000
H236  H     H_    0.260708 0.245616 0.756720 0.000000
H237  H     H_    0.034208 0.241686 0.655918 0.000000
H238  H     H_    0.956448 0.313282 0.648404 0.000000
H239  H     H_    0.921412 0.361112 0.700728 0.000000
H240  H     H_    0.972048 0.336121 0.758821 0.000000
C217  C     C_3   0.129181 0.257246 0.910940 0.000000
N73   N     N_3   0.075402 0.203080 0.896888 0.000000
C218  C     C_3   0.977872 0.192118 0.903356 0.000000
C219  C     C_R   0.948014 0.238939 0.894284 0.000000
N74   N     N_R   0.965179 0.262977 0.861669 0.000000
C220  C     C_R   0.971353 0.315737 0.870055 0.000000
C221  C     C_R   0.000966 0.360307 0.848945 0.000000
C222  C     C_R   0.999948 0.411525 0.861599 0.000000
C223  C     C_R   0.968998 0.416851 0.894791 0.000000
C224  C     C_R   0.943326 0.371772 0.916492 0.000000
C225  C     C_R   0.948652 0.321157 0.904220 0.000000
N75   N     N_R   0.933561 0.272183 0.921157 0.000000
H241  H     H_    0.201539 0.257466 0.915071 0.000000
H242  H     H_    0.129807 0.290372 0.892231 0.000000
H243  H     H_    0.102742 0.266364 0.936031 0.000000
H244  H     H_    0.097744 0.173192 0.909812 0.000000
H245  H     H_    0.933182 0.157797 0.888605 0.000000
H246  H     H_    0.967359 0.185329 0.930576 0.000000
H247  H     H_    0.027181 0.355553 0.823575 0.000000
H248  H     H_    0.022709 0.447551 0.845467 0.000000
H249  H     H_    0.966933 0.456947 0.904128 0.000000
H250  H     H_    0.921031 0.377275 0.942428 0.000000
C226  C     C_3   0.737879 0.875770 0.992927 0.000000
N76   N     N_3   0.768610 0.925559 0.014896 0.000000
C227  C     C_3   0.857720 0.928041 0.030544 0.000000
C228  C     C_R   0.884255 0.971899 0.058521 0.000000
N77   N     N_R   0.814228 0.993696 0.066776 0.000000
C229  C     C_R   0.807606 0.985310 0.101356 0.000000
C230  C     C_R   0.735399 0.985372 0.122126 0.000000
C231  C     C_R   0.745686 0.977500 0.157523 0.000000
C232  C     C_R   0.825232 0.967806 0.170989 0.000000
C233  C     C_R   0.892902 0.962476 0.148987 0.000000
C234  C     C_R   0.880166 0.969450 0.113970 0.000000
N78   N     N_R   0.932668 0.961713 0.087835 0.000000
H251  H     H_    0.791288 0.875223 0.973918 0.000000
H252  H     H_    0.723542 0.838380 0.009241 0.000000
H253  H     H_    0.673575 0.875178 0.978457 0.000000
H254  H     H_    0.777662 0.959377 0.998804 0.000000
H255  H     H_    0.849374 0.887918 0.043229 0.000000
H256  H     H_    0.908401 0.934869 0.010112 0.000000
H257  H     H_    0.673679 0.992696 0.111422 0.000000
H258  H     H_    0.691673 0.979202 0.174856 0.000000
H259  H     H_    0.832615 0.962174 0.198706 0.000000
H260  H     H_    0.951658 0.951133 0.158950 0.000000
C235  C     C_3   0.660390 0.169465 0.954871 0.000000
N79   N     N_3   0.614284 0.152616 0.987572 0.000000
C236  C     C_3   0.673135 0.133154 0.010638 0.000000
C237  C     C_R   0.651034 0.123594 0.047342 0.000000
N80   N     N_R   0.619953 0.156903 0.069854 0.000000
C238  C     C_R   0.653044 0.145030 0.101215 0.000000
C239  C     C_R   0.634642 0.158190 0.134523 0.000000
C240  C     C_R   0.683879 0.145255 0.162290 0.000000
C241  C     C_R   0.751772 0.120360 0.156402 0.000000
C242  C     C_R   0.763219 0.102846 0.123095 0.000000
C243  C     C_R   0.706470 0.110972 0.096704 0.000000
N81   N     N_R   0.701734 0.093953 0.063258 0.000000
H261  H     H_    0.642855 0.205407 0.944659 0.000000
H262  H     H_    0.735189 0.185172 0.958509 0.000000
H263  H     H_    0.639695 0.135676 0.935077 0.000000
H264  H     H_    0.612139 0.188807 0.998541 0.000000
H265  H     H_    0.670964 0.092055 0.001600 0.000000
H266  H     H_    0.742006 0.162828 0.012343 0.000000
H267  H     H_    0.575779 0.170517 0.139745 0.000000
H268  H     H_    0.669698 0.155014 0.188672 0.000000
H269  H     H_    0.793736 0.113081 0.177950 0.000000
H270  H     H_    0.818356 0.085971 0.117811 0.000000
C244  C     C_3   0.829643 0.014479 0.926667 0.000000
N82   N     N_3   0.855245 0.073894 0.921024 0.000000
C245  C     C_3   0.791472 0.099488 0.936688 0.000000
C246  C     C_R   0.815039 0.114289 0.974425 0.000000
N83   N     N_R   0.824521 0.072446 0.994887 0.000000
C247  C     C_R   0.915956 0.087997 0.000419 0.000000
C248  C     C_R   0.965590 0.053288 0.991077 0.000000
C249  C     C_R   0.050870 0.074512 0.977157 0.000000
C250  C     C_R   0.091239 0.130901 0.976130 0.000000
C251  C     C_R   0.042680 0.166015 0.985845 0.000000
C252  C     C_R   0.951562 0.143164 0.993481 0.000000
N84   N     N_R   0.883999 0.162357 0.980670 0.000000
H271  H     H_    0.791562 0.991958 0.903440 0.000000
H272  H     H_    0.892666 0.001497 0.929878 0.000000
H273  H     H_    0.786572 0.002388 0.949307 0.000000
H274  H     H_    0.841743 0.076338 0.894444 0.000000
H275  H     H_    0.795002 0.137454 0.922062 0.000000
H276  H     H_    0.722860 0.071751 0.932893 0.000000
H277  H     H_    0.931829 0.010378 0.987589 0.000000
H278  H     H_    0.085163 0.046552 0.966510 0.000000
H279  H     H_    0.159804 0.147803 0.966873 0.000000
H280  H     H_    0.070688 0.208644 0.979523 0.000000
C253  C     C_3   0.308522 0.406827 0.724442 0.000000
N85   N     N_3   0.241635 0.360093 0.706777 0.000000
C254  C     C_3   0.195898 0.381654 0.679016 0.000000
C255  C     C_R   0.176398 0.344975 0.647041 0.000000
N86   N     N_R   0.188167 0.291039 0.645567 0.000000
C256  C     C_R   0.164331 0.277227 0.612230 0.000000
C257  C     C_R   0.148905 0.225646 0.597684 0.000000
C258  C     C_R   0.122742 0.217119 0.562911 0.000000
C259  C     C_R   0.108066 0.260094 0.544129 0.000000
C260  C     C_R   0.115507 0.310186 0.560651 0.000000
C261  C     C_R   0.140948 0.318299 0.594948 0.000000
N87   N     N_R   0.142663 0.362599 0.615865 0.000000
H281  H     H_    0.338358 0.391830 0.747652 0.000000
H282  H     H_    0.365025 0.426862 0.706839 0.000000
H283  H     H_    0.273961 0.437378 0.733157 0.000000
H284  H     H_    0.192605 0.343602 0.725247 0.000000
H285  H     H_    0.131776 0.387541 0.688739 0.000000
H286  H     H_    0.240676 0.422266 0.671242 0.000000
H287  H     H_    0.151220 0.192202 0.613851 0.000000
H288  H     H_    0.110437 0.176647 0.550788 0.000000
H289  H     H_    0.083904 0.253183 0.517201 0.000000
H290  H     H_    0.090915 0.339383 0.548360 0.000000
C262  C     C_3   0.899746 0.834499 0.123906 0.000000
N88   N     N_3   0.935220 0.796206 0.104503 0.000000
C263  C     C_3   0.035478 0.810644 0.106531 0.000000
C264  C     C_R   0.078296 0.844635 0.138086 0.000000
N89   N     N_R   0.128341 0.824441 0.163973 0.000000
C265  C     C_R   0.185206 0.873834 0.176682 0.000000
C266  C     C_R   0.260928 0.882616 0.199042 0.000000
C267  C     C_R   0.315292 0.936264 0.206476 0.000000
C268  C     C_R   0.297890 0.980660 0.190021 0.000000
C269  C     C_R   0.225353 0.971742 0.166084 0.000000
C270  C     C_R   0.167829 0.918747 0.160841 0.000000
N90   N     N_R   0.099115 0.903019 0.136612 0.000000
H291  H     H_    0.825177 0.825469 0.117366 0.000000
H292  H     H_    0.907644 0.829649 0.152442 0.000000
H293  H     H_    0.934687 0.876662 0.115909 0.000000
H294  H     H_    0.913806 0.795574 0.078387 0.000000
H295  H     H_    0.057258 0.772755 0.105212 0.000000
H296  H     H_    0.063503 0.834411 0.083311 0.000000
H297  H     H_    0.283866 0.849613 0.208582 0.000000
H298  H     H_    0.375139 0.943324 0.223794 0.000000
H299  H     H_    0.343790 0.022076 0.194688 0.000000
H300  H     H_    0.216910 0.005335 0.150757 0.000000
C271  C     C_3   0.209496 0.083582 0.033001 0.000000
N91   N     N_3   0.157295 0.121248 0.040534 0.000000
C272  C     C_3   0.081953 0.091196 0.060811 0.000000
C273  C     C_R   0.109253 0.102200 0.097516 0.000000
N92   N     N_R   0.107831 0.056819 0.118057 0.000000
C274  C     C_R   0.116607 0.080815 0.150159 0.000000
C275  C     C_R   0.105585 0.054531 0.181680 0.000000
C276  C     C_R   0.114185 0.086551 0.211796 0.000000
C277  C     C_R   0.130901 0.143475 0.210057 0.000000
C278  C     C_R   0.137379 0.169219 0.178163 0.000000
C279  C     C_R   0.129398 0.137483 0.148311 0.000000
N93   N     N_R   0.126854 0.154388 0.114879 0.000000
H301  H     H_    0.226509 0.067533 0.057883 0.000000
H302  H     H_    0.169765 0.048483 0.016253 0.000000
H303  H     H_    0.271281 0.105928 0.019177 0.000000
H304  H     H_    0.198483 0.152519 0.056933 0.000000
H305  H     H_    0.019548 0.102415 0.054903 0.000000
H306  H     H_    0.065636 0.046162 0.055515 0.000000
H307  H     H_    0.088567 0.010141 0.183259 0.000000
H308  H     H_    0.106484 0.066945 0.236906 0.000000
H309  H     H_    0.136316 0.167750 0.233848 0.000000
H310  H     H_    0.145626 0.212746 0.176992 0.000000
C280  C     C_3   0.805648 0.288243 0.120159 0.000000
N94   N     N_3   0.757135 0.287551 0.086934 0.000000
C281  C     C_3   0.796725 0.260360 0.060562 0.000000
C282  C     C_R   0.744328 0.258615 0.027502 0.000000
N95   N     N_R   0.787134 0.269019 0.995784 0.000000
C283  C     C_R   0.734085 0.296074 0.979132 0.000000
C284  C     C_R   0.741060 0.316370 0.946034 0.000000
C285  C     C_R   0.685855 0.348873 0.936311 0.000000
C286  C     C_R   0.624059 0.359486 0.959382 0.000000
C287  C     C_R   0.611893 0.334328 0.991452 0.000000
C288  C     C_R   0.663217 0.299397 0.999430 0.000000
N96   N     N_R   0.662022 0.270613 0.028754 0.000000
H311  H     H_    0.772419 0.306313 0.140565 0.000000
H312  H     H_    0.801756 0.245520 0.127610 0.000000
H313  H     H_    0.878318 0.314120 0.118382 0.000000
H314  H     H_    0.769352 0.328828 0.079850 0.000000
H315  H     H_    0.868774 0.285491 0.056514 0.000000
H316  H     H_    0.791150 0.217866 0.068322 0.000000
H317  H     H_    0.784243 0.305187 0.927650 0.000000
H318  H     H_    0.691577 0.366821 0.910739 0.000000
H319  H     H_    0.583159 0.386082 0.951783 0.000000
H320  H     H_    0.562498 0.341178 0.009339 0.000000
C289  C     C_3   0.305279 0.249113 0.975729 0.000000
N97   N     N_3   0.328214 0.223222 0.007041 0.000000
C290  C     C_3   0.345901 0.264076 0.034764 0.000000
C291  C     C_R   0.369895 0.247301 0.069517 0.000000
N98   N     N_R   0.315879 0.253286 0.097060 0.000000
C292  C     C_R   0.371592 0.251997 0.124703 0.000000
C293  C     C_R   0.350552 0.250010 0.159247 0.000000
C294  C     C_R   0.414352 0.241249 0.183111 0.000000
C295  C     C_R   0.501931 0.243062 0.172575 0.000000
C296  C     C_R   0.524695 0.251297 0.137929 0.000000
C297  C     C_R   0.455119 0.248687 0.114297 0.000000
N99   N     N_R   0.456252 0.242684 0.079443 0.000000
H321  H     H_    0.239258 0.258300 0.978989 0.000000
H322  H     H_    0.360150 0.287975 0.970324 0.000000
H323  H     H_    0.297402 0.220162 0.953136 0.000000
H324  H     H_    0.267835 0.193474 0.012348 0.000000
H325  H     H_    0.398130 0.302923 0.027449 0.000000
H326  H     H_    0.279103 0.268039 0.039975 0.000000
H327  H     H_    0.286963 0.255228 0.167523 0.000000
H328  H     H_    0.398491 0.237115 0.210448 0.000000
H329  H     H_    0.552916 0.238896 0.191606 0.000000
H330  H     H_    0.593771 0.256493 0.129403 0.000000
C298  C     C_3   0.198996 0.526766 0.475197 0.000000
N100  N     N_3   0.242482 0.582444 0.488489 0.000000
C299  C     C_3   0.298973 0.585576 0.519986 0.000000
C300  C     C_R   0.390994 0.592805 0.507478 0.000000
N101  N     N_R   0.413432 0.633450 0.482939 0.000000
C301  C     C_R   0.418167 0.604243 0.453935 0.000000
C302  C     C_R   0.421186 0.620495 0.420505 0.000000
C303  C     C_R   0.379681 0.580745 0.395966 0.000000
C304  C     C_R   0.360876 0.524901 0.403327 0.000000
C305  C     C_R   0.377829 0.509512 0.436399 0.000000
C306  C     C_R   0.403744 0.550431 0.461207 0.000000
N102  N     N_R   0.400300 0.543667 0.495440 0.000000
H331  H     H_    0.237680 0.498583 0.482890 0.000000
H332  H     H_    0.127375 0.512131 0.484144 0.000000
H333  H     H_    0.197986 0.528232 0.446388 0.000000
H334  H     H_    0.190742 0.598626 0.494094 0.000000
H335  H     H_    0.296410 0.621688 0.535198 0.000000
H336  H     H_    0.275084 0.548039 0.535271 0.000000
H337  H     H_    0.455245 0.661617 0.413098 0.000000
H338  H     H_    0.363216 0.594569 0.370966 0.000000
H339  H     H_    0.331638 0.493151 0.383788 0.000000
H340  H     H_    0.355762 0.467127 0.443666 0.000000
C307  C     C_3   0.578538 0.902092 0.398888 0.000000
N103  N     N_3   0.511668 0.853495 0.412448 0.000000
C308  C     C_3   0.529642 0.804273 0.398300 0.000000
C309  C     C_R   0.443888 0.757402 0.398952 0.000000
N104  N     N_R   0.400637 0.734811 0.429468 0.000000
C310  C     C_R   0.319975 0.702124 0.416301 0.000000
C311  C     C_R   0.252669 0.667810 0.435029 0.000000
C312  C     C_R   0.181991 0.629093 0.417203 0.000000
C313  C     C_R   0.177990 0.627751 0.381062 0.000000
C314  C     C_R   0.246707 0.663741 0.362527 0.000000
C315  C     C_R   0.317938 0.700581 0.380800 0.000000
N105  N     N_R   0.396193 0.734585 0.368274 0.000000
H341  H     H_    0.573660 0.939593 0.412996 0.000000
H342  H     H_    0.649084 0.898771 0.402832 0.000000
H343  H     H_    0.563779 0.906046 0.370698 0.000000
H344  H     H_    0.446715 0.853564 0.402950 0.000000
H345  H     H_    0.549558 0.811552 0.370805 0.000000
H346  H     H_    0.584512 0.793975 0.413549 0.000000
H347  H     H_    0.256487 0.671642 0.462829 0.000000
H348  H     H_    0.129002 0.600076 0.431399 0.000000
H349  H     H_    0.121017 0.598118 0.367446 0.000000
H350  H     H_    0.245203 0.661523 0.334834 0.000000
C316  C     C_3   0.561387 0.716532 0.612899 0.000000
N106  N     N_3   0.605011 0.724074 0.579424 0.000000
C317  C     C_3   0.542318 0.695162 0.551395 0.000000
C318  C     C_R   0.590205 0.708748 0.518412 0.000000
N107  N     N_R   0.558510 0.743197 0.497978 0.000000
C319  C     C_R   0.636722 0.781183 0.488661 0.000000
C320  C     C_R   0.645750 0.832418 0.475260 0.000000
C321  C     C_R   0.734057 0.867627 0.471359 0.000000
C322  C     C_R   0.810565 0.851907 0.482095 0.000000
C323  C     C_R   0.799936 0.801191 0.497515 0.000000
C324  C     C_R   0.711863 0.766344 0.500276 0.000000
N108  N     N_R   0.684228 0.718672 0.517877 0.000000
H351  H     H_    0.511843 0.674695 0.614006 0.000000
H352  H     H_    0.614719 0.721363 0.633931 0.000000
H353  H     H_    0.529531 0.749751 0.617559 0.000000
H354  H     H_    0.657689 0.706238 0.581010 0.000000
H355  H     H_    0.487205 0.714328 0.548350 0.000000
H356  H     H_    0.512158 0.650599 0.555760 0.000000
H357  H     H_    0.586138 0.846076 0.470149 0.000000
H358  H     H_    0.743621 0.908517 0.461083 0.000000
H359  H     H_    0.878831 0.880619 0.479870 0.000000
H360  H     H_    0.858811 0.791359 0.508726 0.000000
C325  C     C_3   0.962617 0.199940 0.124616 0.000000
N109  N     N_3   0.947323 0.231022 0.094720 0.000000
C326  C     C_3   0.968042 0.206016 0.062962 0.000000
C327  C     C_R   0.031578 0.248661 0.041965 0.000000
N110  N     N_R   0.006419 0.271305 0.012062 0.000000
C328  C     C_R   0.082702 0.311491 0.005190 0.000000
C329  C     C_R   0.089975 0.349017 0.979561 0.000000
C330  C     C_R   0.173028 0.387754 0.974243 0.000000
C331  C     C_R   0.247764 0.387450 0.995070 0.000000
C332  C     C_R   0.238858 0.350016 0.021713 0.000000
C333  C     C_R   0.153066 0.311431 0.027782 0.000000
N111  N     N_R   0.122661 0.270466 0.052195 0.000000
H361  H     H_    0.918762 0.205461 0.145997 0.000000
H362  H     H_    0.945931 0.155260 0.118504 0.000000
H363  H     H_    0.035115 0.216078 0.133146 0.000000
H364  H     H_    0.992100 0.271143 0.097226 0.000000
H365  H     H_    0.005825 0.177130 0.069699 0.000000
H366  H     H_    0.903147 0.185101 0.048437 0.000000
H367  H     H_    0.030180 0.348639 0.965194 0.000000
H368  H     H_    0.179682 0.417903 0.953950 0.000000
H369  H     H_    0.314099 0.417177 0.990811 0.000000
H370  H     H_    0.301761 0.353522 0.035839 0.000000
C334  C     C_3   0.616849 0.605847 0.441259 0.000000
N112  N     N_3   0.614050 0.619410 0.477917 0.000000
C335  C     C_3   0.601898 0.568888 0.497034 0.000000
C336  C     C_R   0.592048 0.574473 0.536408 0.000000
N113  N     N_R   0.646113 0.613989 0.558761 0.000000
C337  C     C_R   0.613247 0.598810 0.590617 0.000000
C338  C     C_R   0.649517 0.621470 0.622571 0.000000
C339  C     C_R   0.615101 0.592805 0.652164 0.000000
C340  C     C_R   0.553757 0.539835 0.649111 0.000000
C341  C     C_R   0.524765 0.516137 0.616421 0.000000
C342  C     C_R   0.548352 0.548852 0.587634 0.000000
N114  N     N_R   0.529903 0.534565 0.553431 0.000000
H371  H     H_    0.616575 0.642460 0.425711 0.000000
H372  H     H_    0.680056 0.594544 0.436748 0.000000
H373  H     H_    0.559474 0.569532 0.432945 0.000000
H374  H     H_    0.681361 0.643206 0.482986 0.000000
H375  H     H_    0.544021 0.537575 0.486069 0.000000
H376  H     H_    0.650153 0.548289 0.488213 0.000000
H377  H     H_    0.703086 0.660413 0.624797 0.000000
H378  H     H_    0.640857 0.610118 0.677675 0.000000
H379  H     H_    0.533422 0.515794 0.672256 0.000000
H380  H     H_    0.489527 0.472449 0.613686 0.000000
C343  C     C_3   0.711274 0.486474 0.606441 0.000000
N115  N     N_3   0.703253 0.516392 0.574721 0.000000
C344  C     C_3   0.772682 0.514952 0.549756 0.000000
C345  C     C_R   0.784824 0.551581 0.518022 0.000000
N116  N     N_R   0.820203 0.532386 0.490200 0.000000
C346  C     C_R   0.863568 0.578720 0.472916 0.000000
C347  C     C_R   0.928541 0.585861 0.447655 0.000000
C348  C     C_R   0.976475 0.639848 0.438877 0.000000
C349  C     C_R   0.955082 0.684903 0.453384 0.000000
C350  C     C_R   0.887701 0.676647 0.477929 0.000000
C351  C     C_R   0.845865 0.623309 0.487790 0.000000
N117  N     N_R   0.793228 0.608011 0.515460 0.000000
H381  H     H_    0.668469 0.442866 0.605783 0.000000
H382  H     H_    0.783089 0.491692 0.613603 0.000000
H383  H     H_    0.688482 0.506259 0.628659 0.000000
H384  H     H_    0.727605 0.554746 0.585606 0.000000
H385  H     H_    0.838345 0.528528 0.562726 0.000000
H386  H     H_    0.763718 0.472217 0.541071 0.000000
H387  H     H_    0.947347 0.551854 0.436696 0.000000
H388  H     H_    0.024562 0.647236 0.418161 0.000000
H389  H     H_    0.989422 0.726149 0.444681 0.000000
H390  H     H_    0.872783 0.710951 0.490538 0.000000
C352  C     C_3   0.317467 0.540999 0.648549 0.000000
N118  N     N_3   0.269241 0.518256 0.615816 0.000000
C353  C     C_3   0.327937 0.492810 0.597706 0.000000
C354  C     C_R   0.285852 0.460998 0.565786 0.000000
N119  N     N_R   0.196151 0.449354 0.555500 0.000000
C355  C     C_R   0.191880 0.421546 0.524947 0.000000
C356  C     C_R   0.120513 0.402741 0.500735 0.000000
C357  C     C_R   0.126872 0.363474 0.476236 0.000000
C358  C     C_R   0.203391 0.344343 0.476619 0.000000
C359  C     C_R   0.277767 0.368881 0.498924 0.000000
C360  C     C_R   0.272338 0.411441 0.520084 0.000000
N120  N     N_R   0.335608 0.440042 0.543474 0.000000
H391  H     H_    0.279949 0.566120 0.662081 0.000000
H392  H     H_    0.323441 0.507801 0.666011 0.000000
H393  H     H_    0.387877 0.567621 0.643329 0.000000
H394  H     H_    0.270163 0.552735 0.600983 0.000000
H395  H     H_    0.382422 0.527483 0.588057 0.000000
H396  H     H_    0.347574 0.464043 0.615553 0.000000
H397  H     H_    0.063029 0.418656 0.500204 0.000000
H398  H     H_    0.070579 0.346141 0.457645 0.000000
H399  H     H_    0.205562 0.311021 0.459072 0.000000
H400  H     H_    0.335861 0.353001 0.501326 0.000000
C361  C     C_3   0.815994 0.392885 0.628231 0.000000
N121  N     N_3   0.822830 0.399141 0.590627 0.000000
C362  C     C_3   0.901976 0.445733 0.582609 0.000000
C363  C     C_R   0.934383 0.436259 0.547954 0.000000
N122  N     N_R   0.983177 0.400665 0.554698 0.000000
C364  C     C_R   0.933894 0.355079 0.535868 0.000000
C365  C     C_R   0.920907 0.299732 0.542264 0.000000
C366  C     C_R   0.866402 0.260871 0.518719 0.000000
C367  C     C_R   0.823157 0.277433 0.490334 0.000000
C368  C     C_R   0.826215 0.332373 0.487486 0.000000
C369  C     C_R   0.876755 0.369109 0.512247 0.000000
N123  N     N_R   0.875097 0.421155 0.518131 0.000000
H401  H     H_    0.854704 0.364467 0.636960 0.000000
H402  H     H_    0.844711 0.433251 0.642186 0.000000
H403  H     H_    0.742673 0.374647 0.634722 0.000000
H404  H     H_    0.763284 0.404413 0.579872 0.000000
H405  H     H_    0.902717 0.486684 0.590652 0.000000
H406  H     H_    0.957085 0.440828 0.600381 0.000000
H407  H     H_    0.945431 0.286142 0.566148 0.000000
H408  H     H_    0.856761 0.217268 0.522660 0.000000
H409  H     H_    0.782391 0.246905 0.471693 0.000000
H410  H     H_    0.790556 0.346226 0.466599 0.000000
C370  C     C_3   0.349748 0.774046 0.156875 0.000000
N124  N     N_3   0.313814 0.733423 0.183356 0.000000
C371  C     C_3   0.365720 0.751393 0.216110 0.000000
C372  C     C_R   0.302935 0.754056 0.244955 0.000000
N125  N     N_R   0.334180 0.762217 0.279819 0.000000
C373  C     C_R   0.282404 0.792600 0.291991 0.000000
C374  C     C_R   0.298401 0.823380 0.322479 0.000000
C375  C     C_R   0.253816 0.863330 0.326212 0.000000
C376  C     C_R   0.196969 0.872331 0.299388 0.000000
C377  C     C_R   0.178689 0.839097 0.269469 0.000000
C378  C     C_R   0.218999 0.797402 0.266946 0.000000
N126  N     N_R   0.222146 0.767120 0.237932 0.000000
H411  H     H_    0.425251 0.783001 0.155029 0.000000
H412  H     H_    0.316997 0.757329 0.131267 0.000000
H413  H     H_    0.333425 0.812589 0.163076 0.000000
H414  H     H_    0.326912 0.697393 0.174791 0.000000
H415  H     H_    0.413319 0.793448 0.212981 0.000000
H416  H     H_    0.405762 0.723197 0.223114 0.000000
H417  H     H_    0.349646 0.819972 0.341632 0.000000
H418  H     H_    0.267613 0.889933 0.349246 0.000000
H419  H     H_    0.168360 0.906464 0.301617 0.000000
H420  H     H_    0.137078 0.847255 0.248164 0.000000
C379  C     C_3   0.027982 0.639826 0.286930 0.000000
N127  N     N_3   0.028385 0.646387 0.249202 0.000000
C380  C     C_3   0.044168 0.596751 0.235292 0.000000
C381  C     C_R   0.072700 0.600402 0.198022 0.000000
N128  N     N_R   0.079471 0.552498 0.179587 0.000000
C382  C     C_R   0.093002 0.574348 0.147165 0.000000
C383  C     C_R   0.078726 0.545723 0.115762 0.000000
C384  C     C_R   0.096520 0.575621 0.085364 0.000000
C385  C     C_R   0.125192 0.633186 0.086466 0.000000
C386  C     C_R   0.129933 0.661803 0.117771 0.000000
C387  C     C_R   0.108829 0.631630 0.147622 0.000000
N129  N     N_R   0.096968 0.651308 0.179532 0.000000
H421  H     H_    0.990097 0.665299 0.299182 0.000000
H422  H     H_    0.995980 0.595962 0.293711 0.000000
H423  H     H_    0.098957 0.653805 0.298072 0.000000
H424  H     H_    0.086387 0.679390 0.244542 0.000000
H425  H     H_    0.097672 0.589265 0.251940 0.000000
H426  H     H_    0.981160 0.562119 0.237517 0.000000
H427  H     H_    0.050310 0.501171 0.114549 0.000000
H428  H     H_    0.087352 0.553894 0.060450 0.000000
H429  H     H_    0.139486 0.655761 0.062465 0.000000
H430  H     H_    0.147096 0.706444 0.118450 0.000000
C388  C     C_3   0.987543 0.832731 0.315228 0.000000
N130  N     N_3   0.984517 0.819397 0.278148 0.000000
C389  C     C_3   0.980122 0.761355 0.273844 0.000000
C390  C     C_R   0.943962 0.741235 0.238454 0.000000
N131  N     N_R   0.853259 0.731324 0.229803 0.000000
C391  C     C_R   0.850123 0.726889 0.195010 0.000000
C392  C     C_R   0.776276 0.721135 0.172430 0.000000
C393  C     C_R   0.784911 0.706214 0.138124 0.000000
C394  C     C_R   0.864653 0.694613 0.128367 0.000000
C395  C     C_R   0.941775 0.708451 0.150717 0.000000
C396  C     C_R   0.932922 0.726690 0.183796 0.000000
N132  N     N_R   0.995679 0.737550 0.210408 0.000000
H431  H     H_    0.032254 0.812353 0.329674 0.000000
H432  H     H_    0.014238 0.878261 0.319298 0.000000
H433  H     H_    0.917254 0.819004 0.325310 0.000000
H434  H     H_    0.923717 0.824568 0.267585 0.000000
H435  H     H_    0.046806 0.754325 0.279279 0.000000
H436  H     H_    0.931828 0.737272 0.292082 0.000000
H437  H     H_    0.713513 0.726821 0.181293 0.000000
H438  H     H_    0.727263 0.699354 0.119740 0.000000
H439  H     H_    0.869285 0.679435 0.102208 0.000000
H440  H     H_    0.005401 0.703376 0.142669 0.000000
C397  C     C_3   0.897208 0.262049 0.213052 0.000000
N133  N     N_3   0.945567 0.298950 0.186303 0.000000
C398  C     C_3   0.041699 0.299886 0.187566 0.000000
C399  C     C_R   0.092749 0.336562 0.159920 0.000000
N134  N     N_R   0.139846 0.317640 0.133128 0.000000
C400  C     C_R   0.174569 0.366307 0.116924 0.000000
C401  C     C_R   0.243103 0.376645 0.093897 0.000000
C402  C     C_R   0.280175 0.430193 0.082077 0.000000
C403  C     C_R   0.253553 0.473320 0.096163 0.000000
C404  C     C_R   0.191345 0.463089 0.122544 0.000000
C405  C     C_R   0.150475 0.409533 0.131741 0.000000
N135  N     N_R   0.099298 0.393787 0.159738 0.000000
H441  H     H_    0.824539 0.262523 0.213140 0.000000
H442  H     H_    0.898363 0.219123 0.207609 0.000000
H443  H     H_    0.929917 0.275978 0.239064 0.000000
H444  H     H_    0.943111 0.338681 0.192606 0.000000
H445  H     H_    0.073903 0.315740 0.213108 0.000000
H446  H     H_    0.045887 0.257582 0.184528 0.000000
H447  H     H_    0.273204 0.344213 0.088525 0.000000
H448  H     H_    0.336845 0.439685 0.064476 0.000000
H449  H     H_    0.288542 0.515487 0.089126 0.000000
H450  H     H_    0.185354 0.496430 0.138899 0.000000
C406  C     C_3   0.530645 0.316403 0.548752 0.000000
N136  N     N_3   0.499415 0.364095 0.540827 0.000000
C407  C     C_3   0.576512 0.414346 0.545697 0.000000
C408  C     C_R   0.597029 0.441478 0.511568 0.000000
N137  N     N_R   0.651057 0.419504 0.491262 0.000000
C409  C     C_R   0.589796 0.390606 0.467181 0.000000
C410  C     C_R   0.588355 0.339744 0.453807 0.000000
C411  C     C_R   0.509949 0.308128 0.436057 0.000000
C412  C     C_R   0.434603 0.327566 0.432238 0.000000
C413  C     C_R   0.434742 0.377027 0.447999 0.000000
C414  C     C_R   0.511110 0.406025 0.467871 0.000000
N138  N     N_R   0.517084 0.442324 0.494866 0.000000
H451  H     H_    0.472034 0.278092 0.544785 0.000000
H452  H     H_    0.586112 0.314452 0.531026 0.000000
H453  H     H_    0.555359 0.318704 0.576402 0.000000
H454  H     H_    0.450543 0.365524 0.559130 0.000000
H455  H     H_    0.555250 0.441223 0.564284 0.000000
H456  H     H_    0.636730 0.402728 0.554780 0.000000
H457  H     H_    0.643997 0.322692 0.458794 0.000000
H458  H     H_    0.506776 0.267668 0.425664 0.000000
H459  H     H_    0.373089 0.302202 0.418589 0.000000
H460  H     H_    0.373497 0.389043 0.445828 0.000000
C415  C     C_3   0.750796 0.800291 0.382632 0.000000
N139  N     N_3   0.705464 0.794143 0.348333 0.000000
C416  C     C_3   0.648643 0.736906 0.342349 0.000000
C417  C     C_R   0.614430 0.730421 0.305450 0.000000
N140  N     N_R   0.550766 0.757846 0.299634 0.000000
C418  C     C_R   0.584099 0.790651 0.272936 0.000000
C419  C     C_R   0.550047 0.830170 0.258556 0.000000
C420  C     C_R   0.595359 0.858796 0.230536 0.000000
C421  C     C_R   0.672410 0.847231 0.217802 0.000000
C422  C     C_R   0.706241 0.807690 0.233193 0.000000
C423  C     C_R   0.660479 0.779770 0.261047 0.000000
N141  N     N_R   0.677969 0.738221 0.279239 0.000000
H461  H     H_    0.824829 0.804650 0.379717 0.000000
H462  H     H_    0.745791 0.838646 0.395525 0.000000
H463  H     H_    0.718208 0.764350 0.399051 0.000000
H464  H     H_    0.756788 0.804165 0.329963 0.000000
H465  H     H_    0.685679 0.707869 0.348883 0.000000
H466  H     H_    0.588754 0.729073 0.359288 0.000000
H467  H     H_    0.491076 0.839499 0.269031 0.000000
H468  H     H_    0.570623 0.890298 0.218454 0.000000
H469  H     H_    0.706638 0.869488 0.195733 0.000000
H470  H     H_    0.767963 0.800920 0.223942 0.000000
C424  C     C_3   0.632914 0.587563 0.358449 0.000000
N142  N     N_3   0.591946 0.596098 0.325410 0.000000
C425  C     C_3   0.508307 0.607276 0.334761 0.000000
C426  C     C_R   0.457785 0.617049 0.304041 0.000000
N143  N     N_R   0.399075 0.649182 0.304324 0.000000
C427  C     C_R   0.341493 0.627861 0.277670 0.000000
C428  C     C_R   0.272331 0.645314 0.265434 0.000000
C429  C     C_R   0.250964 0.637098 0.230872 0.000000
C430  C     C_R   0.283469 0.602741 0.210604 0.000000
C431  C     C_R   0.343134 0.578380 0.225561 0.000000
C432  C     C_R   0.370448 0.591198 0.259741 0.000000
N144  N     N_R   0.439160 0.579435 0.277241 0.000000
H471  H     H_    0.579121 0.565351 0.376139 0.000000
H472  H     H_    0.676809 0.561224 0.354324 0.000000
H473  H     H_    0.668538 0.627496 0.370995 0.000000
H474  H     H_    0.635071 0.630701 0.313739 0.000000
H475  H     H_    0.463830 0.568391 0.344370 0.000000
H476  H     H_    0.520421 0.640650 0.354582 0.000000
H477  H     H_    0.240718 0.669371 0.280789 0.000000
H478  H     H_    0.214327 0.662173 0.219965 0.000000
H479  H     H_    0.267730 0.597929 0.182902 0.000000
H480  H     H_    0.375701 0.557114 0.208793 0.000000

loop_
_geom_bond_atom_site_label_1
_geom_bond_atom_site_label_2
_geom_bond_distance
_geom_bond_site_symmetry_2
_ccdc_geom_bond_type
Zn1   N3    2.148 .      S
Zn1   N5    2.245 .      S
Zn1   N12   2.046 .      S
Zn1   N17   2.032 .      S
Zn2   N2    2.173 .      S
Zn2   N116  1.990 .      S
Zn2   N123  2.166 .      S
Zn2   N137  2.088 .      S
Zn3   N6    2.119 1_455  S
Zn3   N8    1.972 .      S
Zn3   N128  2.392 .      S
Zn3   N135  2.254 .      S
Zn4   N11   2.039 .      S
Zn4   N15   1.996 .      S
Zn4   N131  1.942 .      S
Zn4   N141  2.109 .      S
Zn5   N9    1.970 .      S
Zn5   N14   2.044 .      S
Zn5   N18   2.066 .      S
Zn5   N144  1.922 .      S
Zn6   N20   2.108 .      S
Zn6   N24   2.161 .      S
Zn6   N27   2.171 .      S
Zn6   N29   2.081 1_565  S
Zn7   N21   2.270 .      S
Zn7   N32   2.316 1_565  S
Zn7   N35   2.393 .      S
Zn7   N39   2.148 1_455  S
Zn8   N23   2.086 1_545  S
Zn8   N38   2.121 1_545  S
Zn8   N41   1.989 .      S
Zn8   N45   2.062 .      S
Zn9   N26   2.114 .      S
Zn9   N47   1.983 1_556  S
Zn9   N51   2.031 1_565  S
Zn9   N54   2.049 1_556  S
Zn10  N30   1.954 .      S
Zn10  N42   2.010 .      S
Zn10  N56   2.172 .      S
Zn10  N59   2.081 .      S
Zn11  N36   2.232 .      S
Zn11  N62   2.151 .      S
Zn11  N66   1.976 1_455  S
Zn11  N68   2.371 .      S
Zn12  N44   2.065 .      S
Zn12  N60   2.134 .      S
Zn12  N72   2.143 1_655  S
Zn12  N74   2.194 .      S
Zn13  N48   2.057 1_545  S
Zn13  N77   2.098 1_545  S
Zn13  N81   2.064 .      S
Zn13  N83   2.091 1_554  S
Zn14  N33   2.333 .      S
Zn14  N57   2.169 .      S
Zn14  N71   2.113 .      S
Zn14  N86   2.265 .      S
Zn15  N53   2.089 .      S
Zn15  N78   2.118 1_455  S
Zn15  N90   2.264 .      S
Zn15  N92   2.240 1_565  S
Zn16  N50   1.964 .      S
Zn16  N80   2.084 .      S
Zn16  N96   2.110 .      S
Zn16  N99   2.133 .      S
Zn17  N63   2.202 .      S
Zn17  N101  2.054 .      S
Zn17  N104  2.156 .      S
Zn17  N107  2.028 .      S
Zn18  N75   2.232 .      S
Zn18  N84   2.057 .      S
Zn18  N95   2.141 .      S
Zn18  N110  2.043 1_656  S
Zn19  N65   1.982 .      S
Zn19  N108  2.069 .      S
Zn19  N113  1.865 .      S
Zn19  N117  2.032 .      S
Zn20  N69   2.344 .      S
Zn20  N87   2.321 .      S
Zn20  N119  1.922 .      S
Zn20  N122  2.117 1_455  S
Zn21  N89   2.320 .      S
Zn21  N126  2.180 .      S
Zn21  N129  2.353 .      S
Zn21  N132  1.957 1_455  S
Zn22  N93   2.324 .      S
Zn22  N98   2.145 .      S
Zn22  N111  2.152 .      S
Zn22  N134  2.327 .      S
Zn23  N102  2.024 .      S
Zn23  N114  1.910 .      S
Zn23  N120  1.925 .      S
Zn23  N138  2.078 .      S
Zn24  N105  2.122 .      S
Zn24  N125  2.163 .      S
Zn24  N140  1.998 .      S
Zn24  N143  2.002 .      S
C1    N1    1.454 .      S
C1    H1    1.109 .      S
C1    H2    1.109 .      S
C1    H3    1.110 .      S
N1    C2    1.455 .      S
N1    H4    1.044 .      S
C2    C3    1.476 .      S
C2    H5    1.090 .      S
C2    H6    1.100 .      S
C5    H7    1.070 .      S
C6    H8    1.076 .      S
C7    H9    1.074 .      S
C8    H10   1.073 .      S
C10   N4    1.455 .      S
C10   H11   1.109 .      S
C10   H12   1.109 .      S
C10   H13   1.109 .      S
N4    C11   1.456 .      S
N4    H14   1.044 .      S
C11   C12   1.493 .      S
C11   H15   1.103 .      S
C11   H16   1.091 .      S
C14   H17   1.077 .      S
C15   H18   1.081 .      S
C16   H19   1.081 .      S
C17   H20   1.075 .      S
N6    Zn3   2.119 1_655  S
C19   N7    1.458 .      S
C19   H21   1.099 .      S
C19   H22   1.100 .      S
C19   H23   1.102 .      S
N7    C20   1.450 .      S
N7    H24   1.043 .      S
C20   C21   1.476 .      S
C20   H25   1.099 .      S
C20   H26   1.096 .      S
C23   H27   1.051 .      S
C24   H28   1.076 .      S
C25   H29   1.063 .      S
C26   H30   1.070 .      S
C28   N10   1.445 .      S
C28   H31   1.093 .      S
C28   H32   1.093 .      S
C28   H33   1.085 .      S
N10   C29   1.425 .      S
N10   H34   1.024 .      S
C29   C30   1.436 .      S
C29   H35   1.087 .      S
C29   H36   1.102 .      S
C32   H37   1.074 .      S
C33   H38   1.076 .      S
C34   H39   1.060 .      S
C35   H40   1.069 .      S
C37   N13   1.454 .      S
C37   H41   1.108 .      S
C37   H42   1.109 .      S
C37   H43   1.105 .      S
N13   C38   1.471 .      S
N13   H44   1.038 .      S
C38   C39   1.501 .      S
C38   H45   1.093 .      S
C38   H46   1.098 .      S
C41   H47   1.065 .      S
C42   H48   1.081 .      S
C43   H49   1.081 .      S
C44   H50   1.069 .      S
C46   N16   1.449 .      S
C46   H51   1.105 .      S
C46   H52   1.106 .      S
C46   H53   1.105 .      S
N16   C47   1.461 .      S
N16   H54   1.040 .      S
C47   C48   1.497 .      S
C47   H55   1.092 .      S
C47   H56   1.101 .      S
C50   H57   1.079 .      S
C51   H58   1.079 .      S
C52   H59   1.069 .      S
C53   H60   1.069 .      S
C55   N19   1.453 .      S
C55   H61   1.108 .      S
C55   H62   1.101 .      S
C55   H63   1.109 .      S
N19   C56   1.462 .      S
N19   H64   1.043 .      S
C56   C57   1.508 .      S
C56   H65   1.084 .      S
C56   H66   1.087 1_565  S
C59   H67   1.081 .      S
C60   H68   1.081 .      S
C61   H69   1.081 .      S
C62   H70   1.076 .      S
H66   C56   1.087 1_545  S
C64   N22   1.455 .      S
C64   H71   1.108 .      S
C64   H72   1.108 .      S
C64   H73   1.108 .      S
N22   C65   1.441 .      S
N22   H74   1.038 1_565  S
C65   C66   1.487 .      S
C65   H75   1.078 .      S
C65   H76   1.109 .      S
N23   Zn8   2.086 1_565  S
C68   H77   1.081 .      S
C69   H78   1.081 .      S
C70   H79   1.081 .      S
C71   H80   1.064 .      S
H74   N22   1.038 1_545  S
C73   N25   1.454 .      S
C73   H81   1.109 .      S
C73   H82   1.108 .      S
C73   H83   1.109 .      S
N25   C74   1.454 .      S
N25   H84   1.040 .      S
C74   C75   1.495 .      S
C74   H85   1.098 .      S
C74   H86   1.105 .      S
C77   H87   1.079 .      S
C78   H88   1.070 .      S
C79   H89   1.080 .      S
C80   H90   1.066 .      S
C82   N28   1.456 .      S
C82   H91   1.106 .      S
C82   H92   1.101 .      S
C82   H93   1.095 .      S
N28   C83   1.463 .      S
N28   H94   1.042 .      S
C83   C84   1.449 .      S
C83   H95   1.091 .      S
C83   H96   1.103 .      S
N29   Zn6   2.081 1_545  S
C86   H97   1.046 1_545  S
C87   H98   1.060 .      S
C88   H99   1.056 .      S
C89   H100  1.077 .      S
H97   C86   1.046 1_565  S
C91   N31   1.454 .      S
C91   H101  1.109 .      S
C91   H102  1.108 .      S
C91   H103  1.108 1_655  S
N31   C92   1.461 1_655  S
N31   H104  1.041 .      S
C92   N31   1.461 1_455  S
C92   C93   1.496 .      S
C92   H105  1.106 .      S
C92   H106  1.087 1_455  S
N32   Zn7   2.316 1_545  S
C95   H107  1.073 1_545  S
C96   H108  1.081 .      S
C97   H109  1.081 .      S
C98   H110  1.077 .      S
H103  C91   1.108 1_455  S
H106  C92   1.087 1_655  S
H107  C95   1.073 1_565  S
C100  N34   1.454 .      S
C100  H111  1.109 1_455  S
C100  H112  1.106 .      S
C100  H113  1.109 .      S
N34   C101  1.446 .      S
N34   H114  1.040 1_455  S
C101  C102  1.495 .      S
C101  H115  1.095 .      S
C101  H116  1.107 .      S
C104  H117  1.063 .      S
C105  H118  1.072 .      S
C106  H119  1.081 .      S
C107  H120  1.064 .      S
H111  C100  1.109 1_655  S
H114  N34   1.040 1_655  S
C109  N37   1.445 .      S
C109  H121  1.097 .      S
C109  H122  1.088 .      S
C109  H123  1.101 .      S
N37   C110  1.449 1_445  S
N37   H124  1.025 .      S
C110  N37   1.449 1_665  S
C110  C111  1.431 .      S
C110  H125  1.092 .      S
C110  H126  1.081 .      S
N38   Zn8   2.121 1_565  S
C113  H127  1.079 .      S
C114  H128  1.081 .      S
C115  H129  1.081 .      S
C116  H130  1.062 .      S
N39   Zn7   2.148 1_655  S
C118  N40   1.450 .      S
C118  H131  1.105 .      S
C118  H132  1.106 .      S
C118  H133  1.108 .      S
N40   C119  1.423 .      S
N40   H134  1.022 .      S
C119  C120  1.507 .      S
C119  H135  1.069 .      S
C119  H136  1.072 .      S
C122  H137  1.073 .      S
C123  H138  1.081 .      S
C124  H139  1.081 .      S
C125  H140  1.080 .      S
C127  N43   1.444 .      S
C127  H141  1.091 .      S
C127  H142  1.057 .      S
C127  H143  1.105 .      S
N43   C128  1.443 .      S
N43   H144  1.035 .      S
C128  C129  1.471 .      S
C128  H145  1.105 .      S
C128  H146  1.102 .      S
C131  H147  1.066 1_655  S
C132  H148  1.075 1_655  S
C133  H149  1.080 1_545  S
C134  H150  1.066 1_545  S
H147  C131  1.066 1_455  S
H148  C132  1.075 1_455  S
H149  C133  1.080 1_565  S
H150  C134  1.066 1_565  S
C136  N46   1.452 .      S
C136  H151  1.108 .      S
C136  H152  1.102 .      S
C136  H153  1.091 1_565  S
N46   C137  1.454 1_565  S
N46   H154  1.043 .      S
C137  N46   1.454 1_545  S
C137  C138  1.465 1_545  S
C137  H155  1.083 .      S
C137  H156  1.094 1_545  S
C138  C137  1.465 1_565  S
N47   Zn9   1.983 1_554  S
C140  H157  1.080 .      S
C141  H158  1.081 .      S
C142  H159  1.081 .      S
C143  H160  1.073 .      S
N48   Zn13  2.057 1_565  S
H153  C136  1.091 1_545  S
H156  C137  1.094 1_565  S
C145  N49   1.454 .      S
C145  H161  1.107 .      S
C145  H162  1.101 .      S
C145  H163  1.107 .      S
N49   C146  1.454 .      S
N49   H164  1.042 .      S
C146  C147  1.478 .      S
C146  H165  1.108 .      S
C146  H166  1.065 .      S
C149  H167  1.059 .      S
C150  H168  1.079 .      S
C151  H169  1.056 .      S
C152  H170  1.075 .      S
N51   Zn9   2.031 1_545  S
C154  N52   1.451 .      S
C154  H171  1.108 .      S
C154  H172  1.102 .      S
C154  H173  1.100 .      S
N52   C155  1.445 .      S
N52   H174  1.036 .      S
C155  C156  1.494 .      S
C155  H175  1.105 .      S
C155  H176  1.097 .      S
C158  H177  1.071 1_455  S
C159  H178  1.081 .      S
C160  H179  1.081 .      S
C161  H180  1.072 .      S
N54   Zn9   2.049 1_554  S
H177  C158  1.071 1_655  S
C163  N55   1.453 .      S
C163  H181  1.104 .      S
C163  H182  1.100 .      S
C163  H183  1.094 .      S
N55   C164  1.437 .      S
N55   H184  1.044 .      S
C164  C165  1.465 .      S
C164  H185  1.093 .      S
C164  H186  1.077 .      S
C167  H187  1.080 .      S
C168  H188  1.081 .      S
C169  H189  1.080 .      S
C170  H190  1.074 .      S
C172  N58   1.448 .      S
C172  H191  1.098 .      S
C172  H192  1.108 .      S
C172  H193  1.105 .      S
N58   C173  1.464 .      S
N58   H194  1.035 .      S
C173  C174  1.500 .      S
C173  H195  1.105 .      S
C173  H196  1.086 .      S
C176  H197  1.080 .      S
C177  H198  1.081 .      S
C178  H199  1.081 .      S
C179  H200  1.065 .      S
C181  N61   1.456 .      S
C181  H201  1.098 .      S
C181  H202  1.108 .      S
C181  H203  1.106 .      S
N61   C182  1.449 .      S
N61   H204  1.043 .      S
C182  C183  1.484 .      S
C182  H205  1.102 .      S
C182  H206  1.100 .      S
C185  H207  1.076 .      S
C186  H208  1.081 .      S
C187  H209  1.081 .      S
C188  H210  1.072 .      S
C190  N64   1.456 .      S
C190  H211  1.107 .      S
C190  H212  1.095 .      S
C190  H213  1.104 .      S
N64   C191  1.457 .      S
N64   H214  1.039 .      S
C191  C192  1.425 .      S
C191  H215  1.087 .      S
C191  H216  1.069 .      S
C194  H217  1.069 .      S
C195  H218  1.081 .      S
C196  H219  1.078 .      S
C197  H220  1.078 1_655  S
N66   Zn11  1.976 1_655  S
H220  C197  1.078 1_455  S
C199  N67   1.443 .      S
C199  H221  1.092 .      S
C199  H222  1.106 .      S
C199  H223  1.103 .      S
N67   C200  1.451 .      S
N67   H224  1.032 .      S
C200  C201  1.478 .      S
C200  H225  1.105 .      S
C200  H226  1.098 .      S
C203  H227  1.076 .      S
C204  H228  1.081 .      S
C205  H229  1.081 .      S
C206  H230  1.079 .      S
C208  N70   1.449 .      S
C208  H231  1.108 .      S
C208  H232  1.106 .      S
C208  H233  1.109 .      S
N70   C209  1.445 .      S
N70   H234  1.041 .      S
C209  C210  1.484 .      S
C209  H235  1.108 .      S
C209  H236  1.106 .      S
C212  H237  1.075 .      S
C213  H238  1.079 .      S
C214  H239  1.081 .      S
C215  H240  1.051 .      S
N72   Zn12  2.143 1_455  S
C217  N73   1.458 .      S
C217  H241  1.106 .      S
C217  H242  1.107 .      S
C217  H243  1.101 .      S
N73   C218  1.454 1_455  S
N73   H244  1.042 .      S
C218  N73   1.454 1_655  S
C218  C219  1.432 .      S
C218  H245  1.073 .      S
C218  H246  1.068 .      S
C221  H247  1.080 .      S
C222  H248  1.081 1_655  S
C223  H249  1.081 .      S
C224  H250  1.080 .      S
H248  C222  1.081 1_455  S
C226  N76   1.455 1_556  S
C226  H251  1.109 .      S
C226  H252  1.109 1_556  S
C226  H253  1.107 .      S
N76   C226  1.455 1_554  S
N76   C227  1.451 .      S
N76   H254  1.038 1_554  S
C227  C228  1.492 .      S
C227  H255  1.104 .      S
C227  H256  1.093 .      S
N77   Zn13  2.098 1_565  S
C230  H257  1.081 .      S
C231  H258  1.081 .      S
C232  H259  1.081 .      S
C233  H260  1.079 .      S
N78   Zn15  2.118 1_655  S
H252  C226  1.109 1_554  S
H254  N76   1.038 1_556  S
C235  N79   1.458 .      S
C235  H261  1.094 .      S
C235  H262  1.092 .      S
C235  H263  1.103 .      S
N79   C236  1.434 1_556  S
N79   H264  1.013 .      S
C236  N79   1.434 1_554  S
C236  C237  1.462 .      S
C236  H265  1.083 .      S
C236  H266  1.091 .      S
C239  H267  1.055 .      S
C240  H268  1.081 .      S
C241  H269  1.081 .      S
C242  H270  1.071 .      S
C244  N82   1.456 .      S
C244  H271  1.103 1_545  S
C244  H272  1.106 .      S
C244  H273  1.092 .      S
N82   C245  1.455 .      S
N82   H274  1.040 .      S
C245  C246  1.497 .      S
C245  H275  1.106 .      S
C245  H276  1.074 .      S
N83   Zn13  2.091 1_556  S
C248  H277  1.058 .      S
C249  H278  1.079 .      S
C250  H279  1.074 .      S
C251  H280  1.068 .      S
H271  C244  1.103 1_565  S
C253  N85   1.455 .      S
C253  H281  1.109 .      S
C253  H282  1.109 .      S
C253  H283  1.110 .      S
N85   C254  1.454 .      S
N85   H284  1.040 .      S
C254  C255  1.497 .      S
C254  H285  1.103 .      S
C254  H286  1.099 .      S
C257  H287  1.063 .      S
C258  H288  1.081 .      S
C259  H289  1.081 .      S
C260  H290  1.035 .      S
C262  N88   1.449 .      S
C262  H291  1.109 .      S
C262  H292  1.109 .      S
C262  H293  1.091 .      S
N88   C263  1.458 1_655  S
N88   H294  1.043 .      S
C263  N88   1.458 1_455  S
C263  C264  1.492 .      S
C263  H295  1.104 .      S
C263  H296  1.102 .      S
C266  H297  1.061 .      S
C267  H298  1.081 .      S
C268  H299  1.081 1_565  S
C269  H300  1.075 1_565  S
H299  C268  1.081 1_545  S
H300  C269  1.075 1_545  S
C271  N91   1.442 .      S
C271  H301  1.095 .      S
C271  H302  1.100 .      S
C271  H303  1.095 .      S
N91   C272  1.427 .      S
N91   H304  1.041 .      S
C272  C273  1.456 .      S
C272  H305  1.088 .      S
C272  H306  1.106 .      S
N92   Zn15  2.240 1_545  S
C275  H307  1.077 .      S
C276  H308  1.081 .      S
C277  H309  1.081 .      S
C278  H310  1.072 .      S
C280  N94   1.452 .      S
C280  H311  1.108 .      S
C280  H312  1.105 .      S
C280  H313  1.108 .      S
N94   C281  1.457 .      S
N94   H314  1.045 .      S
C281  C282  1.472 .      S
C281  H315  1.107 .      S
C281  H316  1.098 .      S
C284  H317  1.068 .      S
C285  H318  1.080 .      S
C286  H319  1.081 .      S
C287  H320  1.081 1_556  S
H320  C287  1.081 1_554  S
C289  N97   1.457 1_556  S
C289  H321  1.106 .      S
C289  H322  1.109 .      S
C289  H323  1.108 .      S
N97   C289  1.457 1_554  S
N97   C290  1.436 .      S
N97   H324  1.026 .      S
C290  C291  1.472 .      S
C290  H325  1.108 .      S
C290  H326  1.074 .      S
C293  H327  1.070 .      S
C294  H328  1.081 .      S
C295  H329  1.079 .      S
C296  H330  1.079 .      S
C298  N100  1.445 .      S
C298  H331  1.089 .      S
C298  H332  1.106 .      S
C298  H333  1.105 .      S
N100  C299  1.450 .      S
N100  H334  1.016 .      S
C299  C300  1.452 .      S
C299  H335  1.089 .      S
C299  H336  1.093 .      S
C302  H337  1.060 .      S
C303  H338  1.073 .      S
C304  H339  1.076 .      S
C305  H340  1.066 .      S
C307  N103  1.453 .      S
C307  H341  1.109 .      S
C307  H342  1.107 .      S
C307  H343  1.109 .      S
N103  C308  1.454 .      S
N103  H344  1.044 .      S
C308  C309  1.478 .      S
C308  H345  1.107 .      S
C308  H346  1.101 .      S
C311  H347  1.067 .      S
C312  H348  1.079 .      S
C313  H349  1.079 .      S
C314  H350  1.062 .      S
C316  N106  1.449 .      S
C316  H351  1.103 .      S
C316  H352  1.107 .      S
C316  H353  1.103 .      S
N106  C317  1.452 .      S
N106  H354  1.031 .      S
C317  C318  1.469 .      S
C317  H355  1.091 .      S
C317  H356  1.099 .      S
C320  H357  1.076 .      S
C321  H358  1.081 .      S
C322  H359  1.081 .      S
C323  H360  1.078 .      S
C325  N109  1.449 .      S
C325  H361  1.104 .      S
C325  H362  1.102 .      S
C325  H363  1.094 1_655  S
N109  C326  1.451 .      S
N109  H364  1.041 .      S
C326  C327  1.478 1_655  S
C326  H365  1.085 1_655  S
C326  H366  1.103 .      S
C327  C326  1.478 1_455  S
N110  Zn18  2.043 1_454  S
C329  H367  1.048 .      S
C330  H368  1.081 .      S
C331  H369  1.081 .      S
C332  H370  1.066 .      S
H363  C325  1.094 1_455  S
H365  C326  1.085 1_455  S
C334  N112  1.448 .      S
C334  H371  1.108 .      S
C334  H372  1.099 .      S
C334  H373  1.098 .      S
N112  C335  1.446 .      S
N112  H374  1.033 .      S
C335  C336  1.530 .      S
C335  H375  1.065 .      S
C335  H376  1.078 .      S
C338  H377  1.075 .      S
C339  H378  1.081 .      S
C340  H379  1.081 .      S
C341  H380  1.077 .      S
C343  N115  1.461 .      S
C343  H381  1.100 .      S
C343  H382  1.087 .      S
C343  H383  1.098 .      S
N115  C344  1.453 .      S
N115  H384  1.010 .      S
C344  C345  1.519 .      S
C344  H385  1.061 .      S
C344  H386  1.095 .      S
C347  H387  1.069 .      S
C348  H388  1.074 1_655  S
C349  H389  1.079 .      S
C350  H390  1.073 .      S
H388  C348  1.074 1_455  S
C352  N118  1.458 .      S
C352  H391  1.106 .      S
C352  H392  1.103 .      S
C352  H393  1.106 .      S
N118  C353  1.435 .      S
N118  H394  1.043 .      S
C353  C354  1.477 .      S
C353  H395  1.087 .      S
C353  H396  1.103 .      S
C356  H397  1.066 .      S
C357  H398  1.081 .      S
C358  H399  1.081 .      S
C359  H400  1.076 .      S
C361  N121  1.455 .      S
C361  H401  1.106 .      S
C361  H402  1.108 .      S
C361  H403  1.109 .      S
N121  C362  1.454 .      S
N121  H404  1.030 .      S
C362  C363  1.471 .      S
C362  H405  1.074 .      S
C362  H406  1.102 .      S
N122  Zn20  2.117 1_655  S
C365  H407  1.077 .      S
C366  H408  1.081 .      S
C367  H409  1.081 .      S
C368  H410  1.074 .      S
C370  N124  1.450 .      S
C370  H411  1.107 .      S
C370  H412  1.108 .      S
C370  H413  1.100 .      S
N124  C371  1.458 .      S
N124  H414  1.041 .      S
C371  C372  1.495 .      S
C371  H415  1.103 .      S
C371  H416  1.098 .      S
C374  H417  1.079 .      S
C375  H418  1.081 .      S
C376  H419  1.080 .      S
C377  H420  1.079 .      S
C379  N127  1.458 .      S
C379  H421  1.094 1_455  S
C379  H422  1.107 1_455  S
C379  H423  1.103 .      S
N127  C380  1.445 .      S
N127  H424  1.039 .      S
C380  C381  1.500 .      S
C380  H425  1.083 .      S
C380  H426  1.094 1_455  S
C383  H427  1.079 .      S
C384  H428  1.081 .      S
C385  H429  1.081 .      S
C386  H430  1.080 .      S
H421  C379  1.094 1_655  S
H422  C379  1.107 1_655  S
H426  C380  1.094 1_655  S
C388  N130  1.454 .      S
C388  H431  1.109 1_655  S
C388  H432  1.108 1_655  S
C388  H433  1.103 .      S
N130  C389  1.457 .      S
N130  H434  1.044 .      S
C389  C390  1.476 .      S
C389  H435  1.096 1_655  S
C389  H436  1.082 .      S
C392  H437  1.070 .      S
C393  H438  1.081 .      S
C394  H439  1.081 .      S
C395  H440  1.067 1_655  S
N132  Zn21  1.957 1_655  S
H431  C388  1.109 1_455  S
H432  C388  1.108 1_455  S
H435  C389  1.096 1_455  S
H440  C395  1.067 1_455  S
C397  N133  1.455 .      S
C397  H441  1.109 .      S
C397  H442  1.108 .      S
C397  H443  1.107 .      S
N133  C398  1.455 1_655  S
N133  H444  1.042 .      S
C398  N133  1.455 1_455  S
C398  C399  1.491 .      S
C398  H445  1.099 .      S
C398  H446  1.096 .      S
C401  H447  1.072 .      S
C402  H448  1.081 .      S
C403  H449  1.081 .      S
C404  H450  1.072 .      S
C406  N136  1.454 .      S
C406  H451  1.109 .      S
C406  H452  1.110 .      S
C406  H453  1.110 .      S
N136  C407  1.455 .      S
N136  H454  1.044 .      S
C407  C408  1.482 .      S
C407  H455  1.099 .      S
C407  H456  1.092 .      S
C410  H457  1.072 .      S
C411  H458  1.081 .      S
C412  H459  1.081 .      S
C413  H460  1.064 .      S
C415  N139  1.453 .      S
C415  H461  1.107 .      S
C415  H462  1.107 .      S
C415  H463  1.109 .      S
N139  C416  1.459 .      S
N139  H464  1.042 .      S
C416  C417  1.484 .      S
C416  H465  1.078 .      S
C416  H466  1.104 .      S
C419  H467  1.079 .      S
C420  H468  1.081 .      S
C421  H469  1.079 .      S
C422  H470  1.072 .      S
C424  N142  1.443 .      S
C424  H471  1.100 .      S
C424  H472  1.088 .      S
C424  H473  1.092 .      S
N142  C425  1.437 .      S
N142  H474  1.038 .      S
C425  C426  1.452 .      S
C425  H475  1.088 .      S
C425  H476  1.099 .      S
C428  H477  1.063 .      S
C429  H478  1.045 .      S
C430  H479  1.080 .      S
C431  H480  1.057 .      S
C3    N2    1.401 .      A
C3    N3    1.389 .      A
N2    C4    1.345 .      A
C4    C5    1.364 .      A
C4    C9    1.369 .      A
C5    C6    1.381 1_655  A
C6    C5    1.381 1_455  A
C6    C7    1.384 .      A
C7    C8    1.382 1_455  A
C8    C7    1.382 1_655  A
C8    C9    1.364 .      A
C9    N3    1.343 .      A
C12   N5    1.424 .      A
C12   N6    1.363 .      A
N5    C13   1.353 .      A
C13   C14   1.373 .      A
C13   C18   1.371 .      A
C14   C15   1.384 .      A
C15   C16   1.389 1_655  A
C16   C15   1.389 1_455  A
C16   C17   1.385 .      A
C17   C18   1.374 1_455  A
C18   C17   1.374 1_655  A
C18   N6    1.348 .      A
C21   N8    1.379 .      A
C21   N9    1.353 .      A
N8    C22   1.339 .      A
C22   C23   1.360 .      A
C22   C27   1.344 .      A
C23   C24   1.363 .      A
C24   C25   1.370 .      A
C25   C26   1.381 .      A
C26   C27   1.368 .      A
C27   N9    1.341 .      A
C30   N11   1.371 .      A
C30   N12   1.357 .      A
N11   C31   1.341 .      A
C31   C32   1.365 .      A
C31   C36   1.368 .      A
C32   C33   1.370 .      A
C33   C34   1.374 .      A
C34   C35   1.375 .      A
C35   C36   1.363 .      A
C36   N12   1.346 .      A
C39   N14   1.364 .      A
C39   N15   1.344 .      A
N14   C40   1.350 .      A
C40   C41   1.376 .      A
C40   C45   1.360 .      A
C41   C42   1.382 .      A
C42   C43   1.385 .      A
C43   C44   1.384 .      A
C44   C45   1.377 .      A
C45   N15   1.359 .      A
C48   N17   1.380 .      A
C48   N18   1.370 .      A
N17   C49   1.333 .      A
C49   C50   1.371 .      A
C49   C54   1.355 .      A
C50   C51   1.380 .      A
C51   C52   1.392 .      A
C52   C53   1.380 .      A
C53   C54   1.356 .      A
C54   N18   1.346 .      A
C57   N20   1.374 .      A
C57   N21   1.401 .      A
N20   C58   1.344 .      A
C58   C59   1.372 .      A
C58   C63   1.374 .      A
C59   C60   1.387 .      A
C60   C61   1.394 .      A
C61   C62   1.387 .      A
C62   C63   1.369 .      A
C63   N21   1.351 .      A
C66   N23   1.381 .      A
C66   N24   1.390 .      A
N23   C67   1.341 .      A
C67   C68   1.373 .      A
C67   C72   1.370 .      A
C68   C69   1.382 .      A
C69   C70   1.388 .      A
C70   C71   1.385 .      A
C71   C72   1.365 .      A
C72   N24   1.352 .      A
C75   N26   1.390 .      A
C75   N27   1.404 .      A
N26   C76   1.334 1_565  A
C76   N26   1.334 1_545  A
C76   C77   1.369 .      A
C76   C81   1.359 .      A
C77   C78   1.379 .      A
C78   C79   1.380 .      A
C79   C80   1.380 .      A
C80   C81   1.363 .      A
C81   N27   1.351 1_545  A
N27   C81   1.351 1_565  A
C84   N29   1.378 .      A
C84   N30   1.346 .      A
N29   C85   1.333 .      A
C85   C86   1.328 .      A
C85   C90   1.340 .      A
C86   C87   1.353 .      A
C87   C88   1.388 .      A
C88   C89   1.356 .      A
C89   C90   1.351 .      A
C90   N30   1.311 .      A
C93   N32   1.423 .      A
C93   N33   1.404 .      A
N32   C94   1.344 .      A
C94   C95   1.369 .      A
C94   C99   1.386 .      A
C95   C96   1.382 .      A
C96   C97   1.387 .      A
C97   C98   1.386 .      A
C98   C99   1.388 .      A
C99   N33   1.372 .      A
C102  N35   1.422 .      A
C102  N36   1.424 .      A
N35   C103  1.373 .      A
C103  C104  1.362 .      A
C103  C108  1.370 .      A
C104  C105  1.398 .      A
C105  C106  1.375 .      A
C106  C107  1.363 .      A
C107  C108  1.359 .      A
C108  N36   1.319 .      A
C111  N38   1.380 .      A
C111  N39   1.377 .      A
N38   C112  1.345 .      A
C112  C113  1.371 .      A
C112  C117  1.378 .      A
C113  C114  1.384 .      A
C114  C115  1.391 .      A
C115  C116  1.386 .      A
C116  C117  1.361 .      A
C117  N39   1.352 .      A
C120  N41   1.371 .      A
C120  N42   1.381 .      A
N41   C121  1.347 .      A
C121  C122  1.377 .      A
C121  C126  1.366 .      A
C122  C123  1.388 .      A
C123  C124  1.393 .      A
C124  C125  1.389 .      A
C125  C126  1.375 .      A
C126  N42   1.349 .      A
C129  N44   1.369 .      A
C129  N45   1.373 .      A
N44   C130  1.348 .      A
C130  C131  1.365 .      A
C130  C135  1.359 .      A
C131  C132  1.384 .      A
C132  C133  1.386 .      A
C133  C134  1.378 .      A
C134  C135  1.372 .      A
C135  N45   1.345 .      A
C138  N47   1.351 1_556  A
C138  N48   1.377 1_556  A
N47   C138  1.351 1_554  A
N47   C139  1.340 .      A
C139  C140  1.370 .      A
C139  C144  1.364 .      A
C140  C141  1.384 .      A
C141  C142  1.391 .      A
C142  C143  1.386 .      A
C143  C144  1.375 .      A
C144  N48   1.354 .      A
N48   C138  1.377 1_554  A
C147  N50   1.356 .      A
C147  N51   1.374 1_554  A
N50   C148  1.332 1_554  A
C148  N50   1.332 1_556  A
C148  C149  1.355 .      A
C148  C153  1.356 .      A
C149  C150  1.354 .      A
C150  C151  1.375 .      A
C151  C152  1.381 .      A
C152  C153  1.368 .      A
C153  N51   1.350 .      A
N51   C147  1.374 1_556  A
C156  N53   1.375 .      A
C156  N54   1.380 .      A
N53   C157  1.346 .      A
C157  C158  1.362 .      A
C157  C162  1.362 .      A
C158  C159  1.385 1_454  A
C159  C158  1.385 1_656  A
C159  C160  1.387 1_655  A
C160  C159  1.387 1_455  A
C160  C161  1.383 .      A
C161  C162  1.372 1_556  A
C162  C161  1.372 1_554  A
C162  N54   1.341 .      A
C165  N56   1.390 .      A
C165  N57   1.380 .      A
N56   C166  1.348 .      A
C166  C167  1.373 .      A
C166  C171  1.380 .      A
C167  C168  1.383 .      A
C168  C169  1.388 .      A
C169  C170  1.384 .      A
C170  C171  1.372 .      A
C171  N57   1.350 .      A
C174  N59   1.382 .      A
C174  N60   1.365 .      A
N59   C175  1.332 .      A
C175  C176  1.372 .      A
C175  C180  1.371 .      A
C176  C177  1.376 .      A
C177  C178  1.382 .      A
C178  C179  1.384 .      A
C179  C180  1.388 .      A
C180  N60   1.374 .      A
C183  N62   1.386 .      A
C183  N63   1.406 .      A
N62   C184  1.347 .      A
C184  C185  1.373 .      A
C184  C189  1.374 .      A
C185  C186  1.383 .      A
C186  C187  1.388 .      A
C187  C188  1.384 .      A
C188  C189  1.374 .      A
C189  N63   1.355 .      A
C192  N65   1.362 .      A
C192  N66   1.334 .      A
N65   C193  1.343 .      A
C193  C194  1.370 .      A
C193  C198  1.355 .      A
C194  C195  1.378 .      A
C195  C196  1.382 .      A
C196  C197  1.384 .      A
C197  C198  1.384 .      A
C198  N66   1.351 .      A
C201  N68   1.427 .      A
C201  N69   1.417 .      A
N68   C202  1.360 .      A
C202  C203  1.374 .      A
C202  C207  1.398 .      A
C203  C204  1.386 .      A
C204  C205  1.390 .      A
C205  C206  1.384 .      A
C206  C207  1.371 .      A
C207  N69   1.351 .      A
C210  N71   1.391 .      A
C210  N72   1.399 .      A
N71   C211  1.347 .      A
C211  C212  1.371 .      A
C211  C216  1.350 .      A
C212  C213  1.380 1_455  A
C213  C212  1.380 1_655  A
C213  C214  1.384 .      A
C214  C215  1.381 .      A
C215  C216  1.357 1_655  A
C216  C215  1.357 1_455  A
C216  N72   1.340 .      A
C219  N74   1.393 .      A
C219  N75   1.385 .      A
N74   C220  1.344 .      A
C220  C221  1.366 1_655  A
C220  C225  1.379 .      A
C221  C220  1.366 1_455  A
C221  C222  1.383 1_455  A
C222  C221  1.383 1_655  A
C222  C223  1.388 .      A
C223  C224  1.385 .      A
C224  C225  1.384 .      A
C225  N75   1.366 .      A
C228  N77   1.380 .      A
C228  N78   1.395 .      A
N77   C229  1.347 .      A
C229  C230  1.374 .      A
C229  C234  1.361 .      A
C230  C231  1.385 .      A
C231  C232  1.392 .      A
C232  C233  1.384 .      A
C233  C234  1.372 .      A
C234  N78   1.346 .      A
C237  N80   1.386 .      A
C237  N81   1.363 .      A
N80   C238  1.362 .      A
C238  C239  1.373 .      A
C238  C243  1.362 .      A
C239  C240  1.383 .      A
C240  C241  1.383 .      A
C241  C242  1.379 .      A
C242  C243  1.369 .      A
C243  N81   1.341 .      A
C246  N83   1.364 .      A
C246  N84   1.361 .      A
N83   C247  1.338 1_556  A
C247  N83   1.338 1_554  A
C247  C248  1.368 1_554  A
C247  C252  1.369 1_554  A
C248  C247  1.368 1_556  A
C248  C249  1.372 1_655  A
C249  C248  1.372 1_455  A
C249  C250  1.375 .      A
C250  C251  1.368 .      A
C251  C252  1.374 1_455  A
C252  C247  1.369 1_556  A
C252  C251  1.374 1_655  A
C252  N84   1.345 .      A
C255  N86   1.428 .      A
C255  N87   1.416 .      A
N86   C256  1.333 .      A
C256  C257  1.364 .      A
C256  C261  1.367 .      A
C257  C258  1.377 .      A
C258  C259  1.380 .      A
C259  C260  1.382 .      A
C260  C261  1.356 .      A
C261  N87   1.364 .      A
C264  N89   1.424 .      A
C264  N90   1.417 .      A
N89   C265  1.365 .      A
C265  C266  1.378 .      A
C265  C270  1.384 .      A
C266  C267  1.383 .      A
C267  C268  1.383 .      A
C268  C269  1.379 .      A
C269  C270  1.373 .      A
C270  N90   1.343 .      A
C273  N92   1.394 .      A
C273  N93   1.420 .      A
N92   C274  1.351 .      A
C274  C275  1.376 .      A
C274  C279  1.390 .      A
C275  C276  1.383 .      A
C276  C277  1.388 .      A
C277  C278  1.384 .      A
C278  C279  1.372 .      A
C279  N93   1.359 .      A
C282  N95   1.386 1_554  A
C282  N96   1.375 .      A
N95   C282  1.386 1_556  A
N95   C283  1.356 .      A
C283  C284  1.369 .      A
C283  C288  1.369 .      A
C284  C285  1.386 .      A
C285  C286  1.389 .      A
C286  C287  1.382 .      A
C287  C288  1.374 .      A
C288  N96   1.344 1_556  A
N96   C288  1.344 1_554  A
C291  N98   1.390 .      A
C291  N99   1.396 .      A
N98   C292  1.346 .      A
C292  C293  1.369 .      A
C292  C297  1.368 .      A
C293  C294  1.383 .      A
C294  C295  1.390 .      A
C295  C296  1.384 .      A
C296  C297  1.360 .      A
C297  N99   1.344 .      A
C300  N101  1.374 .      A
C300  N102  1.368 .      A
N101  C301  1.343 .      A
C301  C302  1.348 .      A
C301  C306  1.346 .      A
C302  C303  1.364 .      A
C303  C304  1.389 .      A
C304  C305  1.371 .      A
C305  C306  1.358 .      A
C306  N102  1.326 .      A
C309  N104  1.400 .      A
C309  N105  1.389 .      A
N104  C310  1.339 .      A
C310  C311  1.357 .      A
C310  C315  1.360 .      A
C311  C312  1.377 .      A
C312  C313  1.385 .      A
C313  C314  1.383 .      A
C314  C315  1.369 .      A
C315  N105  1.348 .      A
C318  N107  1.360 .      A
C318  N108  1.377 .      A
N107  C319  1.347 .      A
C319  C320  1.369 .      A
C319  C324  1.370 .      A
C320  C321  1.385 .      A
C321  C322  1.391 .      A
C322  C323  1.385 .      A
C323  C324  1.374 .      A
C324  N108  1.348 .      A
C327  N110  1.382 .      A
C327  N111  1.373 .      A
N110  C328  1.329 .      A
C328  C329  1.357 1_554  A
C328  C333  1.359 .      A
C329  C328  1.357 1_556  A
C329  C330  1.370 .      A
C330  C331  1.373 .      A
C331  C332  1.382 1_556  A
C332  C331  1.382 1_554  A
C332  C333  1.404 .      A
C333  N111  1.387 .      A
C336  N113  1.364 .      A
C336  N114  1.348 .      A
N113  C337  1.348 .      A
C337  C338  1.375 .      A
C337  C342  1.352 .      A
C338  C339  1.382 .      A
C339  C340  1.387 .      A
C340  C341  1.385 .      A
C341  C342  1.377 .      A
C342  N114  1.355 .      A
C345  N116  1.356 .      A
C345  N117  1.399 .      A
N116  C346  1.352 .      A
C346  C347  1.377 .      A
C346  C351  1.358 .      A
C347  C348  1.392 .      A
C348  C349  1.389 .      A
C349  C350  1.382 .      A
C350  C351  1.371 .      A
C351  N117  1.337 .      A
C354  N119  1.353 .      A
C354  N120  1.360 .      A
N119  C355  1.349 .      A
C355  C356  1.376 .      A
C355  C360  1.340 .      A
C356  C357  1.385 .      A
C357  C358  1.387 .      A
C358  C359  1.383 .      A
C359  C360  1.364 .      A
C360  N120  1.333 .      A
C363  N122  1.350 .      A
C363  N123  1.412 .      A
N122  C364  1.359 .      A
C364  C365  1.380 .      A
C364  C369  1.360 .      A
C365  C366  1.386 .      A
C366  C367  1.389 .      A
C367  C368  1.382 .      A
C368  C369  1.367 .      A
C369  N123  1.341 .      A
C372  N125  1.398 .      A
C372  N126  1.385 .      A
N125  C373  1.342 .      A
C373  C374  1.372 .      A
C373  C378  1.374 .      A
C374  C375  1.383 .      A
C375  C376  1.390 .      A
C376  C377  1.386 .      A
C377  C378  1.373 .      A
C378  N126  1.353 .      A
C381  N128  1.427 .      A
C381  N129  1.431 .      A
N128  C382  1.362 .      A
C382  C383  1.376 .      A
C382  C387  1.396 .      A
C383  C384  1.385 .      A
C384  C385  1.389 .      A
C385  C386  1.383 .      A
C386  C387  1.374 .      A
C387  N129  1.352 .      A
C390  N131  1.357 .      A
C390  N132  1.368 .      A
N131  C391  1.336 .      A
C391  C392  1.371 .      A
C391  C396  1.343 .      A
C392  C393  1.385 .      A
C393  C394  1.390 .      A
C394  C395  1.388 .      A
C395  C396  1.368 .      A
C396  N132  1.346 .      A
C399  N134  1.425 .      A
C399  N135  1.421 .      A
N134  C400  1.351 .      A
C400  C401  1.352 .      A
C400  C405  1.374 .      A
C401  C402  1.389 .      A
C402  C403  1.381 .      A
C403  C404  1.377 .      A
C404  C405  1.366 .      A
C405  N135  1.337 .      A
C408  N137  1.374 .      A
C408  N138  1.365 .      A
N137  C409  1.336 .      A
C409  C410  1.373 .      A
C409  C414  1.366 .      A
C410  C411  1.378 .      A
C411  C412  1.380 .      A
C412  C413  1.382 .      A
C413  C414  1.378 .      A
C414  N138  1.358 .      A
C417  N140  1.364 .      A
C417  N141  1.388 .      A
N140  C418  1.338 .      A
C418  C419  1.370 .      A
C418  C423  1.360 .      A
C419  C420  1.383 .      A
C420  C421  1.389 .      A
C421  C422  1.385 .      A
C422  C423  1.374 .      A
C423  N141  1.354 .      A
C426  N143  1.375 .      A
C426  N144  1.357 .      A
N143  C427  1.326 .      A
C427  C428  1.333 .      A
C427  C432  1.331 .      A
C428  C429  1.354 .      A
C429  C430  1.366 .      A
C430  C431  1.358 .      A
C431  C432  1.369 .      A
C432  N144  1.335 .      A
