data_str_m1_o12435_ITG
_audit_creation_date              2015-10-01T06:33:06-0700
_symmetry_space_group_name_H-M    P1
_symmetry_Int_Tables_number       1
_space_group_crystal_system       triclinic
loop_
_symmetry_equiv_pos_as_xyz
  x,y,z
_cell_length_a                    25.5064641
_cell_length_b                    25.3137640
_cell_length_c                    41.7684678
_cell_angle_alpha                 92.3075399
_cell_angle_beta                  89.8282807
_cell_angle_gamma                 91.3649570
_cell_volume                      26938.8509074

loop_
_atom_site_label
_atom_site_type_symbol
_atom_site_description
_atom_site_fract_x
_atom_site_fract_y
_atom_site_fract_z
_atom_type_partial_charge
Zn1   Zn    Zn3+2 0.105398 0.712469 0.649683 0.000000
Zn2   Zn    Zn3+2 0.437666 0.728730 0.722151 0.000000
Zn3   Zn    Zn3+2 0.207394 0.336628 0.771602 0.000000
Zn4   Zn    Zn3+2 0.146994 0.540012 0.854779 0.000000
Zn5   Zn    Zn3+2 0.227101 0.730096 0.780760 0.000000
Zn6   Zn    Zn3+2 0.415764 0.098423 0.716942 0.000000
Zn7   Zn    Zn3+2 0.166774 0.839782 0.237416 0.000000
Zn8   Zn    Zn3+2 0.186745 0.596107 0.238693 0.000000
Zn9   Zn    Zn3+2 0.574728 0.840631 0.482943 0.000000
Zn10  Zn    Zn3+2 0.302727 0.842763 0.362122 0.000000
Zn11  Zn    Zn3+2 0.580727 0.919319 0.733684 0.000000
Zn12  Zn    Zn3+2 0.311549 0.897331 0.125802 0.000000
Zn13  Zn    Zn3+2 0.318069 0.522481 0.118338 0.000000
Zn14  Zn    Zn3+2 0.705503 0.835630 0.611573 0.000000
Zn15  Zn    Zn3+2 0.718586 0.592080 0.610187 0.000000
Zn16  Zn    Zn3+2 0.575549 0.530183 0.723892 0.000000
Zn17  Zn    Zn3+2 0.280258 0.322748 0.576091 0.000000
Zn18  Zn    Zn3+2 0.573217 0.591216 0.488642 0.000000
Zn19  Zn    Zn3+2 0.304066 0.595567 0.371460 0.000000
Zn20  Zn    Zn3+2 0.286972 0.091777 0.592108 0.000000
Zn21  Zn    Zn3+2 0.803681 0.350452 0.189680 0.000000
Zn22  Zn    Zn3+2 0.073720 0.319152 0.646498 0.000000
Zn23  Zn    Zn3+2 0.798246 0.718266 0.201727 0.000000
Zn24  Zn    Zn3+2 0.459140 0.710821 0.145848 0.000000
Zn25  Zn    Zn3+2 0.585947 0.711407 0.269367 0.000000
Zn26  Zn    Zn3+2 0.347722 0.899980 0.501718 0.000000
Zn27  Zn    Zn3+2 0.666754 0.717184 0.077251 0.000000
Zn28  Zn    Zn3+2 0.535124 0.531956 0.350449 0.000000
Zn29  Zn    Zn3+2 0.536893 0.911372 0.343331 0.000000
Zn30  Zn    Zn3+2 0.938842 0.907375 0.198589 0.000000
Zn31  Zn    Zn3+2 0.936753 0.884851 0.658031 0.000000
Zn32  Zn    Zn3+2 0.350036 0.520428 0.508502 0.000000
Zn33  Zn    Zn3+2 0.944520 0.525899 0.660418 0.000000
Zn34  Zn    Zn3+2 0.937853 0.595350 0.796536 0.000000
Zn35  Zn    Zn3+2 0.413844 0.334235 0.701013 0.000000
Zn36  Zn    Zn3+2 0.810364 0.113474 0.194088 0.000000
Zn37  Zn    Zn3+2 0.075978 0.087832 0.660402 0.000000
Zn38  Zn    Zn3+2 0.136538 0.906594 0.863048 0.000000
Zn39  Zn    Zn3+2 0.960019 0.544438 0.192485 0.000000
Zn40  Zn    Zn3+2 0.736466 0.528127 0.990694 0.000000
Zn41  Zn    Zn3+2 0.744799 0.895918 0.994453 0.000000
Zn42  Zn    Zn3+2 0.955930 0.837428 0.056425 0.000000
Zn43  Zn    Zn3+2 0.925774 0.831602 0.797166 0.000000
Zn44  Zn    Zn3+2 0.711403 0.842268 0.851892 0.000000
Zn45  Zn    Zn3+2 0.953774 0.596558 0.051374 0.000000
Zn46  Zn    Zn3+2 0.320943 0.717715 0.591697 0.000000
Zn47  Zn    Zn3+2 0.174971 0.833671 0.007562 0.000000
Zn48  Zn    Zn3+2 0.594799 0.335983 0.258931 0.000000
Zn49  Zn    Zn3+2 0.599006 0.104373 0.263681 0.000000
Zn50  Zn    Zn3+2 0.680784 0.330063 0.066639 0.000000
Zn51  Zn    Zn3+2 0.682100 0.095270 0.075964 0.000000
Zn52  Zn    Zn3+2 0.199464 0.106200 0.786223 0.000000
Zn53  Zn    Zn3+2 0.473068 0.329632 0.133501 0.000000
Zn54  Zn    Zn3+2 0.168893 0.584588 0.002649 0.000000
Zn55  Zn    Zn3+2 0.708588 0.598523 0.846165 0.000000
Zn56  Zn    Zn3+2 0.473527 0.089968 0.140130 0.000000
Br1   Br    Br    0.341641 0.940446 0.637660 0.000000
C1    C     C_R   0.341183 0.873703 0.656149 0.000000
C2    C     C_R   0.360479 0.872488 0.686863 0.000000
C3    C     C_R   0.374916 0.825579 0.698839 0.000000
C4    C     C_R   0.374718 0.782138 0.678199 0.000000
N1    N     N_R   0.399138 0.736393 0.681769 0.000000
C5    C     C_R   0.384747 0.706821 0.654925 0.000000
N2    N     N_R   0.353232 0.733598 0.634801 0.000000
C6    C     C_R   0.348641 0.781272 0.650061 0.000000
C7    C     C_R   0.329399 0.827215 0.638517 0.000000
H1    H     H_    0.367201 0.908879 0.700814 0.000000
H2    H     H_    0.387145 0.824741 0.723242 0.000000
H3    H     H_    0.396695 0.666699 0.650266 0.000000
H4    H     H_    0.312186 0.828250 0.614988 0.000000
Br2   Br    Br    0.489426 0.325794 0.829457 0.000000
C8    C     C_R   0.423233 0.334104 0.809475 0.000000
C9    C     C_R   0.378148 0.338197 0.827951 0.000000
C10   C     C_R   0.329639 0.344629 0.813843 0.000000
C11   C     C_R   0.327074 0.343168 0.781132 0.000000
N3    N     N_R   0.284821 0.343571 0.761639 0.000000
C12   C     C_R   0.307040 0.345949 0.731868 0.000000
N4    N     N_R   0.360155 0.344242 0.732500 0.000000
C13   C     C_R   0.371619 0.342174 0.763518 0.000000
C14   C     C_R   0.420331 0.337240 0.776672 0.000000
H5    H     H_    0.381376 0.336429 0.853595 0.000000
H6    H     H_    0.296022 0.353345 0.828102 0.000000
H7    H     H_    0.284831 0.347124 0.710085 0.000000
H8    H     H_    0.455113 0.334931 0.761986 0.000000
Br3   Br    Br    0.284602 0.595702 0.740800 0.000000
C15   C     C_R   0.257440 0.534021 0.759667 0.000000
C16   C     C_R   0.256469 0.488646 0.740535 0.000000
C17   C     C_R   0.234066 0.443232 0.751415 0.000000
C18   C     C_R   0.213840 0.444226 0.781777 0.000000
N5    N     N_R   0.189110 0.404030 0.795462 0.000000
C19   C     C_R   0.166075 0.428086 0.821982 0.000000
N6    N     N_R   0.177541 0.481607 0.825132 0.000000
C20   C     C_R   0.209523 0.489532 0.799704 0.000000
C21   C     C_R   0.234216 0.534887 0.789780 0.000000
H9    H     H_    0.271630 0.489697 0.716559 0.000000
H10   H     H_    0.228165 0.409736 0.735191 0.000000
H11   H     H_    0.141681 0.407144 0.838716 0.000000
H12   H     H_    0.237036 0.569408 0.804827 0.000000
Br4   Br    Br    0.333515 0.628870 0.916531 0.000000
C22   C     C_R   0.279589 0.657879 0.892051 0.000000
C23   C     C_R   0.286869 0.706958 0.879457 0.000000
C24   C     C_R   0.257721 0.720021 0.853325 0.000000
C25   C     C_R   0.217756 0.685871 0.842551 0.000000
N7    N     N_R   0.197207 0.681784 0.812700 0.000000
C26   C     C_R   0.167538 0.636131 0.812902 0.000000
N8    N     N_R   0.172757 0.610024 0.840788 0.000000
C27   C     C_R   0.205722 0.641477 0.858397 0.000000
C28   C     C_R   0.239283 0.624945 0.881361 0.000000
H13   H     H_    0.320798 0.731088 0.886402 0.000000
H14   H     H_    0.272639 0.751737 0.839690 0.000000
H15   H     H_    0.148284 0.618772 0.791879 0.000000
H16   H     H_    0.241965 0.584261 0.886233 0.000000
Br5   Br    Br    0.479185 0.604432 0.835937 0.000000
C29   C     C_R   0.420503 0.631933 0.815621 0.000000
C30   C     C_R   0.370571 0.620956 0.826753 0.000000
C31   C     C_R   0.328007 0.645028 0.813839 0.000000
C32   C     C_R   0.336324 0.680635 0.790365 0.000000
N9    N     N_R   0.302027 0.710809 0.774679 0.000000
C33   C     C_R   0.331345 0.728859 0.750028 0.000000
N10   N     N_R   0.381896 0.713016 0.750820 0.000000
C34   C     C_R   0.384139 0.683662 0.776492 0.000000
C35   C     C_R   0.427684 0.662305 0.789389 0.000000
H17   H     H_    0.364858 0.593783 0.845816 0.000000
H18   H     H_    0.290050 0.632925 0.820974 0.000000
H19   H     H_    0.315925 0.753095 0.731876 0.000000
H20   H     H_    0.466545 0.670562 0.780532 0.000000
Br6   Br    Br    0.255379 0.933660 0.723073 0.000000
C36   C     C_R   0.226453 0.866878 0.708382 0.000000
C37   C     C_R   0.196583 0.863486 0.680763 0.000000
C38   C     C_R   0.170492 0.816824 0.671661 0.000000
C39   C     C_R   0.173279 0.775453 0.691798 0.000000
N11   N     N_R   0.146215 0.729484 0.689751 0.000000
C40   C     C_R   0.160751 0.704999 0.717075 0.000000
N12   N     N_R   0.195060 0.734945 0.735975 0.000000
C41   C     C_R   0.203177 0.778195 0.718545 0.000000
C42   C     C_R   0.231554 0.823184 0.726734 0.000000
H21   H     H_    0.192207 0.898265 0.667226 0.000000
H22   H     H_    0.146430 0.814256 0.650452 0.000000
H23   H     H_    0.145050 0.667277 0.724048 0.000000
H24   H     H_    0.253979 0.825782 0.747930 0.000000
Br7   Br    Br    0.649849 0.161009 0.696059 0.000000
C43   C     C_R   0.585079 0.196421 0.700856 0.000000
C44   C     C_R   0.584265 0.250958 0.699043 0.000000
C45   C     C_R   0.537626 0.277145 0.702508 0.000000
C46   C     C_R   0.492816 0.247547 0.707709 0.000000
N13   N     N_R   0.443870 0.264899 0.711394 0.000000
C47   C     C_R   0.415680 0.220371 0.718880 0.000000
N14   N     N_R   0.444052 0.175155 0.716772 0.000000
C48   C     C_R   0.493208 0.194060 0.710371 0.000000
C49   C     C_R   0.539531 0.167447 0.706527 0.000000
H25   H     H_    0.620273 0.273060 0.694913 0.000000
H26   H     H_    0.536887 0.319571 0.701408 0.000000
H27   H     H_    0.375453 0.221307 0.726532 0.000000
H28   H     H_    0.541976 0.125462 0.707937 0.000000
Br8   Br    Br    0.450471 0.036773 0.854970 0.000000
C50   C     C_R   0.392915 0.054063 0.829108 0.000000
C51   C     C_R   0.344920 0.061762 0.843465 0.000000
C52   C     C_R   0.301782 0.069274 0.824789 0.000000
C53   C     C_R   0.308733 0.076433 0.792777 0.000000
N15   N     N_R   0.272756 0.090611 0.771664 0.000000
C54   C     C_R   0.301880 0.098358 0.744458 0.000000
N16   N     N_R   0.354394 0.088497 0.748144 0.000000
C55   C     C_R   0.356640 0.073776 0.778908 0.000000
C56   C     C_R   0.398416 0.057572 0.796336 0.000000
H29   H     H_    0.340465 0.057987 0.869022 0.000000
H30   H     H_    0.264506 0.071580 0.835778 0.000000
H31   H     H_    0.285338 0.113129 0.722985 0.000000
H32   H     H_    0.433254 0.044275 0.785280 0.000000
Br9   Br    Br    0.104875 0.637657 0.112714 0.000000
C57   C     C_R   0.126504 0.680157 0.149180 0.000000
C58   C     C_R   0.122046 0.734746 0.149252 0.000000
C59   C     C_R   0.136733 0.765658 0.175948 0.000000
C60   C     C_R   0.156332 0.740597 0.201749 0.000000
N17   N     N_R   0.171457 0.762426 0.230114 0.000000
C61   C     C_R   0.185211 0.719759 0.247281 0.000000
N18   N     N_R   0.178970 0.672627 0.230159 0.000000
C62   C     C_R   0.160829 0.687473 0.201699 0.000000
C63   C     C_R   0.145802 0.656051 0.175674 0.000000
H33   H     H_    0.106452 0.753104 0.128499 0.000000
H34   H     H_    0.132470 0.807913 0.176318 0.000000
H35   H     H_    0.198340 0.722828 0.271890 0.000000
H36   H     H_    0.147129 0.613824 0.175945 0.000000
Br10  Br    Br    0.071529 0.012646 0.323485 0.000000
C64   C     C_R   0.129467 0.966899 0.326039 0.000000
C65   C     C_R   0.159837 0.967910 0.353452 0.000000
C66   C     C_R   0.201368 0.934311 0.355601 0.000000
C67   C     C_R   0.211635 0.899972 0.330001 0.000000
N19   N     N_R   0.249819 0.863860 0.327263 0.000000
C68   C     C_R   0.241119 0.841256 0.297052 0.000000
N20   N     N_R   0.199195 0.861895 0.281381 0.000000
C69   C     C_R   0.182112 0.899238 0.302841 0.000000
C70   C     C_R   0.140608 0.932745 0.300451 0.000000
H37   H     H_    0.151114 0.995181 0.373221 0.000000
H38   H     H_    0.225751 0.936505 0.376624 0.000000
H39   H     H_    0.263785 0.808954 0.287123 0.000000
H40   H     H_    0.115710 0.932583 0.279915 0.000000
Br11  Br    Br    0.063954 0.433672 0.314494 0.000000
C71   C     C_R   0.124130 0.478360 0.321958 0.000000
C72   C     C_R   0.156369 0.470123 0.347858 0.000000
C73   C     C_R   0.199374 0.503122 0.353936 0.000000
C74   C     C_R   0.209791 0.542764 0.333167 0.000000
N21   N     N_R   0.249345 0.579009 0.334711 0.000000
C75   C     C_R   0.242807 0.605327 0.306653 0.000000
N22   N     N_R   0.203251 0.584501 0.287188 0.000000
C76   C     C_R   0.181486 0.547233 0.305783 0.000000
C77   C     C_R   0.136063 0.517877 0.301012 0.000000
H41   H     H_    0.147340 0.438341 0.363648 0.000000
H42   H     H_    0.225135 0.496541 0.373749 0.000000
H43   H     H_    0.267346 0.638092 0.299763 0.000000
H44   H     H_    0.108590 0.526727 0.282858 0.000000
Br12  Br    Br    0.374486 0.767287 0.435618 0.000000
C78   C     C_R   0.440413 0.735525 0.438413 0.000000
C79   C     C_R   0.443164 0.681329 0.436111 0.000000
C80   C     C_R   0.487293 0.657356 0.446766 0.000000
C81   C     C_R   0.525103 0.687135 0.461983 0.000000
N23   N     N_R   0.564381 0.670873 0.480506 0.000000
C82   C     C_R   0.587951 0.718335 0.490417 0.000000
N24   N     N_R   0.563837 0.761813 0.478605 0.000000
C83   C     C_R   0.524390 0.740275 0.461297 0.000000
C84   C     C_R   0.483509 0.765617 0.448058 0.000000
H45   H     H_    0.409534 0.657817 0.428036 0.000000
H46   H     H_    0.489628 0.616426 0.446208 0.000000
H47   H     H_    0.621356 0.721285 0.506312 0.000000
H48   H     H_    0.482170 0.807739 0.448140 0.000000
Br13  Br    Br    0.098418 0.635175 0.376496 0.000000
C85   C     C_R   0.159658 0.678862 0.372001 0.000000
C86   C     C_R   0.155639 0.729739 0.361916 0.000000
C87   C     C_R   0.200078 0.761293 0.358650 0.000000
C88   C     C_R   0.248335 0.741176 0.365464 0.000000
N25   N     N_R   0.296662 0.763853 0.364097 0.000000
C89   C     C_R   0.328974 0.722031 0.368668 0.000000
N26   N     N_R   0.301784 0.675144 0.372872 0.000000
C90   C     C_R   0.251820 0.690109 0.372280 0.000000
C91   C     C_R   0.208495 0.659099 0.377166 0.000000
H49   H     H_    0.117658 0.744724 0.356341 0.000000
H50   H     H_    0.195207 0.799307 0.349607 0.000000
H51   H     H_    0.371283 0.725438 0.367905 0.000000
H52   H     H_    0.213366 0.619918 0.384004 0.000000
Br14  Br    Br    0.589200 0.070104 0.850784 0.000000
C92   C     C_R   0.563889 0.072586 0.808267 0.000000
C93   C     C_R   0.532787 0.114115 0.800386 0.000000
C94   C     C_R   0.504467 0.111255 0.772353 0.000000
C95   C     C_R   0.509118 0.066753 0.752555 0.000000
N27   N     N_R   0.477300 0.051396 0.728035 0.000000
C96   C     C_R   0.496718 0.002843 0.718555 0.000000
N28   N     N_R   0.538515 0.987772 0.736820 0.000000
C97   C     C_R   0.543704 0.028324 0.758685 0.000000
C98   C     C_R   0.570816 0.029907 0.787109 0.000000
H53   H     H_    0.526835 0.146475 0.817583 0.000000
H54   H     H_    0.475374 0.140331 0.768358 0.000000
H55   H     H_    0.480056 0.978331 0.699193 0.000000
H56   H     H_    0.592501 0.997072 0.794751 0.000000
Br15  Br    Br    0.504122 0.911123 0.862473 0.000000
C99   C     C_R   0.487469 0.876605 0.822429 0.000000
C100  C     C_R   0.449738 0.836463 0.820941 0.000000
C101  C     C_R   0.441187 0.806969 0.792866 0.000000
C102  C     C_R   0.469885 0.819668 0.766228 0.000000
N29   N     N_R   0.470339 0.796236 0.736610 0.000000
C103  C     C_R   0.504704 0.826826 0.719993 0.000000
N30   N     N_R   0.527034 0.866255 0.738706 0.000000
C104  C     C_R   0.503912 0.861311 0.767316 0.000000
C105  C     C_R   0.513449 0.890917 0.795008 0.000000
H57   H     H_    0.426117 0.828630 0.841762 0.000000
H58   H     H_    0.411134 0.777221 0.792600 0.000000
H59   H     H_    0.518418 0.815916 0.696402 0.000000
H60   H     H_    0.540902 0.923615 0.795797 0.000000
Br16  Br    Br    0.658543 0.055201 0.583109 0.000000
C106  C     C_R   0.647670 0.011460 0.618731 0.000000
C107  C     C_R   0.622130 0.031370 0.645854 0.000000
C108  C     C_R   0.612058 0.999786 0.671543 0.000000
C109  C     C_R   0.626401 0.947785 0.668929 0.000000
N31   N     N_R   0.618435 0.909243 0.689986 0.000000
C110  C     C_R   0.641439 0.866394 0.674524 0.000000
N32   N     N_R   0.664574 0.877867 0.645723 0.000000
C111  C     C_R   0.653145 0.928941 0.642692 0.000000
C112  C     C_R   0.664790 0.959991 0.617316 0.000000
H61   H     H_    0.609839 0.071935 0.646890 0.000000
H62   H     H_    0.594063 0.016475 0.692683 0.000000
H63   H     H_    0.639476 0.826970 0.683015 0.000000
H64   H     H_    0.685828 0.944901 0.596692 0.000000
Br17  Br    Br    0.154750 0.068299 0.240267 0.000000
C113  C     C_R   0.183270 0.016368 0.211298 0.000000
C114  C     C_R   0.212207 0.031628 0.184962 0.000000
C115  C     C_R   0.236011 0.994153 0.165145 0.000000
C116  C     C_R   0.230394 0.941795 0.172213 0.000000
N33   N     N_R   0.253352 0.899123 0.158339 0.000000
C117  C     C_R   0.236777 0.858675 0.177153 0.000000
N34   N     N_R   0.204868 0.875167 0.201887 0.000000
C118  C     C_R   0.201720 0.927301 0.197904 0.000000
C119  C     C_R   0.177152 0.963478 0.217502 0.000000
H65   H     H_    0.217042 0.073120 0.180204 0.000000
H66   H     H_    0.258472 0.006704 0.145310 0.000000
H67   H     H_    0.249709 0.818470 0.173796 0.000000
H68   H     H_    0.155157 0.951184 0.237641 0.000000
Br18  Br    Br    0.315764 0.146699 0.039681 0.000000
C120  C     C_R   0.321224 0.091647 0.069212 0.000000
C121  C     C_R   0.286191 0.049056 0.067329 0.000000
C122  C     C_R   0.292100 0.007336 0.087103 0.000000
C123  C     C_R   0.335455 0.007724 0.106687 0.000000
N35   N     N_R   0.350480 0.969139 0.125611 0.000000
C124  C     C_R   0.395346 0.990482 0.139728 0.000000
N36   N     N_R   0.408725 0.040490 0.129858 0.000000
C125  C     C_R   0.369391 0.049920 0.109220 0.000000
C126  C     C_R   0.361045 0.093716 0.091697 0.000000
H69   H     H_    0.254168 0.048498 0.050418 0.000000
H70   H     H_    0.263567 0.975282 0.086813 0.000000
H71   H     H_    0.418468 0.969197 0.156147 0.000000
H72   H     H_    0.383709 0.129131 0.095001 0.000000
Br19  Br    Br    0.472946 0.530307 0.217034 0.000000
C127  C     C_R   0.398894 0.536696 0.216330 0.000000
C128  C     C_R   0.371809 0.548526 0.244357 0.000000
C129  C     C_R   0.318415 0.556662 0.243831 0.000000
C130  C     C_R   0.293167 0.553802 0.214916 0.000000
N37   N     N_R   0.243067 0.565405 0.207968 0.000000
C131  C     C_R   0.241123 0.554982 0.175281 0.000000
N38   N     N_R   0.287950 0.538785 0.162331 0.000000
C132  C     C_R   0.319545 0.539011 0.187849 0.000000
C133  C     C_R   0.372403 0.530673 0.187709 0.000000
H73   H     H_    0.392909 0.553215 0.266680 0.000000
H74   H     H_    0.298401 0.565497 0.265520 0.000000
H75   H     H_    0.206844 0.559548 0.160809 0.000000
H76   H     H_    0.393331 0.522775 0.165781 0.000000
Br20  Br    Br    0.264351 0.229869 0.101456 0.000000
C134  C     C_R   0.295107 0.299056 0.101226 0.000000
C135  C     C_R   0.267276 0.339990 0.088927 0.000000
C136  C     C_R   0.286423 0.391442 0.092077 0.000000
C137  C     C_R   0.331707 0.401020 0.109046 0.000000
N39   N     N_R   0.354915 0.448097 0.117458 0.000000
C138  C     C_R   0.403328 0.432475 0.128316 0.000000
N40   N     N_R   0.409281 0.378185 0.127785 0.000000
C139  C     C_R   0.362566 0.360058 0.116689 0.000000
C140  C     C_R   0.344868 0.308448 0.113511 0.000000
H77   H     H_    0.230207 0.331728 0.077062 0.000000
H78   H     H_    0.267993 0.422074 0.079758 0.000000
H79   H     H_    0.434350 0.459917 0.135769 0.000000
H80   H     H_    0.367099 0.276359 0.122068 0.000000
Br21  Br    Br    0.517642 0.652370 0.562638 0.000000
C141  C     C_R   0.564634 0.682917 0.593757 0.000000
C142  C     C_R   0.561964 0.736902 0.599165 0.000000
C143  C     C_R   0.604144 0.764911 0.611958 0.000000
C144  C     C_R   0.648461 0.737742 0.617295 0.000000
N41   N     N_R   0.696787 0.758774 0.618486 0.000000
C145  C     C_R   0.728278 0.715528 0.618940 0.000000
N42   N     N_R   0.700253 0.668497 0.617450 0.000000
C146  C     C_R   0.649983 0.684231 0.615696 0.000000
C147  C     C_R   0.606643 0.655005 0.605095 0.000000
H81   H     H_    0.529283 0.757648 0.589800 0.000000
H82   H     H_    0.604666 0.807450 0.613566 0.000000
H83   H     H_    0.770588 0.718131 0.617483 0.000000
H84   H     H_    0.608273 0.612748 0.600890 0.000000
Br22  Br    Br    0.799144 0.904719 0.449560 0.000000
C148  C     C_R   0.759453 0.894591 0.487633 0.000000
C149  C     C_R   0.778935 0.913498 0.517050 0.000000
C150  C     C_R   0.752256 0.902708 0.545044 0.000000
C151  C     C_R   0.706423 0.873336 0.542474 0.000000
N43   N     N_R   0.676710 0.852650 0.565908 0.000000
C152  C     C_R   0.630267 0.840557 0.549795 0.000000
N44   N     N_R   0.632186 0.850028 0.517508 0.000000
C153  C     C_R   0.682197 0.866529 0.513636 0.000000
C154  C     C_R   0.710141 0.870722 0.485711 0.000000
H85   H     H_    0.816163 0.934784 0.518231 0.000000
H86   H     H_    0.767177 0.917143 0.567958 0.000000
H87   H     H_    0.595585 0.824397 0.560806 0.000000
H88   H     H_    0.693897 0.856975 0.462952 0.000000
Br23  Br    Br    0.781859 0.368210 0.651159 0.000000
C155  C     C_R   0.734570 0.421598 0.664173 0.000000
C156  C     C_R   0.701058 0.411241 0.689497 0.000000
C157  C     C_R   0.664134 0.447354 0.699068 0.000000
C158  C     C_R   0.661307 0.492254 0.682104 0.000000
N45   N     N_R   0.627627 0.531063 0.687309 0.000000
C159  C     C_R   0.639920 0.565742 0.663732 0.000000
N46   N     N_R   0.681190 0.550182 0.644752 0.000000
C160  C     C_R   0.693658 0.503243 0.657060 0.000000
C161  C     C_R   0.732392 0.468636 0.648108 0.000000
H89   H     H_    0.703755 0.374491 0.701635 0.000000
H90   H     H_    0.637706 0.440037 0.718766 0.000000
H91   H     H_    0.620202 0.602535 0.661202 0.000000
H92   H     H_    0.759919 0.476804 0.629270 0.000000
Br24  Br    Br    0.844875 0.536082 0.493446 0.000000
C162  C     C_R   0.858836 0.542014 0.538252 0.000000
C163  C     C_R   0.906525 0.525475 0.549935 0.000000
C164  C     C_R   0.917594 0.530164 0.582380 0.000000
C165  C     C_R   0.879298 0.549683 0.602410 0.000000
N47   N     N_R   0.879671 0.551099 0.634648 0.000000
C166  C     C_R   0.829576 0.568107 0.642038 0.000000
N48   N     N_R   0.798818 0.576721 0.615433 0.000000
C167  C     C_R   0.831801 0.564608 0.591067 0.000000
C168  C     C_R   0.821036 0.562284 0.558874 0.000000
H93   H     H_    0.935431 0.509396 0.533514 0.000000
H94   H     H_    0.954332 0.517084 0.591732 0.000000
H95   H     H_    0.814901 0.571617 0.666320 0.000000
H96   H     H_    0.784321 0.575125 0.549694 0.000000
Br25  Br    Br    0.669495 0.792596 0.740395 0.000000
C169  C     C_R   0.628161 0.730863 0.731027 0.000000
C170  C     C_R   0.653361 0.684787 0.723468 0.000000
C171  C     C_R   0.626120 0.638020 0.724546 0.000000
C172  C     C_R   0.572568 0.639176 0.724599 0.000000
N49   N     N_R   0.539408 0.597748 0.722764 0.000000
C173  C     C_R   0.491162 0.620249 0.721123 0.000000
N50   N     N_R   0.494126 0.674466 0.722735 0.000000
C174  C     C_R   0.546416 0.684672 0.725950 0.000000
C175  C     C_R   0.574209 0.730599 0.734061 0.000000
H97   H     H_    0.694765 0.684560 0.718980 0.000000
H98   H     H_    0.647469 0.602334 0.723708 0.000000
H99   H     H_    0.454671 0.597736 0.719299 0.000000
H100  H     H_    0.557166 0.763577 0.745954 0.000000
Br26  Br    Br    0.510958 0.474864 0.893087 0.000000
C176  C     C_R   0.539978 0.493391 0.852850 0.000000
C177  C     C_R   0.513791 0.478441 0.824773 0.000000
C178  C     C_R   0.533834 0.492807 0.795542 0.000000
C179  C     C_R   0.581685 0.518730 0.795046 0.000000
N51   N     N_R   0.608768 0.533582 0.769129 0.000000
C180  C     C_R   0.652649 0.558629 0.782600 0.000000
N52   N     N_R   0.652686 0.561004 0.815697 0.000000
C181  C     C_R   0.607272 0.534722 0.822586 0.000000
C182  C     C_R   0.585911 0.523528 0.852001 0.000000
H101  H     H_    0.476746 0.456931 0.825822 0.000000
H102  H     H_    0.512064 0.484003 0.774020 0.000000
H103  H     H_    0.683601 0.576010 0.768646 0.000000
H104  H     H_    0.604400 0.535605 0.874198 0.000000
Br27  Br    Br    0.410792 0.245297 0.455942 0.000000
C183  C     C_R   0.385444 0.310544 0.473427 0.000000
C184  C     C_R   0.400660 0.357632 0.459765 0.000000
C185  C     C_R   0.382758 0.405233 0.472287 0.000000
C186  C     C_R   0.349348 0.403787 0.498026 0.000000
N53   N     N_R   0.328184 0.445180 0.513681 0.000000
C187  C     C_R   0.298005 0.422457 0.536360 0.000000
N54   N     N_R   0.304006 0.368878 0.538216 0.000000
C188  C     C_R   0.334842 0.358062 0.512197 0.000000
C189  C     C_R   0.352673 0.310381 0.499926 0.000000
H105  H     H_    0.426686 0.357045 0.439294 0.000000
H106  H     H_    0.394137 0.442212 0.461893 0.000000
H107  H     H_    0.271798 0.445895 0.549883 0.000000
H108  H     H_    0.343761 0.273642 0.510907 0.000000
Br28  Br    Br    0.635633 0.368412 0.496812 0.000000
C190  C     C_R   0.656229 0.433492 0.518162 0.000000
C191  C     C_R   0.690928 0.433567 0.543750 0.000000
C192  C     C_R   0.704169 0.480259 0.560459 0.000000
C193  C     C_R   0.683571 0.526109 0.550285 0.000000
N55   N     N_R   0.687279 0.574517 0.564724 0.000000
C194  C     C_R   0.658305 0.604677 0.544509 0.000000
N56   N     N_R   0.634296 0.575792 0.519734 0.000000
C195  C     C_R   0.652039 0.526616 0.523933 0.000000
C196  C     C_R   0.635782 0.480269 0.508313 0.000000
H109  H     H_    0.706619 0.396733 0.551197 0.000000
H110  H     H_    0.730214 0.480636 0.580564 0.000000
H111  H     H_    0.651879 0.646324 0.548760 0.000000
H112  H     H_    0.606881 0.479807 0.489524 0.000000
Br29  Br    Br    0.577664 0.453098 0.604763 0.000000
C197  C     C_R   0.528552 0.470607 0.572806 0.000000
C198  C     C_R   0.480636 0.444055 0.570787 0.000000
C199  C     C_R   0.442629 0.460461 0.550234 0.000000
C200  C     C_R   0.456180 0.499017 0.529265 0.000000
N57   N     N_R   0.425254 0.523079 0.508719 0.000000
C201  C     C_R   0.456964 0.560154 0.495893 0.000000
N58   N     N_R   0.507387 0.559385 0.506960 0.000000
C202  C     C_R   0.504731 0.521786 0.529091 0.000000
C203  C     C_R   0.539725 0.511612 0.552897 0.000000
H113  H     H_    0.471445 0.413368 0.587220 0.000000
H114  H     H_    0.404026 0.442996 0.551199 0.000000
H115  H     H_    0.440830 0.589068 0.481159 0.000000
H116  H     H_    0.572436 0.537314 0.558436 0.000000
Br30  Br    Br    0.131652 0.493518 0.512525 0.000000
C204  C     C_R   0.179669 0.520114 0.481858 0.000000
C205  C     C_R   0.161836 0.532779 0.451951 0.000000
C206  C     C_R   0.196145 0.550237 0.428738 0.000000
C207  C     C_R   0.249101 0.554869 0.435862 0.000000
N59   N     N_R   0.291039 0.568961 0.417431 0.000000
C208  C     C_R   0.332643 0.562183 0.437877 0.000000
N60   N     N_R   0.317990 0.545324 0.467577 0.000000
C209  C     C_R   0.265739 0.541654 0.465468 0.000000
C210  C     C_R   0.232312 0.524881 0.488964 0.000000
H117  H     H_    0.120560 0.528153 0.446444 0.000000
H118  H     H_    0.179684 0.557266 0.405927 0.000000
H119  H     H_    0.373099 0.568169 0.430947 0.000000
H120  H     H_    0.246668 0.515148 0.512209 0.000000
Br31  Br    Br    0.502374 0.157561 0.558425 0.000000
C211  C     C_R   0.467404 0.127658 0.593737 0.000000
C212  C     C_R   0.496875 0.118123 0.620647 0.000000
C213  C     C_R   0.472759 0.100968 0.648002 0.000000
C214  C     C_R   0.419500 0.094920 0.647738 0.000000
N61   N     N_R   0.388318 0.084311 0.672607 0.000000
C215  C     C_R   0.339302 0.080371 0.659041 0.000000
N62   N     N_R   0.339604 0.091443 0.627142 0.000000
C216  C     C_R   0.390759 0.100592 0.620955 0.000000
C217  C     C_R   0.413655 0.117165 0.593135 0.000000
H121  H     H_    0.538835 0.125119 0.620341 0.000000
H122  H     H_    0.495000 0.091457 0.668593 0.000000
H123  H     H_    0.303739 0.072920 0.672373 0.000000
H124  H     H_    0.390648 0.123926 0.572089 0.000000
Br32  Br    Br    0.244795 0.108843 0.447175 0.000000
C218  C     C_R   0.251483 0.154445 0.484439 0.000000
C219  C     C_R   0.238262 0.207296 0.482999 0.000000
C220  C     C_R   0.245187 0.241495 0.509413 0.000000
C221  C     C_R   0.265169 0.221098 0.536644 0.000000
N63   N     N_R   0.277711 0.247039 0.564293 0.000000
C222  C     C_R   0.292268 0.207871 0.583721 0.000000
N64   N     N_R   0.289926 0.158832 0.568948 0.000000
C223  C     C_R   0.274529 0.168736 0.538903 0.000000
C224  C     C_R   0.269737 0.134594 0.512646 0.000000
H125  H     H_    0.223631 0.222034 0.460883 0.000000
H126  H     H_    0.236281 0.282920 0.508395 0.000000
H127  H     H_    0.302729 0.214784 0.608547 0.000000
H128  H     H_    0.281514 0.094127 0.513273 0.000000
Br33  Br    Br    0.142627 0.015712 0.492718 0.000000
C225  C     C_R   0.139241 0.027198 0.538004 0.000000
C226  C     C_R   0.095234 0.011362 0.555024 0.000000
C227  C     C_R   0.091413 0.023662 0.587514 0.000000
C228  C     C_R   0.131435 0.053228 0.601835 0.000000
N65   N     N_R   0.135441 0.072181 0.632266 0.000000
C229  C     C_R   0.185914 0.091492 0.634326 0.000000
N66   N     N_R   0.212447 0.086074 0.605989 0.000000
C230  C     C_R   0.176060 0.064346 0.585818 0.000000
C231  C     C_R   0.180945 0.052086 0.553737 0.000000
H129  H     H_    0.063339 0.990311 0.542763 0.000000
H130  H     H_    0.057312 0.011134 0.600611 0.000000
H131  H     H_    0.203011 0.109017 0.655937 0.000000
H132  H     H_    0.215869 0.061569 0.540931 0.000000
Br34  Br    Br    0.872674 0.266357 0.574432 0.000000
C232  C     C_R   0.901405 0.326334 0.597855 0.000000
C233  C     C_R   0.875855 0.374051 0.598168 0.000000
C234  C     C_R   0.894436 0.416750 0.616872 0.000000
C235  C     C_R   0.941314 0.412077 0.632422 0.000000
N67   N     N_R   0.968280 0.449300 0.650017 0.000000
C236  C     C_R   0.012022 0.422159 0.659010 0.000000
N68   N     N_R   0.012986 0.370856 0.647402 0.000000
C237  C     C_R   0.967413 0.365631 0.631187 0.000000
C238  C     C_R   0.946975 0.321566 0.615141 0.000000
H133  H     H_    0.839697 0.377100 0.585007 0.000000
H134  H     H_    0.871884 0.451829 0.619276 0.000000
H135  H     H_    0.045034 0.438764 0.671753 0.000000
H136  H     H_    0.964323 0.283822 0.616551 0.000000
Br35  Br    Br    0.083792 0.536269 0.592614 0.000000
C239  C     C_R   0.127085 0.477745 0.599953 0.000000
C240  C     C_R   0.181075 0.483303 0.597513 0.000000
C241  C     C_R   0.211455 0.438782 0.596624 0.000000
C242  C     C_R   0.187648 0.390833 0.597507 0.000000
N69   N     N_R   0.208709 0.342966 0.592491 0.000000
C243  C     C_R   0.168039 0.309784 0.599790 0.000000
N70   N     N_R   0.124514 0.335818 0.611117 0.000000
C244  C     C_R   0.137103 0.386466 0.606477 0.000000
C245  C     C_R   0.104670 0.428901 0.605964 0.000000
H137  H     H_    0.199040 0.521935 0.594663 0.000000
H138  H     H_    0.252815 0.440011 0.596200 0.000000
H139  H     H_    0.170930 0.267541 0.596443 0.000000
H140  H     H_    0.062827 0.423676 0.605981 0.000000
Br36  Br    Br    0.310226 0.196576 0.679020 0.000000
C246  C     C_R   0.244282 0.226168 0.684582 0.000000
C247  C     C_R   0.211382 0.220987 0.658895 0.000000
C248  C     C_R   0.165986 0.247860 0.659043 0.000000
C249  C     C_R   0.156410 0.283624 0.683561 0.000000
N71   N     N_R   0.117864 0.318848 0.685725 0.000000
C250  C     C_R   0.126394 0.343224 0.715250 0.000000
N72   N     N_R   0.169317 0.324280 0.730565 0.000000
C251  C     C_R   0.187041 0.286951 0.709697 0.000000
C252  C     C_R   0.230689 0.256074 0.711631 0.000000
H141  H     H_    0.221954 0.196885 0.638123 0.000000
H142  H     H_    0.140740 0.241214 0.639296 0.000000
H143  H     H_    0.102066 0.374011 0.725245 0.000000
H144  H     H_    0.255336 0.256722 0.732506 0.000000
Br37  Br    Br    0.772229 0.980276 0.295491 0.000000
C253  C     C_R   0.788201 0.917552 0.270978 0.000000
C254  C     C_R   0.753124 0.874812 0.270328 0.000000
C255  C     C_R   0.763529 0.829433 0.252090 0.000000
C256  C     C_R   0.809061 0.828139 0.234432 0.000000
N73   N     N_R   0.825994 0.790097 0.213487 0.000000
C257  C     C_R   0.872908 0.809994 0.203168 0.000000
N74   N     N_R   0.884477 0.859436 0.215867 0.000000
C258  C     C_R   0.843928 0.869578 0.235724 0.000000
C259  C     C_R   0.834464 0.915046 0.253736 0.000000
H145  H     H_    0.717094 0.877143 0.283958 0.000000
H146  H     H_    0.735775 0.797263 0.251696 0.000000
H147  H     H_    0.896937 0.789895 0.185376 0.000000
H148  H     H_    0.862046 0.947957 0.254816 0.000000
Br38  Br    Br    0.917586 0.754196 0.320266 0.000000
C260  C     C_R   0.927907 0.713220 0.281667 0.000000
C261  C     C_R   0.965636 0.674683 0.280539 0.000000
C262  C     C_R   0.967618 0.638583 0.254893 0.000000
C263  C     C_R   0.932474 0.643233 0.230350 0.000000
N75   N     N_R   0.921709 0.607913 0.206272 0.000000
C264  C     C_R   0.876871 0.626006 0.193095 0.000000
N76   N     N_R   0.860527 0.672267 0.207483 0.000000
C265  C     C_R   0.896701 0.682203 0.230772 0.000000
C266  C     C_R   0.893281 0.717589 0.256595 0.000000
H149  H     H_    0.991111 0.670449 0.300865 0.000000
H150  H     H_    0.993080 0.605540 0.255895 0.000000
H151  H     H_    0.856125 0.605266 0.173680 0.000000
H152  H     H_    0.860931 0.743748 0.259567 0.000000
Br39  Br    Br    0.847024 0.605898 0.319193 0.000000
C267  C     C_R   0.786210 0.633869 0.300582 0.000000
C268  C     C_R   0.739685 0.634398 0.317138 0.000000
C269  C     C_R   0.694416 0.646290 0.301415 0.000000
C270  C     C_R   0.698053 0.672667 0.273484 0.000000
N77   N     N_R   0.661096 0.698124 0.257123 0.000000
C271  C     C_R   0.688097 0.714678 0.230930 0.000000
N78   N     N_R   0.739624 0.700183 0.230691 0.000000
C272  C     C_R   0.744260 0.674011 0.257791 0.000000
C273  C     C_R   0.787179 0.649510 0.269515 0.000000
H153  H     H_    0.737791 0.619641 0.341031 0.000000
H154  H     H_    0.658530 0.632129 0.310625 0.000000
H155  H     H_    0.671095 0.739555 0.213609 0.000000
H156  H     H_    0.820270 0.640380 0.255389 0.000000
Br40  Br    Br    0.845714 0.701758 0.025329 0.000000
C274  C     C_R   0.827496 0.687785 0.068089 0.000000
C275  C     C_R   0.859363 0.673215 0.093081 0.000000
C276  C     C_R   0.845172 0.685060 0.124654 0.000000
C277  C     C_R   0.794814 0.700668 0.129940 0.000000
N79   N     N_R   0.769297 0.713657 0.157282 0.000000
C278  C     C_R   0.719457 0.722984 0.146631 0.000000
N80   N     N_R   0.714937 0.717818 0.114042 0.000000
C279  C     C_R   0.762247 0.703905 0.104939 0.000000
C280  C     C_R   0.778117 0.700926 0.074466 0.000000
H157  H     H_    0.895709 0.654297 0.088412 0.000000
H158  H     H_    0.872854 0.682147 0.143697 0.000000
H159  H     H_    0.687009 0.733291 0.161948 0.000000
H160  H     H_    0.754511 0.712498 0.055368 0.000000
Br41  Br    Br    0.526825 0.886491 0.019188 0.000000
C281  C     C_R   0.521926 0.831020 0.048018 0.000000
C282  C     C_R   0.473170 0.812504 0.057356 0.000000
C283  C     C_R   0.469927 0.776922 0.081280 0.000000
C284  C     C_R   0.515006 0.763613 0.096001 0.000000
N81   N     N_R   0.519312 0.731328 0.120314 0.000000
C285  C     C_R   0.570391 0.716892 0.119100 0.000000
N82   N     N_R   0.597060 0.738121 0.094144 0.000000
C286  C     C_R   0.561753 0.770714 0.081677 0.000000
C287  C     C_R   0.566858 0.808026 0.058746 0.000000
H161  H     H_    0.438041 0.826049 0.046171 0.000000
H162  H     H_    0.434469 0.755436 0.085860 0.000000
H163  H     H_    0.587065 0.689510 0.135106 0.000000
H164  H     H_    0.603922 0.822451 0.050484 0.000000
Br42  Br    Br    0.453127 0.522213 0.999839 0.000000
C288  C     C_R   0.446635 0.561631 0.039317 0.000000
C289  C     C_R   0.480193 0.604712 0.045028 0.000000
C290  C     C_R   0.475846 0.636281 0.072561 0.000000
C291  C     C_R   0.436792 0.624558 0.094119 0.000000
N83   N     N_R   0.424085 0.649249 0.122471 0.000000
C292  C     C_R   0.382718 0.619380 0.132855 0.000000
N84   N     N_R   0.370760 0.577256 0.112779 0.000000
C293  C     C_R   0.404604 0.581685 0.088504 0.000000
C294  C     C_R   0.408266 0.549131 0.061477 0.000000
H165  H     H_    0.510230 0.613869 0.027657 0.000000
H166  H     H_    0.503321 0.668049 0.075959 0.000000
H167  H     H_    0.361379 0.627266 0.154590 0.000000
H168  H     H_    0.381702 0.515620 0.057452 0.000000
Br43  Br    Br    0.418491 0.820357 0.276734 0.000000
C295  C     C_R   0.403838 0.834663 0.233381 0.000000
C296  C     C_R   0.373511 0.877294 0.226409 0.000000
C297  C     C_R   0.360617 0.885831 0.195043 0.000000
C298  C     C_R   0.375181 0.848680 0.172007 0.000000
N85   N     N_R   0.358734 0.844573 0.141680 0.000000
C299  C     C_R   0.378663 0.797886 0.130445 0.000000
N86   N     N_R   0.410973 0.774890 0.152003 0.000000
C300  C     C_R   0.405928 0.807494 0.178422 0.000000
C301  C     C_R   0.423129 0.801755 0.209116 0.000000
H169  H     H_    0.360074 0.903836 0.245473 0.000000
H170  H     H_    0.337771 0.919417 0.189324 0.000000
H171  H     H_    0.366459 0.780158 0.107747 0.000000
H172  H     H_    0.451195 0.773553 0.214933 0.000000
Br44  Br    Br    0.373027 0.661366 0.308260 0.000000
C302  C     C_R   0.405370 0.673460 0.268928 0.000000
C303  C     C_R   0.376426 0.673905 0.241016 0.000000
C304  C     C_R   0.401919 0.677860 0.212104 0.000000
C305  C     C_R   0.455718 0.677350 0.212079 0.000000
N87   N     N_R   0.487187 0.689097 0.187541 0.000000
C306  C     C_R   0.535788 0.694701 0.201370 0.000000
N88   N     N_R   0.534506 0.690778 0.234027 0.000000
C307  C     C_R   0.483606 0.679729 0.239787 0.000000
C308  C     C_R   0.458716 0.681169 0.268691 0.000000
H173  H     H_    0.334069 0.672199 0.241946 0.000000
H174  H     H_    0.380255 0.685188 0.190829 0.000000
H175  H     H_    0.570329 0.707485 0.188605 0.000000
H176  H     H_    0.478793 0.689559 0.290850 0.000000
Br45  Br    Br    0.682797 0.680527 0.433188 0.000000
C309  C     C_R   0.645392 0.682963 0.393896 0.000000
C310  C     C_R   0.657817 0.721837 0.372695 0.000000
C311  C     C_R   0.632859 0.722028 0.343492 0.000000
C312  C     C_R   0.593590 0.684721 0.336861 0.000000
N89   N     N_R   0.570669 0.673595 0.308311 0.000000
C313  C     C_R   0.545176 0.626520 0.312273 0.000000
N90   N     N_R   0.555776 0.605426 0.340861 0.000000
C314  C     C_R   0.584519 0.644084 0.356455 0.000000
C315  C     C_R   0.609290 0.643316 0.385521 0.000000
H177  H     H_    0.688564 0.750746 0.378446 0.000000
H178  H     H_    0.646660 0.748763 0.325678 0.000000
H179  H     H_    0.523651 0.605233 0.293408 0.000000
H180  H     H_    0.602254 0.612921 0.401497 0.000000
Br46  Br    Br    0.482674 0.959166 0.211267 0.000000
C316  C     C_R   0.514892 0.902776 0.231739 0.000000
C317  C     C_R   0.528516 0.857196 0.214601 0.000000
C318  C     C_R   0.555641 0.818303 0.229221 0.000000
C319  C     C_R   0.563252 0.823587 0.261496 0.000000
N91   N     N_R   0.575931 0.786042 0.281682 0.000000
C320  C     C_R   0.569288 0.810288 0.311222 0.000000
N92   N     N_R   0.555842 0.861419 0.309644 0.000000
C321  C     C_R   0.549983 0.867987 0.278210 0.000000
C322  C     C_R   0.525360 0.908113 0.263914 0.000000
H181  H     H_    0.519605 0.852906 0.189316 0.000000
H182  H     H_    0.570537 0.785513 0.215576 0.000000
H183  H     H_    0.567630 0.790737 0.333515 0.000000
H184  H     H_    0.511744 0.941661 0.277233 0.000000
Br47  Br    Br    0.503398 0.849764 0.636192 0.000000
C323  C     C_R   0.454875 0.847410 0.602090 0.000000
C324  C     C_R   0.447732 0.893516 0.586382 0.000000
C325  C     C_R   0.412624 0.894428 0.561658 0.000000
C326  C     C_R   0.385195 0.848484 0.553259 0.000000
N93   N     N_R   0.349564 0.840960 0.529835 0.000000
C327  C     C_R   0.326926 0.793135 0.536057 0.000000
N94   N     N_R   0.348210 0.771098 0.562290 0.000000
C328  C     C_R   0.387494 0.805359 0.570879 0.000000
C329  C     C_R   0.425059 0.802173 0.594307 0.000000
H185  H     H_    0.469922 0.928947 0.593490 0.000000
H186  H     H_    0.407035 0.930981 0.550102 0.000000
H187  H     H_    0.293059 0.777642 0.523221 0.000000
H188  H     H_    0.431741 0.766095 0.606263 0.000000
Br48  Br    Br    0.468597 0.108983 0.483777 0.000000
C330  C     C_R   0.483589 0.036694 0.489500 0.000000
C331  C     C_R   0.534741 0.021993 0.495493 0.000000
C332  C     C_R   0.546537 0.969244 0.498288 0.000000
C333  C     C_R   0.506651 0.932533 0.494429 0.000000
N95   N     N_R   0.509125 0.879459 0.495516 0.000000
C334  C     C_R   0.457390 0.864061 0.495374 0.000000
N96   N     N_R   0.423895 0.905243 0.492909 0.000000
C335  C     C_R   0.456171 0.947550 0.491564 0.000000
C336  C     C_R   0.443223 0.999191 0.488280 0.000000
H189  H     H_    0.565495 0.051964 0.498119 0.000000
H190  H     H_    0.584734 0.957708 0.505630 0.000000
H191  H     H_    0.444041 0.823548 0.497390 0.000000
H192  H     H_    0.403375 0.009932 0.483645 0.000000
Br49  Br    Br    0.108357 0.877914 0.498972 0.000000
C337  C     C_R   0.164284 0.875092 0.468623 0.000000
C338  C     C_R   0.153709 0.859294 0.437212 0.000000
C339  C     C_R   0.193578 0.857537 0.414867 0.000000
C340  C     C_R   0.244062 0.868727 0.424827 0.000000
N97   N     N_R   0.288706 0.868409 0.407451 0.000000
C341  C     C_R   0.326519 0.881564 0.429889 0.000000
N98   N     N_R   0.307010 0.888658 0.460336 0.000000
C342  C     C_R   0.254767 0.882168 0.455982 0.000000
C343  C     C_R   0.214950 0.889015 0.477812 0.000000
H193  H     H_    0.113825 0.849992 0.429903 0.000000
H194  H     H_    0.184043 0.849462 0.390379 0.000000
H195  H     H_    0.367964 0.883208 0.424427 0.000000
H196  H     H_    0.221750 0.907692 0.500685 0.000000
Br50  Br    Br    0.163831 0.838118 0.577499 0.000000
C344  C     C_R   0.215208 0.893141 0.578882 0.000000
C345  C     C_R   0.211108 0.932795 0.602136 0.000000
C346  C     C_R   0.243854 0.976386 0.601367 0.000000
C347  C     C_R   0.274646 0.982466 0.574718 0.000000
N99   N     N_R   0.300742 0.026168 0.565891 0.000000
C348  C     C_R   0.328010 0.008944 0.539273 0.000000
N100  N     N_R   0.317708 0.956585 0.531004 0.000000
C349  C     C_R   0.282618 0.942011 0.553512 0.000000
C350  C     C_R   0.254045 0.895373 0.555844 0.000000
H197  H     H_    0.180950 0.930612 0.620148 0.000000
H198  H     H_    0.244706 0.004356 0.621368 0.000000
H199  H     H_    0.355304 0.033976 0.526817 0.000000
H200  H     H_    0.255950 0.863837 0.538043 0.000000
Br51  Br    Br    0.529930 0.531892 0.117061 0.000000
C351  C     C_R   0.575579 0.547518 0.082325 0.000000
C352  C     C_R   0.580522 0.511341 0.056824 0.000000
C353  C     C_R   0.618792 0.518212 0.033675 0.000000
C354  C     C_R   0.650079 0.562934 0.036530 0.000000
N101  N     N_R   0.692227 0.576554 0.018886 0.000000
C355  C     C_R   0.702772 0.627523 0.029500 0.000000
N102  N     N_R   0.670556 0.644654 0.054205 0.000000
C356  C     C_R   0.639091 0.602267 0.058509 0.000000
C357  C     C_R   0.603752 0.594668 0.082648 0.000000
H201  H     H_    0.554847 0.477193 0.055753 0.000000
H202  H     H_    0.623246 0.489684 0.014027 0.000000
H203  H     H_    0.733578 0.651175 0.019122 0.000000
H204  H     H_    0.600183 0.622670 0.102227 0.000000
Br52  Br    Br    0.537481 0.814107 0.943991 0.000000
C358  C     C_R   0.591097 0.784417 0.968217 0.000000
C359  C     C_R   0.580224 0.740739 0.986196 0.000000
C360  C     C_R   0.613976 0.728245 0.010328 0.000000
C361  C     C_R   0.657253 0.760921 0.015801 0.000000
N103  N     N_R   0.685043 0.765991 0.043021 0.000000
C362  C     C_R   0.717677 0.808537 0.038238 0.000000
N104  N     N_R   0.709273 0.831201 0.009724 0.000000
C363  C     C_R   0.670095 0.800971 0.996473 0.000000
C364  C     C_R   0.637472 0.812848 0.971968 0.000000
H205  H     H_    0.543019 0.719707 0.983500 0.000000
H206  H     H_    0.602342 0.698426 0.026787 0.000000
H207  H     H_    0.745423 0.824475 0.055517 0.000000
H208  H     H_    0.643366 0.846811 0.958208 0.000000
Br53  Br    Br    0.628085 0.596481 0.219196 0.000000
C365  C     C_R   0.605864 0.535062 0.240034 0.000000
C366  C     C_R   0.603012 0.489419 0.221345 0.000000
C367  C     C_R   0.591208 0.442805 0.235176 0.000000
C368  C     C_R   0.577735 0.443220 0.267002 0.000000
N105  N     N_R   0.572592 0.400814 0.285027 0.000000
C369  C     C_R   0.561045 0.422956 0.314890 0.000000
N106  N     N_R   0.561874 0.477700 0.315769 0.000000
C370  C     C_R   0.575373 0.488496 0.285189 0.000000
C371  C     C_R   0.594606 0.534608 0.272589 0.000000
H209  H     H_    0.613964 0.489784 0.196336 0.000000
H210  H     H_    0.596695 0.407441 0.221292 0.000000
H211  H     H_    0.553410 0.399895 0.335690 0.000000
H212  H     H_    0.606904 0.567377 0.287608 0.000000
Br54  Br    Br    0.744681 0.422671 0.380934 0.000000
C372  C     C_R   0.696222 0.471170 0.399791 0.000000
C373  C     C_R   0.709787 0.499152 0.427977 0.000000
C374  C     C_R   0.673328 0.529696 0.444244 0.000000
C375  C     C_R   0.623274 0.529402 0.432263 0.000000
N107  N     N_R   0.579891 0.550888 0.445447 0.000000
C376  C     C_R   0.542630 0.539956 0.422062 0.000000
N108  N     N_R   0.562551 0.518138 0.394454 0.000000
C377  C     C_R   0.612232 0.508005 0.402501 0.000000
C378  C     C_R   0.647636 0.477698 0.385807 0.000000
H213  H     H_    0.748645 0.495722 0.437814 0.000000
H214  H     H_    0.684110 0.551865 0.465826 0.000000
H215  H     H_    0.501447 0.546707 0.424043 0.000000
H216  H     H_    0.636797 0.456679 0.363738 0.000000
Br55  Br    Br    0.404714 0.410941 0.250217 0.000000
C379  C     C_R   0.393006 0.447909 0.289716 0.000000
C380  C     C_R   0.342266 0.454965 0.300205 0.000000
C381  C     C_R   0.332643 0.491162 0.324799 0.000000
C382  C     C_R   0.373825 0.520024 0.337830 0.000000
N109  N     N_R   0.372609 0.562229 0.358507 0.000000
C383  C     C_R   0.424613 0.570672 0.365955 0.000000
N110  N     N_R   0.457084 0.535980 0.349923 0.000000
C384  C     C_R   0.423785 0.506407 0.331380 0.000000
C385  C     C_R   0.434589 0.471708 0.306217 0.000000
H217  H     H_    0.309973 0.434387 0.288039 0.000000
H218  H     H_    0.294235 0.494929 0.333780 0.000000
H219  H     H_    0.438761 0.601861 0.382305 0.000000
H220  H     H_    0.473077 0.466585 0.297005 0.000000
Br56  Br    Br    0.717051 0.036732 0.463400 0.000000
C386  C     C_R   0.674453 0.990436 0.436795 0.000000
C387  C     C_R   0.671621 0.998076 0.404233 0.000000
C388  C     C_R   0.638679 0.966370 0.385176 0.000000
C389  C     C_R   0.609834 0.927048 0.399328 0.000000
N111  N     N_R   0.571573 0.895927 0.386117 0.000000
C390  C     C_R   0.559468 0.862135 0.410176 0.000000
N112  N     N_R   0.587452 0.872582 0.438186 0.000000
C391  C     C_R   0.617324 0.915302 0.430520 0.000000
C392  C     C_R   0.647236 0.948888 0.450132 0.000000
H221  H     H_    0.694477 0.029544 0.393796 0.000000
H222  H     H_    0.637904 0.971544 0.359831 0.000000
H223  H     H_    0.528952 0.832376 0.407377 0.000000
H224  H     H_    0.649766 0.944323 0.475355 0.000000
Br57  Br    Br    0.284162 0.042178 0.307322 0.000000
C393  C     C_R   0.341809 0.998906 0.316763 0.000000
C394  C     C_R   0.391672 0.012010 0.306571 0.000000
C395  C     C_R   0.433717 0.982780 0.315489 0.000000
C396  C     C_R   0.424562 0.938269 0.332877 0.000000
N113  N     N_R   0.458493 0.904283 0.345111 0.000000
C397  C     C_R   0.426028 0.865276 0.356774 0.000000
N114  N     N_R   0.373770 0.874977 0.352648 0.000000
C398  C     C_R   0.374942 0.922079 0.338897 0.000000
C399  C     C_R   0.333802 0.954019 0.333708 0.000000
H225  H     H_    0.398148 0.046120 0.292439 0.000000
H226  H     H_    0.471402 0.995488 0.307727 0.000000
H227  H     H_    0.440164 0.830538 0.367913 0.000000
H228  H     H_    0.297219 0.946412 0.344425 0.000000
Br58  Br    Br    0.427753 0.078870 0.406267 0.000000
C400  C     C_R   0.487373 0.077413 0.378836 0.000000
C401  C     C_R   0.503646 0.123009 0.363938 0.000000
C402  C     C_R   0.539488 0.120677 0.339014 0.000000
C403  C     C_R   0.557153 0.071826 0.328926 0.000000
N115  N     N_R   0.582142 0.057792 0.301306 0.000000
C404  C     C_R   0.584596 0.003857 0.302850 0.000000
N116  N     N_R   0.559586 0.984291 0.329282 0.000000
C405  C     C_R   0.544025 0.028057 0.345403 0.000000
C406  C     C_R   0.509843 0.029620 0.370796 0.000000
H229  H     H_    0.485650 0.160168 0.370436 0.000000
H230  H     H_    0.548808 0.155910 0.326542 0.000000
H231  H     H_    0.601362 0.979113 0.284041 0.000000
H232  H     H_    0.496416 0.993747 0.381702 0.000000
Br59  Br    Br    0.041263 0.831183 0.355002 0.000000
C407  C     C_R   0.027527 0.846640 0.311615 0.000000
C408  C     C_R   0.980813 0.870208 0.303976 0.000000
C409  C     C_R   0.970586 0.883410 0.272853 0.000000
C410  C     C_R   0.008728 0.874874 0.250264 0.000000
N117  N     N_R   0.008406 0.888268 0.219381 0.000000
C411  C     C_R   0.059079 0.878075 0.209757 0.000000
N118  N     N_R   0.089551 0.858353 0.233630 0.000000
C412  C     C_R   0.055734 0.855014 0.258215 0.000000
C413  C     C_R   0.065303 0.837555 0.288319 0.000000
H233  H     H_    0.952265 0.878557 0.322559 0.000000
H234  H     H_    0.935520 0.903371 0.267223 0.000000
H235  H     H_    0.073376 0.884523 0.185809 0.000000
H236  H     H_    0.102144 0.820208 0.294178 0.000000
Br60  Br    Br    0.041457 0.182326 0.182151 0.000000
C414  C     C_R   0.003868 0.118260 0.190169 0.000000
C415  C     C_R   0.030832 0.071609 0.192742 0.000000
C416  C     C_R   0.004019 0.024397 0.197368 0.000000
C417  C     C_R   0.950516 0.025862 0.200352 0.000000
N119  N     N_R   0.917132 0.984572 0.203228 0.000000
C418  C     C_R   0.868931 0.008031 0.203417 0.000000
N120  N     N_R   0.871361 0.061966 0.200193 0.000000
C419  C     C_R   0.923688 0.071686 0.198276 0.000000
C420  C     C_R   0.949767 0.118467 0.192411 0.000000
H237  H     H_    0.072894 0.071902 0.189841 0.000000
H238  H     H_    0.024592 0.987742 0.198265 0.000000
H239  H     H_    0.832652 0.985911 0.204958 0.000000
H240  H     H_    0.929216 0.154192 0.188338 0.000000
Br61  Br    Br    0.737431 0.847984 0.168363 0.000000
C421  C     C_R   0.797064 0.859576 0.142136 0.000000
C422  C     C_R   0.801390 0.831581 0.113283 0.000000
C423  C     C_R   0.848576 0.830121 0.097055 0.000000
C424  C     C_R   0.890588 0.856293 0.110917 0.000000
N121  N     N_R   0.940694 0.853857 0.101726 0.000000
C425  C     C_R   0.967796 0.872596 0.128278 0.000000
N122  N     N_R   0.935264 0.888628 0.152646 0.000000
C426  C     C_R   0.887139 0.880033 0.140169 0.000000
C427  C     C_R   0.839615 0.887197 0.154823 0.000000
H241  H     H_    0.768262 0.808423 0.104694 0.000000
H242  H     H_    0.854028 0.803190 0.076896 0.000000
H243  H     H_    0.010075 0.874024 0.129982 0.000000
H244  H     H_    0.835842 0.908705 0.177219 0.000000
Br62  Br    Br    0.951091 0.650449 0.551231 0.000000
C428  C     C_R   0.956300 0.698946 0.586982 0.000000
C429  C     C_R   0.912225 0.723126 0.599369 0.000000
C430  C     C_R   0.917862 0.762880 0.622791 0.000000
C431  C     C_R   0.967759 0.781189 0.630112 0.000000
N123  N     N_R   0.983066 0.823041 0.649033 0.000000
C432  C     C_R   0.033293 0.810853 0.657219 0.000000
N124  N     N_R   0.049499 0.764496 0.642552 0.000000
C433  C     C_R   0.008432 0.749533 0.623962 0.000000
C434  C     C_R   0.004088 0.708300 0.601705 0.000000
H245  H     H_    0.873679 0.711182 0.590688 0.000000
H246  H     H_    0.883911 0.777820 0.635021 0.000000
H247  H     H_    0.056353 0.833869 0.674654 0.000000
H248  H     H_    0.035526 0.681515 0.596973 0.000000
Br63  Br    Br    0.802218 0.046928 0.601828 0.000000
C435  C     C_R   0.870376 0.045538 0.620144 0.000000
C436  C     C_R   0.896505 0.092272 0.629003 0.000000
C437  C     C_R   0.946263 0.091347 0.641796 0.000000
C438  C     C_R   0.969498 0.043181 0.644714 0.000000
N125  N     N_R   0.017708 0.033011 0.655775 0.000000
C439  C     C_R   0.015915 0.979182 0.658916 0.000000
N126  N     N_R   0.969077 0.956077 0.649148 0.000000
C440  C     C_R   0.941738 0.997394 0.639185 0.000000
C441  C     C_R   0.892489 0.997619 0.625756 0.000000
H249  H     H_    0.877768 0.129640 0.626148 0.000000
H250  H     H_    0.963833 0.127725 0.650719 0.000000
H251  H     H_    0.047605 0.957459 0.668823 0.000000
H252  H     H_    0.870645 0.962433 0.619359 0.000000
Br64  Br    Br    0.750981 0.984266 0.688543 0.000000
C442  C     C_R   0.798472 0.943461 0.711498 0.000000
C443  C     C_R   0.781747 0.906821 0.733334 0.000000
C444  C     C_R   0.817913 0.877622 0.749404 0.000000
C445  C     C_R   0.870247 0.887682 0.744100 0.000000
N127  N     N_R   0.910712 0.858291 0.753370 0.000000
C446  C     C_R   0.942044 0.856643 0.726747 0.000000
N128  N     N_R   0.924104 0.886791 0.703261 0.000000
C447  C     C_R   0.881988 0.909321 0.715945 0.000000
C448  C     C_R   0.849165 0.941766 0.700905 0.000000
H253  H     H_    0.740485 0.898504 0.736173 0.000000
H254  H     H_    0.804959 0.843087 0.761760 0.000000
H255  H     H_    0.974819 0.831196 0.722986 0.000000
H256  H     H_    0.860837 0.961547 0.679776 0.000000
Br65  Br    Br    0.849033 0.773562 0.502733 0.000000
C449  C     C_R   0.856108 0.810606 0.543155 0.000000
C450  C     C_R   0.904026 0.834347 0.551808 0.000000
C451  C     C_R   0.910695 0.858576 0.581881 0.000000
C452  C     C_R   0.867991 0.859834 0.601982 0.000000
N129  N     N_R   0.867463 0.872372 0.633624 0.000000
C453  C     C_R   0.815113 0.865825 0.641376 0.000000
N130  N     N_R   0.784304 0.849455 0.615813 0.000000
C454  C     C_R   0.819819 0.841877 0.592229 0.000000
C455  C     C_R   0.813459 0.813526 0.563707 0.000000
H257  H     H_    0.936966 0.831629 0.535540 0.000000
H258  H     H_    0.948654 0.873835 0.589723 0.000000
H259  H     H_    0.799811 0.868497 0.665341 0.000000
H260  H     H_    0.776436 0.794320 0.557378 0.000000
Br66  Br    Br    0.299551 0.460500 0.653494 0.000000
C456  C     C_R   0.306116 0.520066 0.627162 0.000000
C457  C     C_R   0.295364 0.568558 0.641535 0.000000
C458  C     C_R   0.302862 0.613523 0.624840 0.000000
C459  C     C_R   0.319560 0.608164 0.593706 0.000000
N131  N     N_R   0.331530 0.647223 0.574418 0.000000
C460  C     C_R   0.340417 0.622146 0.545437 0.000000
N132  N     N_R   0.335212 0.568362 0.546484 0.000000
C461  C     C_R   0.323953 0.560926 0.577844 0.000000
C462  C     C_R   0.320723 0.515655 0.594861 0.000000
H261  H     H_    0.282800 0.571208 0.666251 0.000000
H262  H     H_    0.295485 0.651358 0.636267 0.000000
H263  H     H_    0.349317 0.642625 0.523788 0.000000
H264  H     H_    0.332222 0.478309 0.584475 0.000000
Br67  Br    Br    0.111280 0.485447 0.745956 0.000000
C463  C     C_R   0.107150 0.526939 0.709584 0.000000
C464  C     C_R   0.148730 0.558329 0.699195 0.000000
C465  C     C_R   0.139994 0.596564 0.677162 0.000000
C466  C     C_R   0.089815 0.600305 0.666024 0.000000
N133  N     N_R   0.067785 0.641688 0.652738 0.000000
C467  C     C_R   0.016026 0.625050 0.649444 0.000000
N134  N     N_R   0.006840 0.574760 0.658580 0.000000
C468  C     C_R   0.052751 0.562489 0.671415 0.000000
C469  C     C_R   0.059169 0.528310 0.695210 0.000000
H265  H     H_    0.186562 0.556263 0.710245 0.000000
H266  H     H_    0.170561 0.624567 0.670875 0.000000
H267  H     H_    0.983686 0.649866 0.644862 0.000000
H268  H     H_    0.026799 0.505635 0.704546 0.000000
Br68  Br    Br    0.845276 0.340521 0.728859 0.000000
C470  C     C_R   0.873561 0.409443 0.739094 0.000000
C471  C     C_R   0.878066 0.426580 0.771084 0.000000
C472  C     C_R   0.899172 0.476175 0.779237 0.000000
C473  C     C_R   0.915523 0.506941 0.754681 0.000000
N135  N     N_R   0.937534 0.555629 0.756769 0.000000
C474  C     C_R   0.945878 0.568088 0.725887 0.000000
N136  N     N_R   0.929236 0.528838 0.704939 0.000000
C475  C     C_R   0.910503 0.490761 0.723613 0.000000
C476  C     C_R   0.889669 0.441883 0.714773 0.000000
H269  H     H_    0.865206 0.400825 0.789729 0.000000
H270  H     H_    0.903342 0.489659 0.803995 0.000000
H271  H     H_    0.963095 0.605266 0.718790 0.000000
H272  H     H_    0.885320 0.429220 0.689952 0.000000
Br69  Br    Br    0.880523 0.569584 0.929909 0.000000
C477  C     C_R   0.941568 0.556921 0.904873 0.000000
C478  C     C_R   0.988366 0.545287 0.919118 0.000000
C479  C     C_R   0.032673 0.534608 0.901169 0.000000
C480  C     C_R   0.029891 0.540908 0.868977 0.000000
N137  N     N_R   0.069138 0.541874 0.847400 0.000000
C481  C     C_R   0.044139 0.555537 0.820022 0.000000
N138  N     N_R   0.991712 0.564591 0.824498 0.000000
C482  C     C_R   0.984326 0.554650 0.855290 0.000000
C483  C     C_R   0.939831 0.562692 0.872478 0.000000
H273  H     H_    0.990515 0.547163 0.944471 0.000000
H274  H     H_    0.067843 0.522632 0.912314 0.000000
H275  H     H_    0.064419 0.561136 0.797722 0.000000
H276  H     H_    0.906613 0.579034 0.861788 0.000000
Br70  Br    Br    0.463861 0.585774 0.620693 0.000000
C484  C     C_R   0.467197 0.523437 0.643527 0.000000
C485  C     C_R   0.431785 0.483056 0.636838 0.000000
C486  C     C_R   0.428240 0.440070 0.655674 0.000000
C487  C     C_R   0.462052 0.437188 0.680734 0.000000
N139  N     N_R   0.464990 0.399630 0.702627 0.000000
C488  C     C_R   0.504336 0.420161 0.722564 0.000000
N140  N     N_R   0.524466 0.468667 0.713507 0.000000
C489  C     C_R   0.497550 0.476855 0.686885 0.000000
C490  C     C_R   0.502109 0.519854 0.668065 0.000000
H277  H     H_    0.406694 0.485191 0.616583 0.000000
H278  H     H_    0.397626 0.412309 0.651013 0.000000
H279  H     H_    0.517537 0.400639 0.743505 0.000000
H280  H     H_    0.531120 0.550643 0.671896 0.000000
Br71  Br    Br    0.498111 0.297372 0.534992 0.000000
C491  C     C_R   0.462871 0.302090 0.575270 0.000000
C492  C     C_R   0.491482 0.304283 0.603497 0.000000
C493  C     C_R   0.466093 0.310717 0.632623 0.000000
C494  C     C_R   0.412594 0.314428 0.632573 0.000000
N141  N     N_R   0.381007 0.323505 0.657804 0.000000
C495  C     C_R   0.332545 0.328480 0.643956 0.000000
N142  N     N_R   0.334143 0.324316 0.611138 0.000000
C496  C     C_R   0.384983 0.314558 0.605094 0.000000
C497  C     C_R   0.409016 0.306835 0.576154 0.000000
H281  H     H_    0.533740 0.302179 0.602686 0.000000
H282  H     H_    0.487855 0.315046 0.654456 0.000000
H283  H     H_    0.296987 0.336038 0.657173 0.000000
H284  H     H_    0.386786 0.305423 0.554881 0.000000
Br72  Br    Br    0.978735 0.180937 0.288907 0.000000
C498  C     C_R   0.932327 0.214402 0.260830 0.000000
C499  C     C_R   0.940331 0.267364 0.254270 0.000000
C500  C     C_R   0.907016 0.292265 0.233865 0.000000
C501  C     C_R   0.865633 0.263356 0.220729 0.000000
N143  N     N_R   0.827978 0.278473 0.200513 0.000000
C502  C     C_R   0.804615 0.231497 0.190551 0.000000
N144  N     N_R   0.825685 0.188794 0.204364 0.000000
C503  C     C_R   0.861943 0.210343 0.224374 0.000000
C504  C     C_R   0.892770 0.185022 0.245514 0.000000
H285  H     H_    0.973249 0.289216 0.264902 0.000000
H286  H     H_    0.916194 0.331699 0.226938 0.000000
H287  H     H_    0.772956 0.228421 0.173375 0.000000
H288  H     H_    0.887366 0.143320 0.249400 0.000000
Br73  Br    Br    0.011104 0.110931 0.522791 0.000000
C505  C     C_R   0.026983 0.155987 0.559282 0.000000
C506  C     C_R   0.032807 0.210130 0.555795 0.000000
C507  C     C_R   0.040878 0.243596 0.582367 0.000000
C508  C     C_R   0.042898 0.221220 0.611756 0.000000
N145  N     N_R   0.049297 0.245802 0.640539 0.000000
C509  C     C_R   0.054150 0.205407 0.661060 0.000000
N146  N     N_R   0.052400 0.156974 0.645608 0.000000
C510  C     C_R   0.042650 0.168342 0.614864 0.000000
C511  C     C_R   0.032131 0.134633 0.589085 0.000000
H289  H     H_    0.029305 0.226326 0.532369 0.000000
H290  H     H_    0.043569 0.285921 0.580076 0.000000
H291  H     H_    0.066181 0.211380 0.685746 0.000000
H292  H     H_    0.024002 0.093521 0.592139 0.000000
Br74  Br    Br    0.131172 0.055645 0.017196 0.000000
C512  C     C_R   0.123408 0.001332 0.984385 0.000000
C513  C     C_R   0.098521 0.011160 0.955732 0.000000
C514  C     C_R   0.099542 0.974217 0.930411 0.000000
C515  C     C_R   0.126432 0.928809 0.934555 0.000000
N147  N     N_R   0.141869 0.892909 0.912086 0.000000
C516  C     C_R   0.164249 0.854956 0.930577 0.000000
N148  N     N_R   0.164917 0.868199 0.963167 0.000000
C517  C     C_R   0.143395 0.916096 0.963949 0.000000
C518  C     C_R   0.145413 0.952866 0.988648 0.000000
H293  H     H_    0.081726 0.049284 0.952266 0.000000
H294  H     H_    0.083154 0.982648 0.907608 0.000000
H295  H     H_    0.179173 0.818245 0.920543 0.000000
H296  H     H_    0.169225 0.946271 0.009012 0.000000
Br75  Br    Br    0.381883 0.923290 0.780770 0.000000
C519  C     C_R   0.327848 0.895593 0.807209 0.000000
C520  C     C_R   0.309094 0.926781 0.832436 0.000000
C521  C     C_R   0.261033 0.915524 0.845961 0.000000
C522  C     C_R   0.232787 0.873273 0.833025 0.000000
N149  N     N_R   0.183347 0.858271 0.839886 0.000000
C523  C     C_R   0.176779 0.811417 0.823071 0.000000
N150  N     N_R   0.219384 0.798745 0.804560 0.000000
C524  C     C_R   0.254060 0.838682 0.811408 0.000000
C525  C     C_R   0.303270 0.847832 0.798902 0.000000
H297  H     H_    0.331442 0.960886 0.840819 0.000000
H298  H     H_    0.246551 0.939571 0.865736 0.000000
H299  H     H_    0.141359 0.787281 0.823913 0.000000
H300  H     H_    0.320155 0.822090 0.780781 0.000000
Br76  Br    Br    0.906215 0.056634 0.804491 0.000000
C526  C     C_R   0.956283 0.008484 0.819064 0.000000
C527  C     C_R   0.000705 0.027477 0.835238 0.000000
C528  C     C_R   0.038066 0.993282 0.845543 0.000000
C529  C     C_R   0.030407 0.939940 0.839139 0.000000
N151  N     N_R   0.061655 0.899110 0.845706 0.000000
C530  C     C_R   0.032919 0.856019 0.833987 0.000000
N152  N     N_R   0.986417 0.869263 0.819975 0.000000
C531  C     C_R   0.986224 0.921871 0.823792 0.000000
C532  C     C_R   0.948346 0.954768 0.813495 0.000000
H301  H     H_    0.006220 0.069464 0.839985 0.000000
H302  H     H_    0.071002 0.009226 0.858593 0.000000
H303  H     H_    0.046308 0.815928 0.834827 0.000000
H304  H     H_    0.913635 0.939373 0.801319 0.000000
Br77  Br    Br    0.228920 0.081408 0.956098 0.000000
C533  C     C_R   0.196779 0.074447 0.915002 0.000000
C534  C     C_R   0.181018 0.119178 0.899871 0.000000
C535  C     C_R   0.168070 0.115757 0.867727 0.000000
C536  C     C_R   0.170635 0.067298 0.852311 0.000000
N153  N     N_R   0.172642 0.055165 0.820605 0.000000
C537  C     C_R   0.165423 0.000984 0.819694 0.000000
N154  N     N_R   0.162388 0.980078 0.849685 0.000000
C538  C     C_R   0.171172 0.022851 0.869232 0.000000
C539  C     C_R   0.190042 0.025035 0.899984 0.000000
H305  H     H_    0.182749 0.157310 0.912469 0.000000
H306  H     H_    0.156480 0.149967 0.855342 0.000000
H307  H     H_    0.163119 0.977097 0.797680 0.000000
H308  H     H_    0.202456 0.990008 0.911400 0.000000
Br78  Br    Br    0.179639 0.365073 0.237589 0.000000
C540  C     C_R   0.131013 0.418669 0.228999 0.000000
C541  C     C_R   0.078573 0.405239 0.223584 0.000000
C542  C     C_R   0.042487 0.443706 0.217715 0.000000
C543  C     C_R   0.060185 0.495437 0.216825 0.000000
N155  N     N_R   0.033076 0.539674 0.211658 0.000000
C544  C     C_R   0.069998 0.579279 0.217397 0.000000
N156  N     N_R   0.118143 0.560989 0.225714 0.000000
C545  C     C_R   0.111117 0.508308 0.223661 0.000000
C546  C     C_R   0.147755 0.470991 0.229368 0.000000
H309  H     H_    0.065626 0.364332 0.224288 0.000000
H310  H     H_    0.001852 0.432522 0.214859 0.000000
H311  H     H_    0.062079 0.620689 0.215106 0.000000
H312  H     H_    0.187941 0.482152 0.234935 0.000000
Br79  Br    Br    0.935251 0.494793 0.327123 0.000000
C547  C     C_R   0.909600 0.465490 0.287297 0.000000
C548  C     C_R   0.875518 0.421797 0.287046 0.000000
C549  C     C_R   0.856509 0.399645 0.258431 0.000000
C550  C     C_R   0.872705 0.422073 0.230498 0.000000
N157  N     N_R   0.858176 0.408291 0.200168 0.000000
C551  C     C_R   0.884226 0.445317 0.182468 0.000000
N158  N     N_R   0.914079 0.480753 0.200939 0.000000
C552  C     C_R   0.905425 0.465116 0.230874 0.000000
C553  C     C_R   0.924804 0.487854 0.258901 0.000000
H313  H     H_    0.863688 0.405001 0.309405 0.000000
H314  H     H_    0.829879 0.365810 0.258186 0.000000
H315  H     H_    0.880442 0.447285 0.156772 0.000000
H316  H     H_    0.951017 0.521867 0.258868 0.000000
Br80  Br    Br    0.000861 0.371248 0.054235 0.000000
C554  C     C_R   0.999981 0.428544 0.085315 0.000000
C555  C     C_R   0.002602 0.418425 0.117447 0.000000
C556  C     C_R   0.996168 0.459090 0.139843 0.000000
C557  C     C_R   0.988595 0.508988 0.129512 0.000000
N159  N     N_R   0.971007 0.550107 0.147019 0.000000
C558  C     C_R   0.961228 0.587324 0.125161 0.000000
N160  N     N_R   0.970697 0.569547 0.094423 0.000000
C559  C     C_R   0.988678 0.520079 0.098251 0.000000
C560  C     C_R   0.993390 0.479525 0.075683 0.000000
H317  H     H_    0.006424 0.378355 0.124982 0.000000
H318  H     H_    0.992923 0.450813 0.164520 0.000000
H319  H     H_    0.944952 0.625239 0.131466 0.000000
H320  H     H_    0.984193 0.484804 0.051597 0.000000
Br81  Br    Br    0.807433 0.349906 0.902734 0.000000
C561  C     C_R   0.773056 0.355447 0.943239 0.000000
C562  C     C_R   0.764298 0.310694 0.960719 0.000000
C563  C     C_R   0.741717 0.314638 0.990818 0.000000
C564  C     C_R   0.725636 0.363378 0.002147 0.000000
N161  N     N_R   0.706069 0.376818 0.031296 0.000000
C565  C     C_R   0.705313 0.431003 0.031156 0.000000
N162  N     N_R   0.721261 0.451289 0.002561 0.000000
C566  C     C_R   0.733966 0.407355 0.984936 0.000000
C567  C     C_R   0.759212 0.404510 0.955693 0.000000
H321  H     H_    0.776954 0.272714 0.951266 0.000000
H322  H     H_    0.738752 0.280303 0.004953 0.000000
H323  H     H_    0.695059 0.455115 0.052033 0.000000
H324  H     H_    0.770851 0.439616 0.943474 0.000000
Br82  Br    Br    0.640997 0.377348 0.845897 0.000000
C568  C     C_R   0.662352 0.429277 0.877798 0.000000
C569  C     C_R   0.649094 0.422621 0.909689 0.000000
C570  C     C_R   0.665877 0.459269 0.933184 0.000000
C571  C     C_R   0.696520 0.501361 0.923913 0.000000
N163  N     N_R   0.720814 0.539462 0.942380 0.000000
C572  C     C_R   0.731739 0.577713 0.920362 0.000000
N164  N     N_R   0.717371 0.562569 0.889305 0.000000
C573  C     C_R   0.699808 0.512694 0.892536 0.000000
C574  C     C_R   0.687512 0.475401 0.868820 0.000000
H325  H     H_    0.626302 0.388181 0.916288 0.000000
H326  H     H_    0.654429 0.454877 0.957774 0.000000
H327  H     H_    0.748956 0.616069 0.926879 0.000000
H328  H     H_    0.695904 0.482165 0.843968 0.000000
Br83  Br    Br    0.870797 0.347557 0.024452 0.000000
C575  C     C_R   0.854765 0.417297 0.038939 0.000000
C576  C     C_R   0.870268 0.438145 0.068604 0.000000
C577  C     C_R   0.875886 0.492511 0.072361 0.000000
C578  C     C_R   0.861321 0.521924 0.047163 0.000000
N165  N     N_R   0.882015 0.567479 0.036498 0.000000
C579  C     C_R   0.849900 0.576876 0.010925 0.000000
N166  N     N_R   0.812568 0.537802 0.005336 0.000000
C580  C     C_R   0.825848 0.501557 0.026132 0.000000
C581  C     C_R   0.832372 0.449599 0.017567 0.000000
H329  H     H_    0.884829 0.412874 0.086673 0.000000
H330  H     H_    0.890292 0.510616 0.094297 0.000000
H331  H     H_    0.855730 0.608775 0.995038 0.000000
H332  H     H_    0.829678 0.436615 0.992996 0.000000
Br84  Br    Br    0.996121 0.051220 0.001514 0.000000
C582  C     C_R   0.941862 0.998836 0.999064 0.000000
C583  C     C_R   0.896060 0.009339 0.983063 0.000000
C584  C     C_R   0.853903 0.974473 0.983928 0.000000
C585  C     C_R   0.858820 0.929743 0.000721 0.000000
N167  N     N_R   0.822043 0.892113 0.005590 0.000000
C586  C     C_R   0.848968 0.855603 0.022035 0.000000
N168  N     N_R   0.900166 0.870782 0.028845 0.000000
C587  C     C_R   0.904849 0.917584 0.014725 0.000000
C588  C     C_R   0.947402 0.951644 0.014127 0.000000
H333  H     H_    0.893008 0.045353 0.970241 0.000000
H334  H     H_    0.818928 0.981907 0.971337 0.000000
H335  H     H_    0.831026 0.818915 0.028881 0.000000
H336  H     H_    0.983840 0.942774 0.025004 0.000000
Br85  Br    Br    0.539431 0.966286 0.944423 0.000000
C589  C     C_R   0.583232 0.985015 0.980108 0.000000
C590  C     C_R   0.569279 0.026256 0.000936 0.000000
C591  C     C_R   0.602877 0.043293 0.025159 0.000000
C592  C     C_R   0.650511 0.019214 0.026966 0.000000
N169  N     N_R   0.691840 0.035114 0.044898 0.000000
C593  C     C_R   0.728439 0.997366 0.037945 0.000000
N170  N     N_R   0.710995 0.959530 0.015780 0.000000
C594  C     C_R   0.662175 0.975596 0.008906 0.000000
C595  C     C_R   0.629018 0.958041 0.984731 0.000000
H337  H     H_    0.533327 0.046857 0.997238 0.000000
H338  H     H_    0.593715 0.077715 0.039980 0.000000
H339  H     H_    0.766479 0.996812 0.049248 0.000000
H340  H     H_    0.639535 0.927328 0.968060 0.000000
Br86  Br    Br    0.719342 0.081669 0.862074 0.000000
C596  C     C_R   0.713473 0.025911 0.891300 0.000000
C597  C     C_R   0.727183 0.037035 0.922822 0.000000
C598  C     C_R   0.730356 0.996935 0.943894 0.000000
C599  C     C_R   0.724783 0.945578 0.932021 0.000000
N171  N     N_R   0.732579 0.900509 0.947225 0.000000
C600  C     C_R   0.723596 0.862068 0.923766 0.000000
N172  N     N_R   0.709416 0.881564 0.894942 0.000000
C601  C     C_R   0.710049 0.934430 0.901217 0.000000
C602  C     C_R   0.700051 0.974537 0.881068 0.000000
H341  H     H_    0.736228 0.077317 0.930887 0.000000
H342  H     H_    0.740260 0.006978 0.968314 0.000000
H343  H     H_    0.725774 0.820642 0.928192 0.000000
H344  H     H_    0.682515 0.966629 0.858138 0.000000
Br87  Br    Br    0.043362 0.041894 0.112709 0.000000
C603  C     C_R   0.069507 0.980377 0.091118 0.000000
C604  C     C_R   0.122799 0.976293 0.085217 0.000000
C605  C     C_R   0.141731 0.934562 0.066529 0.000000
C606  C     C_R   0.106339 0.897008 0.054225 0.000000
N173  N     N_R   0.113966 0.854874 0.033744 0.000000
C607  C     C_R   0.065772 0.831673 0.031186 0.000000
N174  N     N_R   0.028240 0.858827 0.047903 0.000000
C608  C     C_R   0.054831 0.899683 0.061994 0.000000
C609  C     C_R   0.034923 0.941198 0.079963 0.000000
H345  H     H_    0.149581 0.007188 0.094110 0.000000
H346  H     H_    0.182782 0.934147 0.060998 0.000000
H347  H     H_    0.059653 0.794836 0.018000 0.000000
H348  H     H_    0.993274 0.944912 0.083796 0.000000
Br88  Br    Br    0.017611 0.792664 0.929478 0.000000
C610  C     C_R   0.991733 0.750924 0.963406 0.000000
C611  C     C_R   0.995354 0.696180 0.961817 0.000000
C612  C     C_R   0.978728 0.666274 0.987044 0.000000
C613  C     C_R   0.967840 0.692677 0.015572 0.000000
N175  N     N_R   0.961100 0.673714 0.045178 0.000000
C614  C     C_R   0.958466 0.718724 0.064362 0.000000
N176  N     N_R   0.957408 0.763177 0.047213 0.000000
C615  C     C_R   0.964768 0.745846 0.016947 0.000000
C616  C     C_R   0.972512 0.775978 0.990710 0.000000
H349  H     H_    0.012014 0.676403 0.940956 0.000000
H350  H     H_    0.977852 0.624074 0.984138 0.000000
H351  H     H_    0.956920 0.719488 0.090233 0.000000
H352  H     H_    0.970718 0.818549 0.992485 0.000000
Br89  Br    Br    0.943201 0.687753 0.890363 0.000000
C617  C     C_R   0.894292 0.740863 0.884664 0.000000
C618  C     C_R   0.844539 0.737795 0.898070 0.000000
C619  C     C_R   0.805899 0.771174 0.888468 0.000000
C620  C     C_R   0.818087 0.805027 0.864436 0.000000
N177  N     N_R   0.786096 0.834384 0.847094 0.000000
C621  C     C_R   0.818119 0.854187 0.824466 0.000000
N178  N     N_R   0.867373 0.835915 0.825864 0.000000
C622  C     C_R   0.866831 0.807184 0.851923 0.000000
C623  C     C_R   0.906674 0.777993 0.862738 0.000000
H353  H     H_    0.835130 0.707392 0.914747 0.000000
H354  H     H_    0.766628 0.766022 0.897254 0.000000
H355  H     H_    0.805614 0.880825 0.807486 0.000000
H356  H     H_    0.945320 0.779800 0.852255 0.000000
Br90  Br    Br    0.116269 0.832672 0.759905 0.000000
C624  C     C_R   0.071826 0.773136 0.766969 0.000000
C625  C     C_R   0.085957 0.721434 0.772500 0.000000
C626  C     C_R   0.048196 0.681544 0.776571 0.000000
C627  C     C_R   0.997467 0.696963 0.780176 0.000000
N179  N     N_R   0.955559 0.670699 0.792016 0.000000
C628  C     C_R   0.921849 0.710295 0.799850 0.000000
N180  N     N_R   0.940413 0.758371 0.791430 0.000000
C629  C     C_R   0.986709 0.748540 0.778843 0.000000
C630  C     C_R   0.021389 0.786136 0.770180 0.000000
H357  H     H_    0.126312 0.712251 0.774826 0.000000
H358  H     H_    0.059152 0.641637 0.780215 0.000000
H359  H     H_    0.885214 0.704630 0.812370 0.000000
H360  H     H_    0.011716 0.826958 0.769399 0.000000
Br91  Br    Br    0.741497 0.086843 0.753040 0.000000
C631  C     C_R   0.726671 0.020406 0.771386 0.000000
C632  C     C_R   0.757415 0.004392 0.796365 0.000000
C633  C     C_R   0.745517 0.958242 0.811735 0.000000
C634  C     C_R   0.702725 0.928141 0.801352 0.000000
N181  N     N_R   0.681475 0.883863 0.813947 0.000000
C635  C     C_R   0.637954 0.874371 0.794861 0.000000
N182  N     N_R   0.632536 0.910295 0.770981 0.000000
C636  C     C_R   0.673495 0.943614 0.776242 0.000000
C637  C     C_R   0.684477 0.989330 0.760663 0.000000
H361  H     H_    0.789787 0.029365 0.804779 0.000000
H362  H     H_    0.767724 0.948396 0.832512 0.000000
H363  H     H_    0.611356 0.841059 0.797885 0.000000
H364  H     H_    0.659889 0.001538 0.741425 0.000000
Br92  Br    Br    0.479356 0.757447 0.879660 0.000000
C638  C     C_R   0.549889 0.734755 0.877828 0.000000
C639  C     C_R   0.557895 0.682323 0.884183 0.000000
C640  C     C_R   0.605128 0.659723 0.877067 0.000000
C641  C     C_R   0.643625 0.691130 0.864891 0.000000
N183  N     N_R   0.690282 0.675614 0.853784 0.000000
C642  C     C_R   0.714864 0.722569 0.846847 0.000000
N184  N     N_R   0.684816 0.766183 0.853243 0.000000
C643  C     C_R   0.639184 0.744536 0.863470 0.000000
C644  C     C_R   0.591670 0.767940 0.869209 0.000000
H365  H     H_    0.525950 0.658353 0.893189 0.000000
H366  H     H_    0.611903 0.619107 0.881246 0.000000
H367  H     H_    0.754019 0.724903 0.837115 0.000000
H368  H     H_    0.586302 0.809403 0.865269 0.000000
Br93  Br    Br    0.942859 0.401984 0.956450 0.000000
C645  C     C_R   0.993284 0.452455 0.973072 0.000000
C646  C     C_R   0.045592 0.448060 0.964411 0.000000
C647  C     C_R   0.082449 0.485934 0.974731 0.000000
C648  C     C_R   0.065770 0.528229 0.993583 0.000000
N185  N     N_R   0.094489 0.567983 0.008094 0.000000
C649  C     C_R   0.059507 0.593066 0.027448 0.000000
N186  N     N_R   0.010607 0.570625 0.025386 0.000000
C650  C     C_R   0.015357 0.530509 0.003580 0.000000
C651  C     C_R   0.977647 0.493812 0.993248 0.000000
H369  H     H_    0.057674 0.414823 0.949345 0.000000
H370  H     H_    0.123048 0.479904 0.969386 0.000000
H371  H     H_    0.069356 0.627117 0.042830 0.000000
H372  H     H_    0.937328 0.496836 0.000580 0.000000
Br94  Br    Br    0.199550 0.687942 0.473645 0.000000
C652  C     C_R   0.184170 0.697468 0.518179 0.000000
C653  C     C_R   0.133019 0.704989 0.528300 0.000000
C654  C     C_R   0.121312 0.711607 0.560588 0.000000
C655  C     C_R   0.161357 0.709603 0.582496 0.000000
N187  N     N_R   0.160545 0.713999 0.615026 0.000000
C656  C     C_R   0.212713 0.718862 0.622604 0.000000
N188  N     N_R   0.244728 0.717687 0.596436 0.000000
C657  C     C_R   0.211678 0.709308 0.571863 0.000000
C658  C     C_R   0.224394 0.700402 0.540210 0.000000
H373  H     H_    0.102087 0.706825 0.510780 0.000000
H374  H     H_    0.083245 0.724359 0.567061 0.000000
H375  H     H_    0.227636 0.721326 0.646752 0.000000
H376  H     H_    0.264434 0.695921 0.532592 0.000000
Br95  Br    Br    0.387598 0.651780 0.992424 0.000000
C659  C     C_R   0.321524 0.684750 0.991075 0.000000
C660  C     C_R   0.320391 0.738856 0.987140 0.000000
C661  C     C_R   0.273465 0.764803 0.988752 0.000000
C662  C     C_R   0.229205 0.735983 0.995758 0.000000
N189  N     N_R   0.181143 0.754237 0.002175 0.000000
C663  C     C_R   0.151958 0.708487 0.006304 0.000000
N190  N     N_R   0.181189 0.663445 0.003011 0.000000
C664  C     C_R   0.229577 0.682645 0.997012 0.000000
C665  C     C_R   0.275306 0.655349 0.994171 0.000000
H377  H     H_    0.356488 0.760904 0.983184 0.000000
H378  H     H_    0.271770 0.806110 0.984421 0.000000
H379  H     H_    0.110605 0.707981 0.012051 0.000000
H380  H     H_    0.275594 0.612900 0.995573 0.000000
Br96  Br    Br    0.430365 0.990109 0.020965 0.000000
C666  C     C_R   0.370328 0.944310 0.023276 0.000000
C667  C     C_R   0.337340 0.937385 0.996924 0.000000
C668  C     C_R   0.291507 0.907318 0.998876 0.000000
C669  C     C_R   0.279525 0.885958 0.027779 0.000000
N191  N     N_R   0.235833 0.858774 0.035721 0.000000
C670  C     C_R   0.241415 0.853404 0.068249 0.000000
N192  N     N_R   0.286697 0.876707 0.080410 0.000000
C671  C     C_R   0.310784 0.894425 0.053933 0.000000
C672  C     C_R   0.357982 0.921320 0.051933 0.000000
H381  H     H_    0.347227 0.956192 0.974853 0.000000
H382  H     H_    0.265439 0.902298 0.978606 0.000000
H383  H     H_    0.211315 0.836060 0.083074 0.000000
H384  H     H_    0.383839 0.926391 0.072256 0.000000
Br97  Br    Br    0.712599 0.513660 0.322636 0.000000
C673  C     C_R   0.719036 0.471244 0.285018 0.000000
C674  C     C_R   0.751066 0.487476 0.260308 0.000000
C675  C     C_R   0.759064 0.453688 0.234161 0.000000
C676  C     C_R   0.734203 0.404993 0.234035 0.000000
N193  N     N_R   0.739652 0.363620 0.213473 0.000000
C677  C     C_R   0.696844 0.331969 0.219315 0.000000
N194  N     N_R   0.667057 0.351706 0.243982 0.000000
C678  C     C_R   0.694675 0.395059 0.254322 0.000000
C679  C     C_R   0.689833 0.424910 0.282120 0.000000
H385  H     H_    0.771280 0.525482 0.262046 0.000000
H386  H     H_    0.782959 0.466108 0.214437 0.000000
H387  H     H_    0.687732 0.295417 0.205999 0.000000
H388  H     H_    0.665532 0.412707 0.301649 0.000000
Br98  Br    Br    0.317237 0.262607 0.228880 0.000000
C680  C     C_R   0.390110 0.280986 0.228570 0.000000
C681  C     C_R   0.419042 0.280162 0.256780 0.000000
C682  C     C_R   0.471650 0.295202 0.257310 0.000000
C683  C     C_R   0.493653 0.310828 0.229113 0.000000
N195  N     N_R   0.543534 0.326223 0.223651 0.000000
C684  C     C_R   0.544040 0.336077 0.191703 0.000000
N196  N     N_R   0.495914 0.328988 0.177867 0.000000
C685  C     C_R   0.465302 0.312500 0.201836 0.000000
C686  C     C_R   0.413297 0.297541 0.200566 0.000000
H389  H     H_    0.399927 0.269169 0.278678 0.000000
H390  H     H_    0.494128 0.295153 0.279183 0.000000
H391  H     H_    0.578669 0.348680 0.178908 0.000000
H392  H     H_    0.391115 0.299024 0.178683 0.000000
Br99  Br    Br    0.382256 0.163469 0.304439 0.000000
C687  C     C_R   0.415358 0.140986 0.265368 0.000000
C688  C     C_R   0.386293 0.135442 0.237250 0.000000
C689  C     C_R   0.410020 0.119272 0.208781 0.000000
C690  C     C_R   0.462132 0.107424 0.209877 0.000000
N197  N     N_R   0.493255 0.093279 0.185349 0.000000
C691  C     C_R   0.541497 0.088866 0.199161 0.000000
N198  N     N_R   0.540905 0.099501 0.231528 0.000000
C692  C     C_R   0.490389 0.111512 0.237356 0.000000
C693  C     C_R   0.468107 0.129281 0.265469 0.000000
H393  H     H_    0.345058 0.144242 0.237580 0.000000
H394  H     H_    0.388317 0.116016 0.186573 0.000000
H395  H     H_    0.576703 0.080234 0.185683 0.000000
H396  H     H_    0.490702 0.134498 0.286842 0.000000
Br100 Br    Br    0.738153 0.174977 0.374666 0.000000
C694  C     C_R   0.693716 0.207075 0.344828 0.000000
C695  C     C_R   0.690270 0.261969 0.345179 0.000000
C696  C     C_R   0.658493 0.286163 0.323535 0.000000
C697  C     C_R   0.630045 0.253974 0.302533 0.000000
N199  N     N_R   0.599082 0.268010 0.278502 0.000000
C698  C     C_R   0.584350 0.221006 0.263707 0.000000
N200  N     N_R   0.604883 0.178680 0.277867 0.000000
C699  C     C_R   0.633774 0.200530 0.302023 0.000000
C700  C     C_R   0.665557 0.175565 0.322749 0.000000
H397  H     H_    0.712884 0.285971 0.362375 0.000000
H398  H     H_    0.655883 0.328632 0.323466 0.000000
H399  H     H_    0.562341 0.217793 0.241621 0.000000
H400  H     H_    0.668724 0.133029 0.321800 0.000000
Br101 Br    Br    0.617382 0.907760 0.179379 0.000000
C701  C     C_R   0.657646 0.967499 0.191606 0.000000
C702  C     C_R   0.704063 0.975127 0.175272 0.000000
C703  C     C_R   0.738385 0.014510 0.184917 0.000000
C704  C     C_R   0.723098 0.047892 0.209424 0.000000
N201  N     N_R   0.746914 0.093549 0.218228 0.000000
C705  C     C_R   0.711620 0.117123 0.238728 0.000000
N202  N     N_R   0.666908 0.086786 0.242661 0.000000
C706  C     C_R   0.675632 0.043478 0.223888 0.000000
C707  C     C_R   0.641726 0.002379 0.215924 0.000000
H401  H     H_    0.713372 0.950486 0.154533 0.000000
H402  H     H_    0.774319 0.020387 0.171888 0.000000
H403  H     H_    0.716437 0.157182 0.248430 0.000000
H404  H     H_    0.603844 0.998225 0.227271 0.000000
Br102 Br    Br    0.949595 0.246587 0.105178 0.000000
C708  C     C_R   0.879461 0.270356 0.102745 0.000000
C709  C     C_R   0.848769 0.257563 0.075976 0.000000
C710  C     C_R   0.799112 0.277993 0.072900 0.000000
C711  C     C_R   0.781380 0.310939 0.097185 0.000000
N203  N     N_R   0.734263 0.333788 0.100475 0.000000
C712  C     C_R   0.735784 0.355564 0.130871 0.000000
N204  N     N_R   0.782378 0.347441 0.145713 0.000000
C713  C     C_R   0.810252 0.320343 0.123922 0.000000
C714  C     C_R   0.859559 0.301273 0.127603 0.000000
H405  H     H_    0.864632 0.233315 0.056686 0.000000
H406  H     H_    0.775862 0.268351 0.052016 0.000000
H407  H     H_    0.702628 0.373940 0.142583 0.000000
H408  H     H_    0.882477 0.310851 0.148853 0.000000
Br103 Br    Br    0.888478 0.134348 0.020606 0.000000
C715  C     C_R   0.861102 0.119833 0.061812 0.000000
C716  C     C_R   0.893965 0.121172 0.088365 0.000000
C717  C     C_R   0.873472 0.117603 0.119018 0.000000
C718  C     C_R   0.820224 0.111426 0.122078 0.000000
N205  N     N_R   0.790545 0.110008 0.148851 0.000000
C719  C     C_R   0.740645 0.105222 0.137410 0.000000
N206  N     N_R   0.739052 0.102164 0.104958 0.000000
C720  C     C_R   0.789065 0.107223 0.095940 0.000000
C721  C     C_R   0.807760 0.111800 0.065429 0.000000
H409  H     H_    0.935716 0.127136 0.085167 0.000000
H410  H     H_    0.898554 0.120932 0.139461 0.000000
H411  H     H_    0.706001 0.104179 0.152334 0.000000
H412  H     H_    0.781623 0.111328 0.045100 0.000000
Br104 Br    Br    0.620062 0.128285 0.934700 0.000000
C722  C     C_R   0.633274 0.170492 0.972669 0.000000
C723  C     C_R   0.623281 0.224120 0.973227 0.000000
C724  C     C_R   0.634919 0.255527 0.000183 0.000000
C725  C     C_R   0.654241 0.231603 0.026444 0.000000
N207  N     N_R   0.671340 0.254409 0.054217 0.000000
C726  C     C_R   0.682330 0.212385 0.072375 0.000000
N208  N     N_R   0.674790 0.164773 0.056325 0.000000
C727  C     C_R   0.659115 0.178417 0.027000 0.000000
C728  C     C_R   0.652749 0.147425 0.999486 0.000000
H413  H     H_    0.608215 0.241770 0.952098 0.000000
H414  H     H_    0.629837 0.297417 0.000078 0.000000
H415  H     H_    0.695827 0.216369 0.096882 0.000000
H416  H     H_    0.665146 0.107302 0.997759 0.000000
Br105 Br    Br    0.996061 0.184999 0.821571 0.000000
C729  C     C_R   0.026531 0.153558 0.783916 0.000000
C730  C     C_R   0.997413 0.148597 0.755767 0.000000
C731  C     C_R   0.019594 0.128025 0.727779 0.000000
C732  C     C_R   0.070868 0.113197 0.729016 0.000000
N209  N     N_R   0.101104 0.095151 0.704826 0.000000
C733  C     C_R   0.148647 0.088170 0.719041 0.000000
N210  N     N_R   0.148355 0.101808 0.751037 0.000000
C734  C     C_R   0.098960 0.117248 0.756470 0.000000
C735  C     C_R   0.077932 0.137155 0.784579 0.000000
H417  H     H_    0.957344 0.161553 0.755649 0.000000
H418  H     H_    0.997571 0.124650 0.705748 0.000000
H419  H     H_    0.182961 0.074289 0.706382 0.000000
H420  H     H_    0.100811 0.141057 0.806269 0.000000
Br106 Br    Br    0.303634 0.206994 0.912706 0.000000
C736  C     C_R   0.265230 0.229278 0.876796 0.000000
C737  C     C_R   0.249089 0.281091 0.875978 0.000000
C738  C     C_R   0.224163 0.298345 0.849150 0.000000
C739  C     C_R   0.215180 0.262405 0.824256 0.000000
N211  N     N_R   0.196432 0.271262 0.795117 0.000000
C740  C     C_R   0.187991 0.221582 0.781844 0.000000
N212  N     N_R   0.203879 0.182573 0.800940 0.000000
C741  C     C_R   0.223552 0.210122 0.826902 0.000000
C742  C     C_R   0.252554 0.193247 0.852095 0.000000
H421  H     H_    0.257534 0.308388 0.895930 0.000000
H422  H     H_    0.213073 0.339030 0.847748 0.000000
H423  H     H_    0.173320 0.213639 0.757933 0.000000
H424  H     H_    0.264463 0.153323 0.853573 0.000000
Br107 Br    Br    0.419453 0.390222 0.006010 0.000000
C743  C     C_R   0.483669 0.390708 0.029325 0.000000
C744  C     C_R   0.531242 0.389710 0.013253 0.000000
C745  C     C_R   0.577089 0.380893 0.029613 0.000000
C746  C     C_R   0.574014 0.371991 0.061906 0.000000
N213  N     N_R   0.610865 0.352291 0.080906 0.000000
C747  C     C_R   0.583800 0.340233 0.107984 0.000000
N214  N     N_R   0.532086 0.352921 0.106570 0.000000
C748  C     C_R   0.527348 0.373515 0.077536 0.000000
C749  C     C_R   0.481852 0.385202 0.062012 0.000000
H425  H     H_    0.532334 0.393686 0.987592 0.000000
H426  H     H_    0.613078 0.378980 0.016512 0.000000
H427  H     H_    0.600114 0.317393 0.126666 0.000000
H428  H     H_    0.444351 0.382710 0.073442 0.000000
Br108 Br    Br    0.329044 0.407422 0.895984 0.000000
C750  C     C_R   0.278350 0.449963 0.916899 0.000000
C751  C     C_R   0.284089 0.461535 0.949481 0.000000
C752  C     C_R   0.251141 0.496458 0.965076 0.000000
C753  C     C_R   0.213275 0.518705 0.947185 0.000000
N215  N     N_R   0.180945 0.557020 0.956907 0.000000
C754  C     C_R   0.154074 0.567330 0.929331 0.000000
N216  N     N_R   0.167524 0.535323 0.903143 0.000000
C755  C     C_R   0.205408 0.505430 0.915444 0.000000
C756  C     C_R   0.238343 0.471270 0.899448 0.000000
H429  H     H_    0.315789 0.444595 0.962443 0.000000
H430  H     H_    0.256748 0.507517 0.990043 0.000000
H431  H     H_    0.125118 0.597722 0.928365 0.000000
H432  H     H_    0.235154 0.462987 0.874040 0.000000
Br109 Br    Br    0.137702 0.392144 0.135390 0.000000
C757  C     C_R   0.156736 0.443781 0.105229 0.000000
C758  C     C_R   0.129764 0.446126 0.076664 0.000000
C759  C     C_R   0.143024 0.483128 0.054363 0.000000
C760  C     C_R   0.186077 0.515351 0.060164 0.000000
N217  N     N_R   0.209253 0.550804 0.040789 0.000000
C761  C     C_R   0.256711 0.560761 0.056285 0.000000
N218  N     N_R   0.262347 0.533147 0.083979 0.000000
C762  C     C_R   0.216147 0.507726 0.086348 0.000000
C763  C     C_R   0.200902 0.475066 0.110302 0.000000
H433  H     H_    0.099578 0.417108 0.071159 0.000000
H434  H     H_    0.123642 0.481629 0.031881 0.000000
H435  H     H_    0.286368 0.588195 0.048096 0.000000
H436  H     H_    0.225410 0.469554 0.130831 0.000000
Br110 Br    Br    0.845760 0.726927 0.714088 0.000000
C764  C     C_R   0.819372 0.683586 0.747071 0.000000
C765  C     C_R   0.770681 0.692647 0.760242 0.000000
C766  C     C_R   0.749916 0.660292 0.783161 0.000000
C767  C     C_R   0.783035 0.625518 0.796511 0.000000
N219  N     N_R   0.775464 0.598098 0.822968 0.000000
C768  C     C_R   0.823462 0.577515 0.828487 0.000000
N220  N     N_R   0.860977 0.593382 0.806924 0.000000
C769  C     C_R   0.832922 0.620914 0.786255 0.000000
C770  C     C_R   0.850445 0.645891 0.759434 0.000000
H437  H     H_    0.749238 0.725486 0.752393 0.000000
H438  H     H_    0.710395 0.665414 0.791726 0.000000
H439  H     H_    0.830207 0.552453 0.848274 0.000000
H440  H     H_    0.889326 0.642015 0.750225 0.000000
Br111 Br    Br    0.660767 0.873711 0.100293 0.000000
C771  C     C_R   0.616334 0.932720 0.103111 0.000000
C772  C     C_R   0.563511 0.926970 0.111059 0.000000
C773  C     C_R   0.533824 0.971135 0.117998 0.000000
C774  C     C_R   0.557310 0.019802 0.114323 0.000000
N221  N     N_R   0.537185 0.068016 0.119013 0.000000
C775  C     C_R   0.576554 0.101669 0.109839 0.000000
N222  N     N_R   0.619918 0.075695 0.099817 0.000000
C776  C     C_R   0.607290 0.024707 0.103967 0.000000
C777  C     C_R   0.638806 0.982127 0.099935 0.000000
H441  H     H_    0.546453 0.887959 0.113965 0.000000
H442  H     H_    0.493731 0.966974 0.125425 0.000000
H443  H     H_    0.573585 0.144178 0.110082 0.000000
H444  H     H_    0.680353 0.986671 0.095891 0.000000
Br112 Br    Br    0.474946 0.245887 0.994755 0.000000
C778  C     C_R   0.473727 0.217172 0.036216 0.000000
C779  C     C_R   0.479885 0.163285 0.039208 0.000000
C780  C     C_R   0.477211 0.141681 0.069021 0.000000
C781  C     C_R   0.469880 0.175470 0.095224 0.000000
N223  N     N_R   0.465448 0.162933 0.126080 0.000000
C782  C     C_R   0.461754 0.210946 0.141983 0.000000
N224  N     N_R   0.461792 0.252453 0.121829 0.000000
C783  C     C_R   0.465891 0.228328 0.092532 0.000000
C784  C     C_R   0.466019 0.250030 0.063044 0.000000
H445  H     H_    0.485480 0.137942 0.018086 0.000000
H446  H     H_    0.479694 0.099499 0.071361 0.000000
H447  H     H_    0.462796 0.215403 0.167753 0.000000
H448  H     H_    0.457472 0.290496 0.060486 0.000000

loop_
_geom_bond_atom_site_label_1
_geom_bond_atom_site_label_2
_geom_bond_distance
_geom_bond_site_symmetry_2
_ccdc_geom_bond_type
Zn1   N11   2.000 .      S
Zn1   N124  1.995 .      S
Zn1   N133  2.021 .      S
Zn1   N187  2.016 .      S
Zn2   N1    1.973 .      S
Zn2   N10   1.902 .      S
Zn2   N29   1.957 .      S
Zn2   N50   2.015 .      S
Zn3   N3    2.022 .      S
Zn3   N5    2.005 .      S
Zn3   N72   1.983 .      S
Zn3   N211  1.972 .      S
Zn4   N6    2.056 .      S
Zn4   N8    1.985 .      S
Zn4   N137  2.012 .      S
Zn4   N216  2.097 .      S
Zn5   N7    1.984 .      S
Zn5   N9    1.997 .      S
Zn5   N12   2.053 .      S
Zn5   N150  1.981 .      S
Zn6   N14   2.056 .      S
Zn6   N16   2.051 .      S
Zn6   N27   2.057 .      S
Zn6   N61   1.997 .      S
Zn7   N17   1.976 .      S
Zn7   N20   2.067 .      S
Zn7   N34   2.001 .      S
Zn7   N118  2.044 .      S
Zn8   N18   1.998 .      S
Zn8   N22   2.104 .      S
Zn8   N37   2.068 .      S
Zn8   N156  2.010 .      S
Zn9   N24   2.009 .      S
Zn9   N44   2.063 .      S
Zn9   N95   2.018 .      S
Zn9   N112  2.088 .      S
Zn10  N19   2.082 .      S
Zn10  N25   2.005 .      S
Zn10  N97   2.010 .      S
Zn10  N114  2.014 .      S
Zn11  N28   2.061 .      S
Zn11  N30   1.912 .      S
Zn11  N31   2.070 .      S
Zn11  N182  2.069 .      S
Zn12  N33   2.010 .      S
Zn12  N35   2.051 .      S
Zn12  N85   1.956 .      S
Zn12  N192  2.045 .      S
Zn13  N38   2.021 .      S
Zn13  N39   2.123 .      S
Zn13  N84   1.928 .      S
Zn13  N218  2.053 .      S
Zn14  N32   2.047 .      S
Zn14  N41   1.985 .      S
Zn14  N43   2.110 .      S
Zn14  N130  2.039 .      S
Zn15  N42   2.012 .      S
Zn15  N46   2.046 .      S
Zn15  N48   2.106 .      S
Zn15  N55   2.089 .      S
Zn16  N45   2.022 .      S
Zn16  N49   1.964 .      S
Zn16  N51   2.071 .      S
Zn16  N140  2.040 .      S
Zn17  N54   2.084 .      S
Zn17  N63   1.959 .      S
Zn17  N69   2.018 .      S
Zn17  N142  2.010 .      S
Zn18  N23   2.076 .      S
Zn18  N56   2.085 .      S
Zn18  N58   2.008 .      S
Zn18  N107  2.046 .      S
Zn19  N21   2.101 .      S
Zn19  N26   2.015 .      S
Zn19  N59   2.083 .      S
Zn19  N109  2.022 .      S
Zn20  N62   1.989 .      S
Zn20  N64   1.987 .      S
Zn20  N66   1.989 .      S
Zn20  N99   1.990 .      S
Zn21  N143  2.008 .      S
Zn21  N157  2.030 .      S
Zn21  N193  1.938 .      S
Zn21  N204  1.915 .      S
Zn22  N68   2.051 .      S
Zn22  N70   2.013 .      S
Zn22  N71   1.991 .      S
Zn22  N145  1.951 .      S
Zn23  N73   1.979 .      S
Zn23  N76   2.012 .      S
Zn23  N78   1.977 .      S
Zn23  N79   1.998 .      S
Zn24  N81   1.939 .      S
Zn24  N83   2.000 .      S
Zn24  N86   2.065 .      S
Zn24  N87   1.987 .      S
Zn25  N77   2.015 .      S
Zn25  N88   2.022 .      S
Zn25  N89   1.954 .      S
Zn25  N91   1.960 .      S
Zn26  N93   1.939 .      S
Zn26  N96   1.979 .      S
Zn26  N98   2.026 .      S
Zn26  N100  2.010 .      S
Zn27  N80   1.970 .      S
Zn27  N82   1.986 .      S
Zn27  N102  2.043 .      S
Zn27  N103  1.975 .      S
Zn28  N90   1.977 .      S
Zn28  N106  2.080 .      S
Zn28  N108  2.015 .      S
Zn28  N110  1.996 .      S
Zn29  N92   1.922 .      S
Zn29  N111  2.052 .      S
Zn29  N113  2.005 .      S
Zn29  N116  2.030 .      S
Zn30  N74   1.975 .      S
Zn30  N117  2.054 1_655  S
Zn30  N119  2.045 .      S
Zn30  N122  1.960 .      S
Zn31  N123  2.006 .      S
Zn31  N126  2.012 .      S
Zn31  N128  1.914 .      S
Zn31  N129  2.054 .      S
Zn32  N53   1.992 .      S
Zn32  N57   1.918 .      S
Zn32  N60   2.027 .      S
Zn32  N132  1.999 .      S
Zn33  N47   2.102 .      S
Zn33  N67   2.074 .      S
Zn33  N134  1.994 1_655  S
Zn33  N136  1.898 .      S
Zn34  N135  1.907 .      S
Zn34  N138  1.998 .      S
Zn34  N179  1.966 .      S
Zn34  N220  2.007 .      S
Zn35  N4    1.910 .      S
Zn35  N13   1.996 .      S
Zn35  N139  2.082 .      S
Zn35  N141  1.998 .      S
Zn36  N120  2.076 .      S
Zn36  N144  1.968 .      S
Zn36  N201  1.970 .      S
Zn36  N205  1.955 .      S
Zn37  N65   1.954 .      S
Zn37  N125  2.013 .      S
Zn37  N146  1.987 .      S
Zn37  N209  1.965 .      S
Zn38  N147  2.096 .      S
Zn38  N149  1.956 .      S
Zn38  N151  2.047 .      S
Zn38  N154  2.057 .      S
Zn39  N75   1.966 .      S
Zn39  N155  2.039 1_655  S
Zn39  N158  2.012 .      S
Zn39  N159  1.929 .      S
Zn40  N101  2.026 1_556  S
Zn40  N162  2.054 1_556  S
Zn40  N163  2.091 .      S
Zn40  N166  2.043 1_556  S
Zn41  N104  1.980 1_556  S
Zn41  N167  2.031 1_556  S
Zn41  N170  2.019 1_556  S
Zn41  N171  2.006 .      S
Zn42  N121  1.961 .      S
Zn42  N168  2.051 .      S
Zn42  N174  1.946 1_655  S
Zn42  N176  1.905 .      S
Zn43  N127  2.017 .      S
Zn43  N152  2.019 .      S
Zn43  N178  1.912 .      S
Zn43  N180  1.905 .      S
Zn44  N172  2.021 .      S
Zn44  N177  1.929 .      S
Zn44  N181  2.094 .      S
Zn44  N184  2.029 .      S
Zn45  N160  2.001 .      S
Zn45  N165  2.045 .      S
Zn45  N175  1.985 .      S
Zn45  N186  1.921 1_655  S
Zn46  N2    2.004 .      S
Zn46  N94   1.975 .      S
Zn46  N131  1.923 .      S
Zn46  N188  1.953 .      S
Zn47  N148  2.101 1_554  S
Zn47  N173  1.972 .      S
Zn47  N189  2.024 .      S
Zn47  N191  2.025 .      S
Zn48  N105  2.025 .      S
Zn48  N194  1.981 .      S
Zn48  N195  1.977 .      S
Zn48  N199  1.940 .      S
Zn49  N115  2.041 .      S
Zn49  N198  2.001 .      S
Zn49  N200  1.952 .      S
Zn49  N202  1.991 .      S
Zn50  N161  2.024 .      S
Zn50  N203  1.965 .      S
Zn50  N207  1.973 .      S
Zn50  N213  1.966 .      S
Zn51  N169  1.980 .      S
Zn51  N206  1.894 .      S
Zn51  N208  1.984 .      S
Zn51  N222  1.936 .      S
Zn52  N15   2.007 .      S
Zn52  N153  2.074 .      S
Zn52  N210  1.965 .      S
Zn52  N212  2.006 .      S
Zn53  N40   2.082 .      S
Zn53  N196  1.945 .      S
Zn53  N214  1.970 .      S
Zn53  N224  2.009 .      S
Zn54  N185  1.949 .      S
Zn54  N190  2.013 .      S
Zn54  N215  2.033 1_554  S
Zn54  N217  2.119 .      S
Zn55  N52   2.098 .      S
Zn55  N164  2.066 .      S
Zn55  N183  2.030 .      S
Zn55  N219  1.959 .      S
Zn56  N36   2.085 .      S
Zn56  N197  1.954 .      S
Zn56  N221  1.928 .      S
Zn56  N223  1.976 .      S
Br1   C1    1.885 .      S
C2    H1    1.080 .      S
C3    H2    1.068 .      S
C5    H3    1.077 .      S
C7    H4    1.079 .      S
Br2   C8    1.905 .      S
C9    H5    1.077 .      S
C10   H6    1.065 .      S
C12   H7    1.075 .      S
C14   H8    1.078 .      S
Br3   C15   1.893 .      S
C16   H9    1.074 .      S
C17   H10   1.072 .      S
C19   H11   1.081 .      S
C21   H12   1.057 .      S
Br4   C22   1.896 .      S
C23   H13   1.081 .      S
C24   H14   1.065 .      S
C26   H15   1.080 .      S
C28   H16   1.062 .      S
Br5   C29   1.884 .      S
C30   H17   1.080 .      S
C31   H18   1.054 .      S
C33   H19   1.075 .      S
C35   H20   1.076 .      S
Br6   C36   1.907 .      S
C37   H21   1.073 .      S
C38   H22   1.078 .      S
C40   H23   1.077 .      S
C42   H24   1.054 .      S
Br7   C43   1.904 .      S
C44   H25   1.081 .      S
C45   H26   1.077 .      S
C47   H27   1.074 .      S
C49   H28   1.070 .      S
Br8   C50   1.895 .      S
C51   H29   1.081 .      S
C52   H30   1.056 .      S
C54   H31   1.077 .      S
C56   H32   1.056 .      S
Br9   C57   1.904 .      S
C58   H33   1.081 .      S
C59   H34   1.077 .      S
C61   H35   1.081 .      S
C63   H36   1.071 .      S
Br10  C64   1.905 1_545  S
C64   Br10  1.905 1_565  S
C65   H37   1.081 .      S
C66   H38   1.076 .      S
C68   H39   1.081 .      S
C70   H40   1.069 .      S
Br11  C71   1.904 .      S
C72   H41   1.081 .      S
C73   H42   1.079 .      S
C75   H43   1.075 .      S
C77   H44   1.068 .      S
Br12  C78   1.887 .      S
C79   H45   1.079 .      S
C80   H46   1.039 .      S
C82   H47   1.081 .      S
C84   H48   1.067 .      S
Br13  C85   1.905 .      S
C86   H49   1.078 .      S
C87   H50   1.058 .      S
C89   H51   1.081 .      S
C91   H52   1.053 .      S
Br14  C92   1.895 .      S
C93   H53   1.081 .      S
C94   H54   1.076 .      S
C96   H55   1.081 1_545  S
C98   H56   1.069 1_545  S
H55   C96   1.081 1_565  S
H56   C98   1.069 1_565  S
Br15  C99   1.900 .      S
C100  H57   1.079 .      S
C101  H58   1.061 .      S
C103  H59   1.072 .      S
C105  H60   1.071 .      S
Br16  C106  1.906 .      S
C107  H61   1.080 .      S
C108  H62   1.070 1_565  S
C110  H63   1.072 .      S
C112  H64   1.075 .      S
H62   C108  1.070 1_545  S
Br17  C113  1.906 .      S
C114  H65   1.081 .      S
C115  H66   1.061 1_565  S
C117  H67   1.081 .      S
C119  H68   1.063 .      S
H66   C115  1.061 1_545  S
Br18  C120  1.906 .      S
C121  H69   1.081 .      S
C122  H70   1.077 1_545  S
C124  H71   1.075 .      S
C126  H72   1.060 .      S
H70   C122  1.077 1_565  S
Br19  C127  1.900 .      S
C128  H73   1.079 .      S
C129  H74   1.057 .      S
C131  H75   1.076 .      S
C133  H76   1.073 .      S
Br20  C134  1.902 .      S
C135  H77   1.081 .      S
C136  H78   1.067 .      S
C138  H79   1.079 .      S
C140  H80   1.075 .      S
Br21  C141  1.900 .      S
C142  H81   1.078 .      S
C143  H82   1.076 .      S
C145  H83   1.081 .      S
C147  H84   1.079 .      S
Br22  C148  1.905 .      S
C149  H85   1.081 .      S
C150  H86   1.078 .      S
C152  H87   1.076 .      S
C154  H88   1.079 .      S
Br23  C155  1.895 .      S
C156  H89   1.081 .      S
C157  H90   1.081 .      S
C159  H91   1.078 .      S
C161  H92   1.076 .      S
Br24  C162  1.905 .      S
C163  H93   1.081 .      S
C164  H94   1.081 .      S
C166  H95   1.081 .      S
C168  H96   1.075 .      S
Br25  C169  1.892 .      S
C170  H97   1.072 .      S
C171  H98   1.065 .      S
C173  H99   1.081 .      S
C175  H100  1.056 .      S
Br26  C176  1.906 .      S
C177  H101  1.081 .      S
C178  H102  1.071 .      S
C180  H103  1.076 .      S
C182  H104  1.072 .      S
Br27  C183  1.905 .      S
C184  H105  1.081 .      S
C185  H106  1.081 .      S
C187  H107  1.052 .      S
C189  H108  1.073 .      S
Br28  C190  1.905 .      S
C191  H109  1.081 .      S
C192  H110  1.072 .      S
C194  H111  1.078 .      S
C196  H112  1.078 .      S
Br29  C197  1.906 .      S
C198  H113  1.078 .      S
C199  H114  1.071 .      S
C201  H115  1.066 .      S
C203  H116  1.066 .      S
Br30  C204  1.901 .      S
C205  H117  1.081 .      S
C206  H118  1.066 .      S
C208  H119  1.080 .      S
C210  H120  1.078 .      S
Br31  C211  1.896 .      S
C212  H121  1.081 .      S
C213  H122  1.070 .      S
C215  H123  1.080 .      S
C217  H124  1.080 .      S
Br32  C218  1.906 .      S
C219  H125  1.081 .      S
C220  H126  1.081 .      S
C222  H127  1.078 .      S
C224  H128  1.076 .      S
Br33  C225  1.904 .      S
C226  H129  1.081 1_545  S
C227  H130  1.074 .      S
C229  H131  1.078 .      S
C231  H132  1.065 .      S
H129  C226  1.081 1_565  S
Br34  C232  1.906 .      S
C233  H133  1.081 .      S
C234  H134  1.071 .      S
C236  H135  1.066 .      S
C238  H136  1.066 .      S
Br35  C239  1.904 .      S
C240  H137  1.081 .      S
C241  H138  1.055 .      S
C243  H139  1.077 .      S
C245  H140  1.072 .      S
Br36  C246  1.868 .      S
C247  H141  1.078 .      S
C248  H142  1.054 .      S
C250  H143  1.078 .      S
C252  H144  1.076 .      S
Br37  C253  1.906 .      S
C254  H145  1.081 .      S
C255  H146  1.066 .      S
C257  H147  1.081 .      S
C259  H148  1.077 .      S
Br38  C260  1.903 .      S
C261  H149  1.081 .      S
C262  H150  1.073 .      S
C264  H151  1.081 .      S
C266  H152  1.074 .      S
Br39  C267  1.901 .      S
C268  H153  1.080 .      S
C269  H154  1.052 .      S
C271  H155  1.077 .      S
C273  H156  1.053 .      S
Br40  C274  1.889 .      S
C275  H157  1.067 .      S
C276  H158  1.071 .      S
C278  H159  1.075 .      S
C280  H160  1.056 .      S
Br41  C281  1.888 .      S
C282  H161  1.081 .      S
C283  H162  1.065 .      S
C285  H163  1.078 .      S
C287  H164  1.067 .      S
Br42  C288  1.902 1_556  S
C288  Br42  1.902 1_554  S
C289  H165  1.081 .      S
C290  H166  1.059 .      S
C292  H167  1.071 .      S
C294  H168  1.081 .      S
Br43  C295  1.901 .      S
C296  H169  1.081 .      S
C297  H170  1.077 .      S
C299  H171  1.076 .      S
C301  H172  1.059 .      S
Br44  C302  1.869 .      S
C303  H173  1.081 .      S
C304  H174  1.073 .      S
C306  H175  1.078 .      S
C308  H176  1.070 .      S
Br45  C309  1.905 .      S
C310  H177  1.081 .      S
C311  H178  1.079 .      S
C313  H179  1.080 .      S
C315  H180  1.050 .      S
Br46  C316  1.898 .      S
C317  H181  1.082 .      S
C318  H182  1.065 .      S
C320  H183  1.072 .      S
C322  H184  1.061 .      S
Br47  C323  1.888 .      S
C324  H185  1.081 .      S
C325  H186  1.073 .      S
C327  H187  1.076 .      S
C329  H188  1.076 .      S
Br48  C330  1.903 .      S
C331  H189  1.081 .      S
C332  H190  1.073 .      S
C334  H191  1.079 .      S
C336  H192  1.078 1_565  S
H192  C336  1.078 1_545  S
Br49  C337  1.906 .      S
C338  H193  1.081 .      S
C339  H194  1.063 .      S
C341  H195  1.081 .      S
C343  H196  1.062 .      S
Br50  C344  1.889 .      S
C345  H197  1.076 .      S
C346  H198  1.073 1_565  S
C348  H199  1.077 .      S
C350  H200  1.071 .      S
H198  C346  1.073 1_545  S
Br51  C351  1.906 .      S
C352  H201  1.072 .      S
C353  H202  1.079 .      S
N101  Zn40  2.026 1_554  S
C355  H203  1.077 .      S
C357  H204  1.066 .      S
Br52  C358  1.891 .      S
C359  H205  1.081 .      S
C360  H206  1.077 .      S
C362  H207  1.073 .      S
N104  Zn41  1.980 1_554  S
C364  H208  1.061 .      S
Br53  C365  1.887 .      S
C366  H209  1.081 .      S
C367  H210  1.059 .      S
C369  H211  1.081 .      S
C371  H212  1.062 .      S
Br54  C372  1.909 .      S
C373  H213  1.081 .      S
C374  H214  1.075 .      S
C376  H215  1.071 .      S
C378  H216  1.079 .      S
Br55  C379  1.890 .      S
C380  H217  1.081 .      S
C381  H218  1.053 .      S
C383  H219  1.079 .      S
C385  H220  1.062 .      S
Br56  C386  1.905 1_545  S
C386  Br56  1.905 1_565  S
C387  H221  1.081 1_565  S
C388  H222  1.072 .      S
C390  H223  1.074 .      S
C392  H224  1.067 .      S
H221  C387  1.081 1_545  S
Br57  C393  1.906 1_545  S
C393  Br57  1.906 1_565  S
C394  H225  1.075 .      S
C395  H226  1.060 .      S
C397  H227  1.081 .      S
C399  H228  1.051 .      S
Br58  C400  1.901 .      S
C401  H229  1.081 .      S
C402  H230  1.072 .      S
C404  H231  1.079 1_545  S
C406  H232  1.080 1_545  S
H231  C404  1.079 1_565  S
H232  C406  1.080 1_565  S
Br59  C407  1.905 .      S
C408  H233  1.081 .      S
C409  H234  1.069 .      S
N117  Zn30  2.054 1_455  S
C411  H235  1.081 .      S
C413  H236  1.080 .      S
Br60  C414  1.905 .      S
C415  H237  1.079 .      S
C416  H238  1.079 1_545  S
C418  H239  1.073 1_545  S
C420  H240  1.076 .      S
H238  C416  1.079 1_565  S
H239  C418  1.073 1_565  S
Br61  C421  1.896 .      S
C422  H241  1.071 .      S
C423  H242  1.073 .      S
C425  H243  1.081 1_655  S
C427  H244  1.068 .      S
H243  C425  1.081 1_455  S
Br62  C428  1.897 .      S
C429  H245  1.081 .      S
C430  H246  1.073 .      S
C432  H247  1.081 .      S
C434  H248  1.075 .      S
Br63  C435  1.903 .      S
C436  H249  1.081 .      S
C437  H250  1.068 .      S
C439  H251  1.081 .      S
C441  H252  1.065 .      S
Br64  C442  1.897 .      S
C443  H253  1.075 .      S
C444  H254  1.078 .      S
C446  H255  1.075 .      S
C448  H256  1.070 .      S
Br65  C449  1.905 .      S
C450  H257  1.081 .      S
C451  H258  1.081 .      S
C453  H259  1.073 .      S
C455  H260  1.080 .      S
Br66  C456  1.906 .      S
C457  H261  1.080 .      S
C458  H262  1.073 .      S
C460  H263  1.081 .      S
C462  H264  1.071 .      S
Br67  C463  1.886 .      S
C464  H265  1.074 .      S
C465  H266  1.080 .      S
C467  H267  1.071 1_455  S
N134  Zn33  1.994 1_455  S
C469  H268  1.076 .      S
H267  C467  1.071 1_655  S
Br68  C470  1.905 .      S
C471  H269  1.081 .      S
C472  H270  1.081 .      S
C474  H271  1.081 .      S
C476  H272  1.078 .      S
Br69  C477  1.899 .      S
C478  H273  1.060 .      S
C479  H274  1.068 .      S
C481  H275  1.077 .      S
C483  H276  1.059 .      S
Br70  C484  1.880 .      S
C485  H277  1.066 .      S
C486  H278  1.051 .      S
C488  H279  1.080 .      S
C490  H280  1.069 .      S
Br71  C491  1.906 .      S
C492  H281  1.081 .      S
C493  H282  1.069 .      S
C495  H283  1.077 .      S
C497  H284  1.054 .      S
Br72  C498  1.905 .      S
C499  H285  1.081 .      S
C500  H286  1.071 .      S
C502  H287  1.081 .      S
C504  H288  1.080 .      S
Br73  C505  1.905 .      S
C506  H289  1.081 .      S
C507  H290  1.080 .      S
C509  H291  1.080 .      S
C511  H292  1.069 .      S
Br74  C512  1.909 1_554  S
C512  Br74  1.909 1_556  S
C513  H293  1.080 .      S
C514  H294  1.073 .      S
C516  H295  1.081 .      S
N148  Zn47  2.101 1_556  S
C518  H296  1.068 1_556  S
H296  C518  1.068 1_554  S
Br75  C519  1.902 .      S
C520  H297  1.071 .      S
C521  H298  1.076 .      S
C523  H299  1.080 .      S
C525  H300  1.075 .      S
Br76  C526  1.904 .      S
C527  H301  1.079 .      S
C528  H302  1.065 1_565  S
C530  H303  1.080 .      S
C532  H304  1.079 .      S
H302  C528  1.065 1_545  S
Br77  C533  1.904 .      S
C534  H305  1.081 .      S
C535  H306  1.074 .      S
C537  H307  1.081 1_545  S
C539  H308  1.078 1_545  S
H307  C537  1.081 1_565  S
H308  C539  1.078 1_565  S
Br78  C540  1.905 .      S
C541  H309  1.081 .      S
C542  H310  1.074 .      S
N155  Zn39  2.039 1_455  S
C544  H311  1.080 .      S
C546  H312  1.080 .      S
Br79  C547  1.905 .      S
C548  H313  1.081 .      S
C549  H314  1.080 .      S
C551  H315  1.081 .      S
C553  H316  1.078 .      S
Br80  C554  1.908 1_455  S
C554  Br80  1.908 1_655  S
C555  H317  1.081 .      S
C556  H318  1.063 .      S
C558  H319  1.077 .      S
C560  H320  1.048 .      S
Br81  C561  1.905 .      S
C562  H321  1.081 .      S
C563  H322  1.071 1_556  S
C565  H323  1.079 .      S
N162  Zn40  2.054 1_554  S
C567  H324  1.078 .      S
H322  C563  1.071 1_554  S
Br82  C568  1.905 .      S
C569  H325  1.081 .      S
C570  H326  1.076 .      S
C572  H327  1.081 .      S
C574  H328  1.079 .      S
Br83  C575  1.897 .      S
C576  H329  1.081 .      S
C577  H330  1.070 .      S
C579  H331  1.073 1_554  S
N166  Zn40  2.043 1_554  S
C581  H332  1.067 1_554  S
H331  C579  1.073 1_556  S
H332  C581  1.067 1_556  S
Br84  C582  1.894 1_544  S
C582  Br84  1.894 1_566  S
C583  H333  1.080 .      S
C584  H334  1.061 .      S
N167  Zn41  2.031 1_554  S
C586  H335  1.074 .      S
C588  H336  1.068 .      S
Br85  C589  1.903 .      S
C590  H337  1.080 1_554  S
C591  H338  1.078 .      S
C593  H339  1.081 .      S
N170  Zn41  2.019 1_554  S
C595  H340  1.061 .      S
H337  C590  1.080 1_556  S
Br86  C596  1.906 .      S
C597  H341  1.081 .      S
C598  H342  1.071 1_565  S
C600  H343  1.075 .      S
C602  H344  1.068 .      S
H342  C598  1.071 1_545  S
Br87  C603  1.901 1_545  S
C603  Br87  1.901 1_565  S
C604  H345  1.081 1_565  S
C605  H346  1.072 .      S
C607  H347  1.072 .      S
N174  Zn42  1.946 1_455  S
C609  H348  1.080 1_455  S
H345  C604  1.081 1_545  S
H348  C609  1.080 1_655  S
Br88  C610  1.908 1_455  S
C610  Br88  1.908 1_655  S
C611  H349  1.079 1_655  S
C612  H350  1.070 .      S
C614  H351  1.081 .      S
C616  H352  1.079 .      S
H349  C611  1.079 1_455  S
Br89  C617  1.878 .      S
C618  H353  1.081 .      S
C619  H354  1.073 .      S
C621  H355  1.053 .      S
C623  H356  1.078 .      S
Br90  C624  1.896 .      S
C625  H357  1.066 .      S
C626  H358  1.071 .      S
C628  H359  1.079 .      S
C630  H360  1.070 .      S
Br91  C631  1.905 .      S
C632  H361  1.079 .      S
C633  H362  1.079 .      S
C635  H363  1.081 .      S
C637  H364  1.080 1_565  S
H364  C637  1.080 1_545  S
Br92  C638  1.902 .      S
C639  H365  1.080 .      S
C640  H366  1.068 .      S
C642  H367  1.078 .      S
C644  H368  1.081 .      S
Br93  C645  1.904 .      S
C646  H369  1.080 .      S
C647  H370  1.072 .      S
C649  H371  1.079 .      S
N186  Zn45  1.921 1_455  S
C651  H372  1.076 1_556  S
H372  C651  1.076 1_554  S
Br94  C652  1.907 .      S
C653  H373  1.081 .      S
C654  H374  1.061 .      S
C656  H375  1.078 .      S
C658  H376  1.076 .      S
Br95  C659  1.900 .      S
C660  H377  1.081 .      S
C661  H378  1.070 .      S
C663  H379  1.081 .      S
C665  H380  1.079 .      S
Br96  C666  1.903 .      S
C667  H381  1.081 .      S
C668  H382  1.080 .      S
C670  H383  1.081 .      S
C672  H384  1.078 .      S
Br97  C673  1.876 .      S
C674  H385  1.081 .      S
C675  H386  1.076 .      S
C677  H387  1.081 .      S
C679  H388  1.074 .      S
Br98  C680  1.905 .      S
C681  H389  1.078 .      S
C682  H390  1.080 .      S
C684  H391  1.079 .      S
C686  H392  1.079 .      S
Br99  C687  1.908 .      S
C688  H393  1.080 .      S
C689  H394  1.081 .      S
C691  H395  1.080 .      S
C693  H396  1.066 .      S
Br100 C694  1.906 .      S
C695  H397  1.081 .      S
C696  H398  1.079 .      S
C698  H399  1.081 .      S
C700  H400  1.081 .      S
Br101 C701  1.863 .      S
C702  H401  1.076 .      S
C703  H402  1.075 .      S
C705  H403  1.081 .      S
C707  H404  1.080 1_545  S
H404  C707  1.080 1_565  S
Br102 C708  1.905 .      S
C709  H405  1.077 .      S
C710  H406  1.073 .      S
C712  H407  1.081 .      S
C714  H408  1.080 .      S
Br103 C715  1.902 .      S
C716  H409  1.081 .      S
C717  H410  1.068 .      S
C719  H411  1.080 .      S
C721  H412  1.081 .      S
Br104 C722  1.903 .      S
C723  H413  1.081 .      S
C724  H414  1.072 .      S
C726  H415  1.081 .      S
C728  H416  1.071 .      S
Br105 C729  1.906 1_655  S
C729  Br105 1.906 1_455  S
C730  H417  1.081 .      S
C731  H418  1.079 1_455  S
C733  H419  1.080 .      S
C735  H420  1.079 .      S
H418  C731  1.079 1_655  S
Br106 C736  1.905 .      S
C737  H421  1.080 .      S
C738  H422  1.078 .      S
C740  H423  1.077 .      S
C742  H424  1.066 .      S
Br107 C743  1.908 .      S
C744  H425  1.081 1_554  S
C745  H426  1.068 .      S
C747  H427  1.080 .      S
C749  H428  1.069 .      S
H425  C744  1.081 1_556  S
Br108 C750  1.892 .      S
C751  H429  1.081 .      S
C752  H430  1.078 .      S
N215  Zn54  2.033 1_556  S
C754  H431  1.081 .      S
C756  H432  1.076 .      S
Br109 C757  1.905 .      S
C758  H433  1.070 .      S
C759  H434  1.061 .      S
C761  H435  1.079 .      S
C763  H436  1.078 .      S
Br110 C764  1.907 .      S
C765  H437  1.069 .      S
C766  H438  1.078 .      S
C768  H439  1.079 .      S
C770  H440  1.068 .      S
Br111 C771  1.896 .      S
C772  H441  1.081 .      S
C773  H442  1.072 .      S
C775  H443  1.080 .      S
C777  H444  1.077 .      S
Br112 C778  1.905 1_556  S
C778  Br112 1.905 1_554  S
C779  H445  1.081 .      S
C780  H446  1.080 .      S
C782  H447  1.078 .      S
C784  H448  1.062 .      S
C1    C2    1.377 .      A
C1    C7    1.390 .      A
C2    C3    1.366 .      A
C3    C4    1.370 .      A
C4    N1    1.342 .      A
C4    C6    1.351 .      A
N1    C5    1.369 .      A
C5    N2    1.374 .      A
N2    C6    1.349 .      A
C6    C7    1.378 .      A
C8    C9    1.387 .      A
C8    C14   1.378 .      A
C9    C10   1.388 .      A
C10   C11   1.367 .      A
C11   N3    1.353 .      A
C11   C13   1.352 .      A
N3    C12   1.368 .      A
C12   N4    1.357 .      A
N4    C13   1.332 .      A
C13   C14   1.370 .      A
C15   C16   1.372 .      A
C15   C21   1.388 .      A
C16   C17   1.365 .      A
C17   C18   1.367 .      A
C18   N5    1.332 .      A
C18   C20   1.351 .      A
N5    C19   1.379 .      A
C19   N6    1.380 .      A
N6    C20   1.356 .      A
C20   C21   1.374 .      A
C22   C23   1.377 .      A
C22   C28   1.372 .      A
C23   C24   1.378 .      A
C24   C25   1.385 .      A
C25   N7    1.353 .      A
C25   C27   1.356 .      A
N7    C26   1.367 .      A
C26   N8    1.370 .      A
N8    C27   1.344 .      A
C27   C28   1.372 .      A
C29   C30   1.380 .      A
C29   C35   1.373 .      A
C30   C31   1.379 .      A
C31   C32   1.371 .      A
C32   N9    1.361 .      A
C32   C34   1.351 .      A
N9    C33   1.358 .      A
C33   N10   1.360 .      A
N10   C34   1.331 .      A
C34   C35   1.368 .      A
C36   C37   1.383 .      A
C36   C42   1.380 .      A
C37   C38   1.382 .      A
C38   C39   1.373 .      A
C39   N11   1.339 .      A
C39   C41   1.353 .      A
N11   C40   1.376 .      A
C40   N12   1.374 .      A
N12   C41   1.351 .      A
C41   C42   1.367 .      A
C43   C44   1.386 .      A
C43   C49   1.384 .      A
C44   C45   1.380 .      A
C45   C46   1.373 .      A
C46   N13   1.340 .      A
C46   C48   1.363 .      A
N13   C47   1.369 .      A
C47   N14   1.368 .      A
N14   C48   1.361 .      A
C48   C49   1.380 .      A
C50   C51   1.376 .      A
C50   C56   1.382 .      A
C51   C52   1.372 .      A
C52   C53   1.367 .      A
C53   N15   1.340 .      A
C53   C55   1.353 .      A
N15   C54   1.374 .      A
C54   N16   1.379 .      A
N16   C55   1.354 .      A
C55   C56   1.372 .      A
C57   C58   1.389 .      A
C57   C63   1.382 .      A
C58   C59   1.384 .      A
C59   C60   1.374 .      A
C60   N17   1.341 .      A
C60   C62   1.352 .      A
N17   C61   1.373 .      A
C61   N18   1.372 .      A
N18   C62   1.348 .      A
C62   C63   1.371 .      A
C64   C65   1.383 .      A
C64   C70   1.381 .      A
C65   C66   1.380 .      A
C66   C67   1.379 .      A
C67   N19   1.353 .      A
C67   C69   1.363 .      A
N19   C68   1.381 .      A
C68   N20   1.380 .      A
N20   C69   1.355 .      A
C69   C70   1.379 .      A
C71   C72   1.386 .      A
C71   C77   1.383 .      A
C72   C73   1.381 .      A
C73   C74   1.373 .      A
C74   N21   1.347 .      A
C74   C76   1.364 .      A
N21   C75   1.384 .      A
C75   N22   1.379 .      A
N22   C76   1.354 .      A
C76   C77   1.372 .      A
C78   C79   1.375 .      A
C78   C84   1.374 .      A
C79   C80   1.375 .      A
C80   C81   1.354 .      A
C81   N23   1.350 .      A
C81   C83   1.347 .      A
N23   C82   1.380 .      A
C82   N24   1.382 .      A
N24   C83   1.334 .      A
C83   C84   1.367 .      A
C85   C86   1.377 .      A
C85   C91   1.374 .      A
C86   C87   1.381 .      A
C87   C88   1.378 .      A
C88   N25   1.349 .      A
C88   C90   1.340 .      A
N25   C89   1.377 .      A
C89   N26   1.377 .      A
N26   C90   1.339 .      A
C90   C91   1.360 .      A
C92   C93   1.383 .      A
C92   C98   1.382 .      A
C93   C94   1.376 .      A
C94   C95   1.378 .      A
C95   N27   1.348 .      A
C95   C97   1.361 .      A
N27   C96   1.379 .      A
C96   N28   1.383 1_545  A
N28   C96   1.383 1_565  A
N28   C97   1.351 1_565  A
C97   N28   1.351 1_545  A
C97   C98   1.374 .      A
C99   C100  1.382 .      A
C99   C105  1.378 .      A
C100  C101  1.380 .      A
C101  C102  1.375 .      A
C102  N29   1.350 .      A
C102  C104  1.349 .      A
N29   C103  1.363 .      A
C103  N30   1.358 .      A
N30   C104  1.340 .      A
C104  C105  1.372 .      A
C106  C107  1.388 .      A
C106  C112  1.383 1_545  A
C107  C108  1.384 1_545  A
C108  C107  1.384 1_565  A
C108  C109  1.375 .      A
C109  N31   1.351 .      A
C109  C111  1.365 .      A
N31   C110  1.382 .      A
C110  N32   1.377 .      A
N32   C111  1.343 .      A
C111  C112  1.372 .      A
C112  C106  1.383 1_565  A
C113  C114  1.386 .      A
C113  C119  1.379 1_545  A
C114  C115  1.384 1_545  A
C115  C114  1.384 1_565  A
C115  C116  1.373 .      A
C116  N33   1.350 .      A
C116  C118  1.355 .      A
N33   C117  1.374 .      A
C117  N34   1.371 .      A
N34   C118  1.341 .      A
C118  C119  1.366 .      A
C119  C113  1.379 1_565  A
C120  C121  1.384 .      A
C120  C126  1.384 .      A
C121  C122  1.378 .      A
C122  C123  1.377 .      A
C123  N35   1.344 1_545  A
C123  C125  1.360 .      A
N35   C123  1.344 1_565  A
N35   C124  1.378 .      A
C124  N36   1.382 1_565  A
N36   C124  1.382 1_545  A
N36   C125  1.356 .      A
C125  C126  1.374 .      A
C127  C128  1.384 .      A
C127  C133  1.376 .      A
C128  C129  1.383 .      A
C129  C130  1.369 .      A
C130  N37   1.353 .      A
C130  C132  1.358 .      A
N37   C131  1.381 .      A
C131  N38   1.374 .      A
N38   C132  1.338 .      A
C132  C133  1.370 .      A
C134  C135  1.386 .      A
C134  C140  1.382 .      A
C135  C136  1.381 .      A
C136  C137  1.369 .      A
C137  N39   1.352 .      A
C137  C139  1.365 .      A
N39   C138  1.389 .      A
C138  N40   1.386 .      A
N40   C139  1.344 .      A
C139  C140  1.373 .      A
C141  C142  1.379 .      A
C141  C147  1.392 .      A
C142  C143  1.372 .      A
C143  C144  1.361 .      A
C144  N41   1.331 .      A
C144  C146  1.355 .      A
N41   C145  1.374 .      A
C145  N42   1.373 .      A
N42   C146  1.355 .      A
C146  C147  1.379 .      A
C148  C149  1.390 .      A
C148  C154  1.383 .      A
C149  C150  1.385 .      A
C150  C151  1.373 .      A
C151  N43   1.351 .      A
C151  C153  1.358 .      A
N43   C152  1.386 .      A
C152  N44   1.380 .      A
N44   C153  1.344 .      A
C153  C154  1.372 .      A
C155  C156  1.387 .      A
C155  C161  1.392 .      A
C156  C157  1.375 .      A
C157  C158  1.367 .      A
C158  N45   1.331 .      A
C158  C160  1.364 .      A
N45   C159  1.376 .      A
C159  N46   1.372 .      A
N46   C160  1.358 .      A
C160  C161  1.377 .      A
C162  C163  1.392 .      A
C162  C168  1.385 .      A
C163  C164  1.385 .      A
C164  C165  1.372 .      A
C165  N47   1.346 .      A
C165  C167  1.369 .      A
N47   C166  1.388 .      A
C166  N48   1.390 .      A
N48   C167  1.349 .      A
C167  C168  1.372 .      A
C169  C170  1.370 .      A
C169  C175  1.381 .      A
C170  C171  1.361 .      A
C171  C172  1.367 .      A
C172  N49   1.331 .      A
C172  C174  1.344 .      A
N49   C173  1.371 .      A
C173  N50   1.372 .      A
N50   C174  1.358 .      A
C174  C175  1.378 .      A
C176  C177  1.386 .      A
C176  C182  1.384 .      A
C177  C178  1.381 .      A
C178  C179  1.372 .      A
C179  N51   1.344 .      A
C179  C181  1.367 .      A
N51   C180  1.383 .      A
C180  N52   1.381 .      A
N52   C181  1.358 .      A
C181  C182  1.380 .      A
C183  C184  1.389 .      A
C183  C189  1.385 .      A
C184  C185  1.381 .      A
C185  C186  1.371 .      A
C186  N53   1.337 .      A
C186  C188  1.364 .      A
N53   C187  1.356 .      A
C187  N54   1.374 .      A
N54   C188  1.362 .      A
C188  C189  1.379 .      A
C190  C191  1.390 .      A
C190  C196  1.383 .      A
C191  C192  1.383 .      A
C192  C193  1.369 .      A
C193  N55   1.345 .      A
C193  C195  1.366 .      A
N55   C194  1.387 .      A
C194  N56   1.379 .      A
N56   C195  1.353 .      A
C195  C196  1.375 .      A
C197  C198  1.382 .      A
C197  C203  1.380 .      A
C198  C199  1.379 .      A
C199  C200  1.375 .      A
C200  N57   1.341 .      A
C200  C202  1.354 .      A
N57   C201  1.350 .      A
C201  N58   1.369 .      A
N58   C202  1.354 .      A
C202  C203  1.374 .      A
C204  C205  1.383 .      A
C204  C210  1.377 .      A
C205  C206  1.383 .      A
C206  C207  1.385 .      A
C207  N59   1.365 .      A
C207  C209  1.365 .      A
N59   C208  1.382 .      A
C208  N60   1.376 .      A
N60   C209  1.337 .      A
C209  C210  1.372 .      A
C211  C212  1.386 .      A
C211  C217  1.390 .      A
C212  C213  1.377 .      A
C213  C214  1.363 .      A
C214  N61   1.338 .      A
C214  C216  1.354 .      A
N61   C215  1.374 .      A
C215  N62   1.373 .      A
N62   C216  1.346 .      A
C216  C217  1.375 .      A
C218  C219  1.391 .      A
C218  C224  1.385 .      A
C219  C220  1.384 .      A
C220  C221  1.372 .      A
C221  N63   1.341 .      A
C221  C223  1.359 .      A
N63   C222  1.365 .      A
C222  N64   1.364 .      A
N64   C223  1.351 .      A
C223  C224  1.373 .      A
C225  C226  1.387 .      A
C225  C231  1.378 .      A
C226  C227  1.384 .      A
C227  C228  1.375 .      A
C228  N65   1.344 .      A
C228  C230  1.348 .      A
N65   C229  1.368 .      A
C229  N66   1.365 .      A
N66   C230  1.348 .      A
C230  C231  1.369 .      A
C232  C233  1.386 .      A
C232  C238  1.380 .      A
C233  C234  1.383 .      A
C234  C235  1.372 .      A
C235  N67   1.348 .      A
C235  C237  1.364 .      A
N67   C236  1.385 1_655  A
C236  N67   1.385 1_455  A
C236  N68   1.369 .      A
N68   C237  1.348 1_455  A
C237  N68   1.348 1_655  A
C237  C238  1.371 .      A
C239  C240  1.385 .      A
C239  C245  1.382 .      A
C240  C241  1.382 .      A
C241  C242  1.346 .      A
C242  N69   1.346 .      A
C242  C244  1.345 .      A
N69   C243  1.361 .      A
C243  N70   1.377 .      A
N70   C244  1.336 .      A
C244  C245  1.372 .      A
C246  C247  1.364 .      A
C246  C252  1.382 .      A
C247  C248  1.357 .      A
C248  C249  1.365 .      A
C249  N71   1.343 .      A
C249  C251  1.343 .      A
N71   C250  1.372 .      A
C250  N72   1.375 .      A
N72   C251  1.345 .      A
C251  C252  1.380 .      A
C253  C254  1.387 .      A
C253  C259  1.382 .      A
C254  C255  1.383 .      A
C255  C256  1.374 .      A
C256  N73   1.352 .      A
C256  C258  1.358 .      A
N73   C257  1.363 .      A
C257  N74   1.366 .      A
N74   C258  1.347 .      A
C258  C259  1.375 .      A
C260  C261  1.386 .      A
C260  C266  1.381 .      A
C261  C262  1.381 .      A
C262  C263  1.374 .      A
C263  N75   1.343 .      A
C263  C265  1.359 .      A
N75   C264  1.367 .      A
C264  N76   1.368 .      A
N76   C265  1.355 .      A
C265  C266  1.378 .      A
C267  C268  1.372 .      A
C267  C273  1.372 .      A
C268  C269  1.376 .      A
C269  C270  1.369 .      A
C270  N77   1.356 .      A
C270  C272  1.347 .      A
N77   C271  1.366 .      A
C271  N78   1.373 .      A
N78   C272  1.341 .      A
C272  C273  1.372 .      A
C274  C275  1.392 .      A
C274  C280  1.334 .      A
C275  C276  1.389 .      A
C276  C277  1.368 .      A
C277  N79   1.346 .      A
C277  C279  1.343 .      A
N79   C278  1.377 .      A
C278  N80   1.367 .      A
N80   C279  1.316 .      A
C279  C280  1.334 .      A
C281  C282  1.379 .      A
C281  C287  1.382 .      A
C282  C283  1.373 .      A
C283  C284  1.361 .      A
C284  N81   1.335 .      A
C284  C286  1.344 .      A
N81   C285  1.362 .      A
C285  N82   1.364 .      A
N82   C286  1.355 .      A
C286  C287  1.376 .      A
C288  C289  1.384 .      A
C288  C294  1.385 .      A
C289  C290  1.379 .      A
C290  C291  1.376 .      A
C291  N83   1.359 .      A
C291  C293  1.358 .      A
N83   C292  1.363 .      A
C292  N84   1.359 .      A
N84   C293  1.336 .      A
C293  C294  1.375 .      A
C295  C296  1.384 .      A
C295  C301  1.383 .      A
C296  C297  1.378 .      A
C297  C298  1.375 .      A
C298  N85   1.335 .      A
C298  C300  1.355 .      A
N85   C299  1.363 .      A
C299  N86   1.378 .      A
N86   C300  1.359 .      A
C300  C301  1.371 .      A
C302  C303  1.382 .      A
C302  C308  1.370 .      A
C303  C304  1.376 .      A
C304  C305  1.373 .      A
C305  N87   1.338 .      A
C305  C307  1.359 .      A
N87   C306  1.371 .      A
C306  N88   1.372 .      A
N88   C307  1.345 .      A
C307  C308  1.362 .      A
C309  C310  1.381 .      A
C309  C315  1.381 .      A
C310  C311  1.378 .      A
C311  C312  1.381 .      A
C312  N89   1.346 .      A
C312  C314  1.355 .      A
N89   C313  1.360 .      A
C313  N90   1.358 .      A
N90   C314  1.355 .      A
C314  C315  1.371 .      A
C316  C317  1.384 .      A
C316  C322  1.372 .      A
C317  C318  1.380 .      A
C318  C319  1.363 .      A
C319  N91   1.341 .      A
C319  C321  1.349 .      A
N91   C320  1.368 .      A
C320  N92   1.351 .      A
N92   C321  1.339 .      A
C321  C322  1.365 .      A
C323  C324  1.378 .      A
C323  C329  1.388 .      A
C324  C325  1.370 .      A
C325  C326  1.377 .      A
C326  N93   1.342 .      A
C326  C328  1.343 .      A
N93   C327  1.363 .      A
C327  N94   1.369 .      A
N94   C328  1.349 .      A
C328  C329  1.378 .      A
C330  C331  1.391 .      A
C330  C336  1.383 1_545  A
C331  C332  1.385 1_545  A
C332  C331  1.385 1_565  A
C332  C333  1.367 .      A
C333  N95   1.349 .      A
C333  C335  1.358 .      A
N95   C334  1.367 .      A
C334  N96   1.371 .      A
N96   C335  1.338 .      A
C335  C336  1.368 .      A
C336  C330  1.383 1_565  A
C337  C338  1.382 .      A
C337  C343  1.383 .      A
C338  C339  1.379 .      A
C339  C340  1.374 .      A
C340  N97   1.349 .      A
C340  C342  1.359 .      A
N97   C341  1.373 .      A
C341  N98   1.371 .      A
N98   C342  1.351 .      A
C342  C343  1.372 .      A
C344  C345  1.374 .      A
C344  C350  1.381 .      A
C345  C346  1.369 .      A
C346  C347  1.372 .      A
C347  N99   1.341 1_565  A
C347  C349  1.345 .      A
N99   C347  1.341 1_545  A
N99   C348  1.371 .      A
C348  N100  1.376 1_545  A
N100  C348  1.376 1_565  A
N100  C349  1.352 .      A
C349  C350  1.379 .      A
C351  C352  1.384 .      A
C351  C357  1.378 .      A
C352  C353  1.385 .      A
C353  C354  1.371 .      A
C354  N101  1.348 .      A
C354  C356  1.360 .      A
N101  C355  1.368 .      A
C355  N102  1.380 .      A
N102  C356  1.342 .      A
C356  C357  1.367 .      A
C358  C359  1.384 .      A
C358  C364  1.376 .      A
C359  C360  1.379 1_556  A
C360  C359  1.379 1_554  A
C360  C361  1.378 .      A
C361  N103  1.342 .      A
C361  C363  1.355 1_554  A
N103  C362  1.366 .      A
C362  N104  1.362 .      A
N104  C363  1.350 1_554  A
C363  C361  1.355 1_556  A
C363  N104  1.350 1_556  A
C363  C364  1.368 .      A
C365  C366  1.369 .      A
C365  C371  1.389 .      A
C366  C367  1.362 .      A
C367  C368  1.372 .      A
C368  N105  1.339 .      A
C368  C370  1.352 .      A
N105  C369  1.381 .      A
C369  N106  1.384 .      A
N106  C370  1.359 .      A
C370  C371  1.379 .      A
C372  C373  1.390 .      A
C372  C378  1.388 .      A
C373  C374  1.383 .      A
C374  C375  1.372 .      A
C375  N107  1.351 .      A
C375  C377  1.363 .      A
N107  C376  1.380 .      A
C376  N108  1.361 .      A
N108  C377  1.345 .      A
C377  C378  1.370 .      A
C379  C380  1.378 .      A
C379  C385  1.380 .      A
C380  C381  1.374 .      A
C381  C382  1.367 .      A
C382  N109  1.347 .      A
C382  C384  1.352 .      A
N109  C383  1.373 .      A
C383  N110  1.375 .      A
N110  C384  1.345 .      A
C384  C385  1.374 .      A
C386  C387  1.384 .      A
C386  C392  1.381 .      A
C387  C388  1.380 .      A
C388  C389  1.375 .      A
C389  N111  1.345 .      A
C389  C391  1.363 .      A
N111  C390  1.375 .      A
C390  N112  1.385 .      A
N112  C391  1.356 .      A
C391  C392  1.376 .      A
C393  C394  1.377 1_565  A
C393  C399  1.374 .      A
C394  C393  1.377 1_545  A
C394  C395  1.378 1_545  A
C395  C394  1.378 1_565  A
C395  C396  1.380 .      A
C396  N113  1.350 .      A
C396  C398  1.347 .      A
N113  C397  1.377 .      A
C397  N114  1.374 .      A
N114  C398  1.344 .      A
C398  C399  1.363 .      A
C400  C401  1.387 .      A
C400  C406  1.380 .      A
C401  C402  1.384 .      A
C402  C403  1.376 .      A
C403  N115  1.355 .      A
C403  C405  1.362 .      A
N115  C404  1.372 .      A
C404  N116  1.377 1_545  A
N116  C404  1.377 1_565  A
N116  C405  1.341 1_565  A
C405  N116  1.341 1_545  A
C405  C406  1.371 .      A
C407  C408  1.389 1_455  A
C407  C413  1.384 .      A
C408  C407  1.389 1_655  A
C408  C409  1.382 .      A
C409  C410  1.368 1_655  A
C410  C409  1.368 1_455  A
C410  N117  1.347 .      A
C410  C412  1.358 .      A
N117  C411  1.380 .      A
C411  N118  1.382 .      A
N118  C412  1.343 .      A
C412  C413  1.374 .      A
C414  C415  1.389 .      A
C414  C420  1.383 1_455  A
C415  C416  1.383 .      A
C416  C417  1.371 1_455  A
C417  C416  1.371 1_655  A
C417  N119  1.341 1_545  A
C417  C419  1.367 .      A
N119  C417  1.341 1_565  A
N119  C418  1.378 1_565  A
C418  N119  1.378 1_545  A
C418  N120  1.377 .      A
N120  C419  1.354 .      A
C419  C420  1.375 .      A
C420  C414  1.383 1_655  A
C421  C422  1.379 .      A
C421  C427  1.373 .      A
C422  C423  1.380 .      A
C423  C424  1.364 .      A
C424  N121  1.335 .      A
C424  C426  1.343 .      A
N121  C425  1.371 .      A
C425  N122  1.366 .      A
N122  C426  1.344 .      A
C426  C427  1.369 .      A
C428  C429  1.382 .      A
C428  C434  1.378 1_655  A
C429  C430  1.380 .      A
C430  C431  1.375 .      A
C431  N123  1.347 .      A
C431  C433  1.344 1_655  A
N123  C432  1.372 1_655  A
C432  N123  1.372 1_455  A
C432  N124  1.374 .      A
N124  C433  1.344 .      A
C433  C431  1.344 1_455  A
C433  C434  1.372 .      A
C434  C428  1.378 1_455  A
C435  C436  1.382 .      A
C435  C441  1.379 1_545  A
C436  C437  1.380 .      A
C437  C438  1.378 .      A
C438  N125  1.349 1_655  A
C438  C440  1.356 1_545  A
N125  C438  1.349 1_455  A
N125  C439  1.374 1_545  A
C439  N125  1.374 1_565  A
C439  N126  1.373 1_455  A
N126  C439  1.373 1_655  A
N126  C440  1.351 .      A
C440  C438  1.356 1_565  A
C440  C441  1.377 .      A
C441  C435  1.379 1_565  A
C442  C443  1.386 .      A
C442  C448  1.366 .      A
C443  C444  1.387 .      A
C444  C445  1.372 .      A
C445  N127  1.353 .      A
C445  C447  1.347 .      A
N127  C446  1.367 .      A
C446  N128  1.354 .      A
N128  C447  1.327 .      A
C447  C448  1.359 .      A
C449  C450  1.391 .      A
C449  C455  1.385 .      A
C450  C451  1.385 .      A
C451  C452  1.373 .      A
C452  N129  1.347 .      A
C452  C454  1.358 .      A
N129  C453  1.381 .      A
C453  N130  1.372 .      A
N130  C454  1.347 .      A
C454  C455  1.374 .      A
C456  C457  1.378 .      A
C456  C462  1.399 .      A
C457  C458  1.368 .      A
C458  C459  1.370 .      A
C459  N131  1.330 .      A
C459  C461  1.350 .      A
N131  C460  1.365 .      A
C460  N132  1.367 .      A
N132  C461  1.360 .      A
C461  C462  1.373 .      A
C463  C464  1.389 .      A
C463  C469  1.367 .      A
C464  C465  1.384 .      A
C465  C466  1.370 .      A
C466  N133  1.341 .      A
C466  C468  1.354 .      A
N133  C467  1.382 .      A
C467  N134  1.359 .      A
N134  C468  1.338 .      A
C468  C469  1.357 .      A
C470  C471  1.392 .      A
C470  C476  1.387 .      A
C471  C472  1.384 .      A
C472  C473  1.371 .      A
C473  N135  1.342 .      A
C473  C475  1.350 .      A
N135  C474  1.355 .      A
C474  N136  1.358 .      A
N136  C475  1.342 .      A
C475  C476  1.372 .      A
C477  C478  1.379 .      A
C477  C483  1.368 .      A
C478  C479  1.380 1_655  A
C479  C478  1.380 1_455  A
C479  C480  1.363 .      A
C480  N137  1.345 .      A
C480  C482  1.356 1_455  A
N137  C481  1.371 .      A
C481  N138  1.373 1_455  A
N138  C481  1.373 1_655  A
N138  C482  1.332 .      A
C482  C480  1.356 1_655  A
C482  C483  1.356 .      A
C484  C485  1.369 .      A
C484  C490  1.367 .      A
C485  C486  1.369 .      A
C486  C487  1.364 .      A
C487  N139  1.349 .      A
C487  C489  1.353 .      A
N139  C488  1.384 .      A
C488  N140  1.386 .      A
N140  C489  1.334 .      A
C489  C490  1.371 .      A
C491  C492  1.387 .      A
C491  C497  1.382 .      A
C492  C493  1.382 .      A
C493  C494  1.370 .      A
C494  N141  1.340 .      A
C494  C496  1.349 .      A
N141  C495  1.377 .      A
C495  N142  1.371 .      A
N142  C496  1.347 .      A
C496  C497  1.363 .      A
C498  C499  1.389 .      A
C498  C504  1.382 .      A
C499  C500  1.385 .      A
C500  C501  1.373 .      A
C501  N143  1.353 .      A
C501  C503  1.358 .      A
N143  C502  1.368 .      A
C502  N144  1.367 .      A
N144  C503  1.340 .      A
C503  C504  1.372 .      A
C505  C506  1.389 .      A
C505  C511  1.385 .      A
C506  C507  1.382 .      A
C507  C508  1.374 .      A
C508  N145  1.340 .      A
C508  C510  1.350 .      A
N145  C509  1.368 .      A
C509  N146  1.362 .      A
N146  C510  1.352 .      A
C510  C511  1.370 .      A
C512  C513  1.390 .      A
C512  C518  1.379 1_545  A
C513  C514  1.384 1_545  A
C514  C513  1.384 1_565  A
C514  C515  1.370 .      A
C515  N147  1.345 .      A
C515  C517  1.356 .      A
N147  C516  1.391 .      A
C516  N148  1.389 .      A
N148  C517  1.342 .      A
C517  C518  1.362 .      A
C518  C512  1.379 1_565  A
C519  C520  1.382 .      A
C519  C525  1.381 .      A
C520  C521  1.377 .      A
C521  C522  1.369 .      A
C522  N149  1.342 .      A
C522  C524  1.354 .      A
N149  C523  1.361 .      A
C523  N150  1.369 .      A
N150  C524  1.350 .      A
C524  C525  1.376 .      A
C526  C527  1.387 1_655  A
C526  C532  1.380 1_545  A
C527  C526  1.387 1_455  A
C527  C528  1.384 1_545  A
C528  C527  1.384 1_565  A
C528  C529  1.375 .      A
C529  N151  1.357 .      A
C529  C531  1.359 1_455  A
N151  C530  1.374 .      A
C530  N152  1.379 1_455  A
N152  C530  1.379 1_655  A
N152  C531  1.335 .      A
C531  C529  1.359 1_655  A
C531  C532  1.372 .      A
C532  C526  1.380 1_565  A
C533  C534  1.387 .      A
C533  C539  1.384 .      A
C534  C535  1.382 .      A
C535  C536  1.365 .      A
C536  N153  1.348 .      A
C536  C538  1.353 .      A
N153  C537  1.378 .      A
C537  N154  1.381 1_545  A
N154  C537  1.381 1_565  A
N154  C538  1.344 1_565  A
C538  N154  1.344 1_545  A
C538  C539  1.372 .      A
C540  C541  1.389 .      A
C540  C546  1.381 .      A
C541  C542  1.385 .      A
C542  C543  1.377 .      A
C543  N155  1.355 .      A
C543  C545  1.360 .      A
N155  C544  1.374 .      A
C544  N156  1.373 .      A
N156  C545  1.341 .      A
C545  C546  1.373 .      A
C547  C548  1.390 .      A
C547  C553  1.385 .      A
C548  C549  1.384 .      A
C549  C550  1.376 .      A
C550  N157  1.351 .      A
C550  C552  1.356 .      A
N157  C551  1.375 .      A
C551  N158  1.377 .      A
N158  C552  1.343 .      A
C552  C553  1.372 .      A
C554  C555  1.379 1_655  A
C554  C560  1.381 .      A
C555  C554  1.379 1_455  A
C555  C556  1.375 1_455  A
C556  C555  1.375 1_655  A
C556  C557  1.369 .      A
C557  N159  1.334 .      A
C557  C559  1.347 .      A
N159  C558  1.366 .      A
C558  N160  1.366 .      A
N160  C559  1.359 .      A
C559  C560  1.373 .      A
C561  C562  1.386 .      A
C561  C567  1.380 .      A
C562  C563  1.382 .      A
C563  C564  1.375 1_556  A
C564  C563  1.375 1_554  A
C564  N161  1.348 .      A
C564  C566  1.361 1_554  A
N161  C565  1.372 .      A
C565  N162  1.376 .      A
N162  C566  1.354 1_554  A
C566  C564  1.361 1_556  A
C566  N162  1.354 1_556  A
C566  C567  1.379 .      A
C568  C569  1.389 .      A
C568  C574  1.383 .      A
C569  C570  1.385 .      A
C570  C571  1.374 .      A
C571  N163  1.350 .      A
C571  C573  1.355 .      A
N163  C572  1.385 .      A
C572  N164  1.386 .      A
N164  C573  1.341 .      A
C573  C574  1.372 .      A
C575  C576  1.382 .      A
C575  C581  1.370 .      A
C576  C577  1.383 .      A
C577  C578  1.371 .      A
C578  N165  1.348 .      A
C578  C580  1.342 .      A
N165  C579  1.380 .      A
C579  N166  1.370 .      A
N166  C580  1.339 .      A
C580  C581  1.363 .      A
C582  C583  1.384 1_565  A
C582  C588  1.383 1_556  A
C583  C582  1.384 1_545  A
C583  C584  1.376 1_545  A
C584  C583  1.376 1_565  A
C584  C585  1.364 1_556  A
C585  C584  1.364 1_554  A
C585  N167  1.342 .      A
C585  C587  1.361 .      A
N167  C586  1.372 .      A
C586  N168  1.380 .      A
N168  C587  1.347 .      A
C587  C588  1.371 .      A
C588  C582  1.383 1_554  A
C589  C590  1.384 1_566  A
C589  C595  1.385 .      A
C590  C589  1.384 1_544  A
C590  C591  1.377 .      A
C591  C592  1.376 .      A
C592  N169  1.340 .      A
C592  C594  1.351 1_545  A
N169  C593  1.374 1_545  A
C593  N169  1.374 1_565  A
C593  N170  1.372 .      A
N170  C594  1.354 .      A
C594  C592  1.351 1_565  A
C594  C595  1.372 1_554  A
C595  C594  1.372 1_556  A
C596  C597  1.380 .      A
C596  C602  1.388 1_545  A
C597  C598  1.374 1_545  A
C598  C597  1.374 1_565  A
C598  C599  1.377 .      A
C599  N171  1.347 .      A
C599  C601  1.358 .      A
N171  C600  1.369 .      A
C600  N172  1.372 .      A
N172  C601  1.353 .      A
C601  C602  1.373 .      A
C602  C596  1.388 1_565  A
C603  C604  1.386 .      A
C603  C609  1.379 .      A
C604  C605  1.383 .      A
C605  C606  1.380 .      A
C606  N173  1.357 .      A
C606  C608  1.355 .      A
N173  C607  1.352 .      A
C607  N174  1.366 .      A
N174  C608  1.340 .      A
C608  C609  1.373 .      A
C610  C611  1.390 .      A
C610  C616  1.377 .      A
C611  C612  1.382 .      A
C612  C613  1.373 1_556  A
C613  C612  1.373 1_554  A
C613  N175  1.353 .      A
C613  C615  1.349 .      A
N175  C614  1.369 .      A
C614  N176  1.359 .      A
N176  C615  1.336 .      A
C615  C616  1.371 1_554  A
C616  C615  1.371 1_556  A
C617  C618  1.387 .      A
C617  C623  1.369 .      A
C618  C619  1.384 .      A
C619  C620  1.376 .      A
C620  N177  1.349 .      A
C620  C622  1.348 .      A
N177  C621  1.351 .      A
C621  N178  1.351 .      A
N178  C622  1.333 .      A
C622  C623  1.360 .      A
C624  C625  1.394 .      A
C624  C630  1.340 .      A
C625  C626  1.394 .      A
C626  C627  1.367 1_455  A
C627  C626  1.367 1_655  A
C627  N179  1.349 .      A
C627  C629  1.344 .      A
N179  C628  1.365 .      A
C628  N180  1.355 .      A
N180  C629  1.316 .      A
C629  C630  1.343 1_655  A
C630  C629  1.343 1_455  A
C631  C632  1.386 .      A
C631  C637  1.383 1_545  A
C632  C633  1.383 1_545  A
C633  C632  1.383 1_565  A
C633  C634  1.377 .      A
C634  N181  1.358 .      A
C634  C636  1.364 .      A
N181  C635  1.379 .      A
C635  N182  1.386 .      A
N182  C636  1.340 .      A
C636  C637  1.373 .      A
C637  C631  1.383 1_565  A
C638  C639  1.384 .      A
C638  C644  1.397 .      A
C639  C640  1.373 .      A
C640  C641  1.359 .      A
C641  N183  1.338 .      A
C641  C643  1.363 .      A
N183  C642  1.372 .      A
C642  N184  1.376 .      A
N184  C643  1.350 .      A
C643  C644  1.378 .      A
C645  C646  1.387 1_655  A
C645  C651  1.383 .      A
C646  C645  1.387 1_455  A
C646  C647  1.384 .      A
C647  C648  1.378 .      A
C648  N185  1.355 1_556  A
C648  C650  1.353 1_556  A
N185  C648  1.355 1_554  A
N185  C649  1.354 .      A
C649  N186  1.360 .      A
N186  C650  1.344 .      A
C650  C648  1.353 1_554  A
C650  C651  1.379 1_454  A
C651  C650  1.379 1_656  A
C652  C653  1.385 .      A
C652  C658  1.379 .      A
C653  C654  1.385 .      A
C654  C655  1.377 .      A
C655  N187  1.359 .      A
C655  C657  1.357 .      A
N187  C656  1.370 .      A
C656  N188  1.362 .      A
N188  C657  1.337 .      A
C657  C658  1.371 .      A
C659  C660  1.387 .      A
C659  C665  1.388 .      A
C660  C661  1.379 .      A
C661  C662  1.367 .      A
C662  N189  1.343 1_556  A
C662  C664  1.354 .      A
N189  C662  1.343 1_554  A
N189  C663  1.378 .      A
C663  N190  1.379 .      A
N190  C664  1.342 1_554  A
C664  N190  1.342 1_556  A
C664  C665  1.372 .      A
C666  C667  1.390 1_554  A
C666  C672  1.384 .      A
C667  C666  1.390 1_556  A
C667  C668  1.384 .      A
C668  C669  1.373 1_556  A
C669  C668  1.373 1_554  A
C669  N191  1.344 .      A
C669  C671  1.361 .      A
N191  C670  1.379 .      A
C670  N192  1.374 .      A
N192  C671  1.351 .      A
C671  C672  1.373 .      A
C673  C674  1.384 .      A
C673  C679  1.376 .      A
C674  C675  1.378 .      A
C675  C676  1.373 .      A
C676  N193  1.337 .      A
C676  C678  1.341 .      A
N193  C677  1.366 .      A
C677  N194  1.364 .      A
N194  C678  1.347 .      A
C678  C679  1.366 .      A
C680  C681  1.393 .      A
C680  C686  1.385 .      A
C681  C682  1.386 .      A
C682  C683  1.372 .      A
C683  N195  1.343 .      A
C683  C685  1.354 .      A
N195  C684  1.367 .      A
C684  N196  1.363 .      A
N196  C685  1.342 .      A
C685  C686  1.371 .      A
C687  C688  1.391 .      A
C687  C693  1.385 .      A
C688  C689  1.384 .      A
C689  C690  1.371 .      A
C690  N197  1.337 .      A
C690  C692  1.356 .      A
N197  C691  1.369 .      A
C691  N198  1.368 .      A
N198  C692  1.350 .      A
C692  C693  1.367 .      A
C694  C695  1.394 .      A
C694  C700  1.386 .      A
C695  C696  1.386 .      A
C696  C697  1.370 .      A
C697  N199  1.343 .      A
C697  C699  1.358 .      A
N199  C698  1.364 .      A
C698  N200  1.361 .      A
N200  C699  1.344 .      A
C699  C700  1.371 .      A
C701  C702  1.378 .      A
C701  C707  1.385 1_565  A
C702  C703  1.360 1_565  A
C703  C702  1.360 1_545  A
C703  C704  1.363 .      A
C704  N201  1.332 .      A
C704  C706  1.356 .      A
N201  C705  1.371 .      A
C705  N202  1.373 .      A
N202  C706  1.344 .      A
C706  C707  1.368 .      A
C707  C701  1.385 1_545  A
C708  C709  1.390 .      A
C708  C714  1.378 .      A
C709  C710  1.388 .      A
C710  C711  1.370 .      A
C711  N203  1.350 .      A
C711  C713  1.350 .      A
N203  C712  1.364 .      A
C712  N204  1.366 .      A
N204  C713  1.332 .      A
C713  C714  1.369 .      A
C715  C716  1.391 .      A
C715  C721  1.380 .      A
C716  C717  1.387 .      A
C717  C718  1.370 .      A
C718  N205  1.350 .      A
C718  C720  1.352 .      A
N205  C719  1.362 .      A
C719  N206  1.355 .      A
N206  C720  1.334 .      A
C720  C721  1.368 .      A
C722  C723  1.386 .      A
C722  C728  1.383 .      A
C723  C724  1.381 1_556  A
C724  C723  1.381 1_554  A
C724  C725  1.372 .      A
C725  N207  1.344 .      A
C725  C727  1.356 .      A
N207  C726  1.366 .      A
C726  N208  1.365 .      A
N208  C727  1.350 .      A
C727  C728  1.373 1_554  A
C728  C727  1.373 1_556  A
C729  C730  1.392 1_455  A
C729  C735  1.385 .      A
C730  C729  1.392 1_655  A
C730  C731  1.385 1_655  A
C731  C730  1.385 1_455  A
C731  C732  1.371 .      A
C732  N209  1.341 .      A
C732  C734  1.353 .      A
N209  C733  1.370 .      A
C733  N210  1.367 .      A
N210  C734  1.344 .      A
C734  C735  1.372 .      A
C736  C737  1.386 .      A
C736  C742  1.383 .      A
C737  C738  1.381 .      A
C738  C739  1.370 .      A
C739  N211  1.338 .      A
C739  C741  1.355 .      A
N211  C740  1.366 .      A
C740  N212  1.364 .      A
N212  C741  1.356 .      A
C741  C742  1.376 .      A
C743  C744  1.385 .      A
C743  C749  1.378 .      A
C744  C745  1.383 .      A
C745  C746  1.378 .      A
C746  N213  1.349 .      A
C746  C748  1.356 .      A
N213  C747  1.365 .      A
C747  N214  1.367 .      A
N214  C748  1.346 .      A
C748  C749  1.375 .      A
C750  C751  1.388 .      A
C750  C756  1.388 .      A
C751  C752  1.378 .      A
C752  C753  1.368 .      A
C753  N215  1.338 .      A
C753  C755  1.369 .      A
N215  C754  1.379 .      A
C754  N216  1.382 .      A
N216  C755  1.356 .      A
C755  C756  1.373 .      A
C757  C758  1.383 .      A
C757  C763  1.374 .      A
C758  C759  1.383 .      A
C759  C760  1.369 .      A
C760  N217  1.356 .      A
C760  C762  1.360 .      A
N217  C761  1.387 .      A
C761  N218  1.385 .      A
N218  C762  1.334 .      A
C762  C763  1.373 .      A
C764  C765  1.377 .      A
C764  C770  1.372 .      A
C765  C766  1.381 .      A
C766  C767  1.370 .      A
C767  N219  1.340 .      A
C767  C769  1.348 .      A
N219  C768  1.366 .      A
C768  N220  1.376 .      A
N220  C769  1.349 .      A
C769  C770  1.377 .      A
C771  C772  1.392 .      A
C771  C777  1.374 .      A
C772  C773  1.386 .      A
C773  C774  1.371 1_565  A
C774  C773  1.371 1_545  A
C774  N221  1.342 .      A
C774  C776  1.350 .      A
N221  C775  1.365 .      A
C775  N222  1.357 .      A
N222  C776  1.341 .      A
C776  C777  1.365 1_545  A
C777  C776  1.365 1_565  A
C778  C779  1.387 .      A
C778  C784  1.385 .      A
C779  C780  1.381 .      A
C780  C781  1.377 .      A
C781  N223  1.343 .      A
C781  C783  1.354 .      A
N223  C782  1.366 .      A
C782  N224  1.372 .      A
N224  C783  1.350 .      A
C783  C784  1.369 .      A
