data_str_m1_o12216_SFO
_audit_creation_date              2015-10-01T06:26:00-0700
_symmetry_space_group_name_H-M    P1
_symmetry_Int_Tables_number       1
_space_group_crystal_system       triclinic
loop_
_symmetry_equiv_pos_as_xyz
  x,y,z
_cell_length_a                    14.5679753
_cell_length_b                    27.5351346
_cell_length_c                    26.2186467
_cell_angle_alpha                 114.611811
_cell_angle_beta                  95.0910922
_cell_angle_gamma                 86.5495511
_cell_volume                      9520.78358949

loop_
_atom_site_label
_atom_site_type_symbol
_atom_site_description
_atom_site_fract_x
_atom_site_fract_y
_atom_site_fract_z
_atom_type_partial_charge
Zn1   Zn    Zn3+2 0.624014 0.301616 0.300310 0.000000
Zn2   Zn    Zn3+2 0.591831 0.653829 0.132497 0.000000
Zn3   Zn    Zn3+2 0.050643 0.238477 0.340866 0.000000
Zn4   Zn    Zn3+2 0.314525 0.913799 0.137618 0.000000
Zn5   Zn    Zn3+2 0.066117 0.006432 0.336227 0.000000
Zn6   Zn    Zn3+2 0.653147 0.902014 0.308010 0.000000
Zn7   Zn    Zn3+2 0.396634 0.332101 0.506599 0.000000
Zn8   Zn    Zn3+2 0.867059 0.337071 0.930253 0.000000
Zn9   Zn    Zn3+2 0.504920 0.244920 0.770730 0.000000
Zn10  Zn    Zn3+2 0.292607 0.264420 0.980390 0.000000
Zn11  Zn    Zn3+2 0.625642 0.413141 0.133942 0.000000
Zn12  Zn    Zn3+2 0.840734 0.566814 0.926403 0.000000
Zn13  Zn    Zn3+2 0.430265 0.096656 0.507492 0.000000
Zn14  Zn    Zn3+2 0.300021 0.152632 0.142201 0.000000
Zn15  Zn    Zn3+2 0.252437 0.671590 0.966388 0.000000
Zn16  Zn    Zn3+2 0.482560 0.480735 0.771045 0.000000
C1    C     C_3   0.839496 0.127185 0.404584 0.000000
C2    C     C_R   0.818214 0.160302 0.372327 0.000000
C3    C     C_R   0.738610 0.153589 0.337158 0.000000
C4    C     C_R   0.712568 0.191219 0.316076 0.000000
C5    C     C_R   0.772048 0.230920 0.325637 0.000000
N1    N     N_R   0.759080 0.276330 0.317713 0.000000
C6    C     C_R   0.848439 0.296080 0.330566 0.000000
N2    N     N_R   0.912594 0.262487 0.342239 0.000000
C7    C     C_R   0.859206 0.226344 0.345093 0.000000
C8    C     C_R   0.878707 0.198326 0.377151 0.000000
S1    S     S_3+2 0.873012 0.365602 0.360352 0.000000
O1    O     O_2   0.815529 0.396580 0.410762 0.000000
O2    O     O_2   0.850667 0.394728 0.321901 0.000000
O3    O     O_3   0.982411 0.383042 0.388966 0.000000
H1    H     H_    0.898805 0.143449 0.435203 0.000000
H2    H     H_    0.857785 0.085582 0.376861 0.000000
H3    H     H_    0.778792 0.127996 0.427172 0.000000
H4    H     H_    0.691916 0.122274 0.330717 0.000000
H5    H     H_    0.648786 0.188447 0.292507 0.000000
H6    H     H_    0.938639 0.206988 0.406253 0.000000
H7    H     H_    0.974973 0.403390 0.429678 0.000000
C9    C     C_3   0.347941 0.520929 0.487226 0.000000
C10   C     C_R   0.403718 0.471855 0.456290 0.000000
C11   C     C_R   0.441419 0.465513 0.407210 0.000000
C12   C     C_R   0.490003 0.419112 0.376539 0.000000
C13   C     C_R   0.510914 0.382027 0.398707 0.000000
N3    N     N_R   0.552726 0.332696 0.374518 0.000000
C14   C     C_R   0.523227 0.307598 0.406213 0.000000
N4    N     N_R   0.471431 0.340141 0.449430 0.000000
C15   C     C_R   0.464608 0.386100 0.443227 0.000000
C16   C     C_R   0.410484 0.430126 0.472754 0.000000
S2    S     S_3+2 0.517418 0.237033 0.382689 0.000000
O4    O     O_2   0.502331 0.205253 0.319188 0.000000
O5    O     O_2   0.429690 0.223235 0.401378 0.000000
O6    O     O_3   0.602811 0.204925 0.405939 0.000000
H8    H     H_    0.391890 0.556353 0.501514 0.000000
H9    H     H_    0.320584 0.518742 0.524323 0.000000
H10   H     H_    0.289589 0.524878 0.458904 0.000000
H11   H     H_    0.428149 0.495635 0.390926 0.000000
H12   H     H_    0.504811 0.411788 0.334882 0.000000
H13   H     H_    0.371923 0.431220 0.506506 0.000000
H14   H     H_    0.653091 0.230875 0.419349 0.000000
C17   C     C_3   0.470648 0.779399 0.412387 0.000000
C18   C     C_R   0.513868 0.763708 0.358176 0.000000
C19   C     C_R   0.513518 0.710761 0.319938 0.000000
C20   C     C_R   0.550214 0.695703 0.268642 0.000000
C21   C     C_R   0.586370 0.734214 0.256439 0.000000
N5    N     N_R   0.624602 0.726901 0.208761 0.000000
C22   C     C_R   0.669752 0.775478 0.225788 0.000000
N6    N     N_R   0.644718 0.814723 0.277492 0.000000
C23   C     C_R   0.595504 0.785655 0.296120 0.000000
C24   C     C_R   0.555739 0.801449 0.346557 0.000000
S3    S     S_3+2 0.788828 0.773358 0.210160 0.000000
O7    O     O_2   0.825196 0.716148 0.177436 0.000000
O8    O     O_2   0.850690 0.787693 0.264585 0.000000
O9    O     O_3   0.831207 0.810281 0.179064 0.000000
H15   H     H_    0.396571 0.769562 0.403747 0.000000
H16   H     H_    0.477130 0.822860 0.438430 0.000000
H17   H     H_    0.505324 0.757074 0.435759 0.000000
H18   H     H_    0.484055 0.681071 0.330132 0.000000
H19   H     H_    0.553792 0.654248 0.240420 0.000000
H20   H     H_    0.553859 0.842165 0.375823 0.000000
H21   H     H_    0.877215 0.833422 0.207602 0.000000
C25   C     C_3   0.925190 0.103287 0.132149 0.000000
C26   C     C_R   0.953312 0.092524 0.182023 0.000000
C27   C     C_R   0.961650 0.040547 0.177775 0.000000
C28   C     C_R   0.991678 0.031124 0.224460 0.000000
C29   C     C_R   0.011889 0.074397 0.274328 0.000000
N7    N     N_R   0.039605 0.074774 0.324771 0.000000
C30   C     C_R   0.057405 0.127904 0.356670 0.000000
N8    N     N_R   0.041688 0.159843 0.328053 0.000000
C31   C     C_R   0.009068 0.124767 0.277095 0.000000
C32   C     C_R   0.974323 0.135186 0.232455 0.000000
S4    S     S_3+2 0.114536 0.151318 0.423718 0.000000
O10   O     O_2   0.066772 0.142393 0.468610 0.000000
O11   O     O_2   0.115068 0.211836 0.449345 0.000000
O12   O     O_3   0.228505 0.134024 0.426353 0.000000
H22   H     H_    0.986617 0.113003 0.116613 0.000000
H23   H     H_    0.878491 0.138660 0.145461 0.000000
H24   H     H_    0.890185 0.068354 0.098929 0.000000
H25   H     H_    0.945538 0.007220 0.138049 0.000000
H26   H     H_    0.996542 0.991021 0.221507 0.000000
H27   H     H_    0.960430 0.175246 0.236566 0.000000
H28   H     H_    0.261035 0.167044 0.434727 0.000000
C33   C     C_3   0.068593 0.431246 0.623018 0.000000
C34   C     C_R   0.085654 0.385140 0.569981 0.000000
C35   C     C_R   0.011303 0.356664 0.535996 0.000000
C36   C     C_R   0.023292 0.319979 0.481658 0.000000
C37   C     C_R   0.110743 0.312661 0.463802 0.000000
N9    N     N_R   0.135694 0.287320 0.410661 0.000000
C38   C     C_R   0.220574 0.309258 0.415258 0.000000
N10   N     N_R   0.259553 0.329437 0.470249 0.000000
C39   C     C_R   0.184559 0.337351 0.499031 0.000000
C40   C     C_R   0.173694 0.375228 0.551941 0.000000
S5    S     S_3+2 0.207081 0.358820 0.386813 0.000000
O13   O     O_2   0.291765 0.382782 0.377122 0.000000
O14   O     O_2   0.165727 0.409203 0.432308 0.000000
O15   O     O_3   0.130950 0.348964 0.330170 0.000000
H29   H     H_    0.030281 0.461650 0.611793 0.000000
H30   H     H_    0.134631 0.448411 0.645937 0.000000
H31   H     H_    0.028101 0.418521 0.648975 0.000000
H32   H     H_    0.942670 0.365980 0.550670 0.000000
H33   H     H_    0.964857 0.301253 0.453505 0.000000
H34   H     H_    0.230019 0.400438 0.575885 0.000000
H35   H     H_    0.125388 0.384122 0.328078 0.000000
C41   C     C_3   0.106501 0.781804 0.272642 0.000000
C42   C     C_R   0.136270 0.817679 0.247989 0.000000
C43   C     C_R   0.202176 0.799830 0.208699 0.000000
C44   C     C_R   0.230432 0.832353 0.185078 0.000000
C45   C     C_R   0.194104 0.883303 0.203652 0.000000
N11   N     N_R   0.220091 0.922787 0.191346 0.000000
C46   C     C_R   0.178024 0.967142 0.229532 0.000000
N12   N     N_R   0.126513 0.956145 0.264890 0.000000
C47   C     C_R   0.135743 0.902530 0.245634 0.000000
C48   C     C_R   0.103176 0.869852 0.267028 0.000000
S6    S     S_3+2 0.221867 0.031572 0.248353 0.000000
O16   O     O_2   0.326213 0.027628 0.245166 0.000000
O17   O     O_2   0.217430 0.065159 0.311289 0.000000
O18   O     O_3   0.181899 0.072289 0.216399 0.000000
H36   H     H_    0.075655 0.745655 0.238772 0.000000
H37   H     H_    0.054592 0.802487 0.303624 0.000000
H38   H     H_    0.167065 0.770154 0.294161 0.000000
H39   H     H_    0.235051 0.761433 0.198399 0.000000
H40   H     H_    0.284295 0.819174 0.156194 0.000000
H41   H     H_    0.055417 0.884358 0.298376 0.000000
H42   H     H_    0.141043 0.049500 0.184520 0.000000
C49   C     C_3   0.631994 0.910652 0.037494 0.000000
C50   C     C_R   0.617552 0.905547 0.090533 0.000000
C51   C     C_R   0.692804 0.900550 0.124402 0.000000
C52   C     C_R   0.680202 0.895825 0.173970 0.000000
C53   C     C_R   0.593201 0.903162 0.191674 0.000000
N13   N     N_R   0.566658 0.907675 0.241415 0.000000
C54   C     C_R   0.471641 0.904712 0.231246 0.000000
N14   N     N_R   0.439978 0.905924 0.180011 0.000000
C55   C     C_R   0.519297 0.903663 0.156513 0.000000
C56   C     C_R   0.529463 0.905941 0.106302 0.000000
S7    S     S_3+2 0.414893 0.868630 0.261895 0.000000
O19   O     O_2   0.483141 0.878633 0.312349 0.000000
O20   O     O_2   0.433691 0.808206 0.231862 0.000000
O21   O     O_3   0.317358 0.876539 0.296713 0.000000
H43   H     H_    0.683080 0.941859 0.046290 0.000000
H44   H     H_    0.566214 0.921689 0.019835 0.000000
H45   H     H_    0.658268 0.872262 0.006286 0.000000
H46   H     H_    0.761330 0.898036 0.110671 0.000000
H47   H     H_    0.737176 0.890621 0.200269 0.000000
H48   H     H_    0.470649 0.911695 0.082304 0.000000
H49   H     H_    0.337242 0.866985 0.328543 0.000000
C57   C     C_3   0.890083 0.823850 0.428131 0.000000
C58   C     C_R   0.904098 0.864882 0.406592 0.000000
C59   C     C_R   0.987975 0.890066 0.418730 0.000000
C60   C     C_R   0.004483 0.926284 0.396831 0.000000
C61   C     C_R   0.934587 0.938174 0.364503 0.000000
N15   N     N_R   0.938285 0.969575 0.336524 0.000000
C62   C     C_R   0.849510 0.963483 0.309432 0.000000
N16   N     N_R   0.793679 0.928961 0.319185 0.000000
C63   C     C_R   0.851320 0.913979 0.353483 0.000000
C64   C     C_R   0.835317 0.876479 0.373039 0.000000
S8    S     S_3+2 0.810573 0.994829 0.263294 0.000000
O22   O     O_2   0.705762 0.993762 0.254522 0.000000
O23   O     O_2   0.837753 0.962086 0.203054 0.000000
O24   O     O_3   0.829875 0.059173 0.276234 0.000000
H50   H     H_    0.942457 0.791133 0.411963 0.000000
H51   H     H_    0.820327 0.807125 0.414145 0.000000
H52   H     H_    0.897654 0.842406 0.474750 0.000000
H53   H     H_    0.042182 0.879797 0.443727 0.000000
H54   H     H_    0.072111 0.942356 0.402780 0.000000
H55   H     H_    0.773217 0.854139 0.359129 0.000000
H56   H     H_    0.795389 0.064233 0.244420 0.000000
C65   C     C_3   0.979358 0.136493 0.757955 0.000000
C66   C     C_R   0.888158 0.164616 0.769383 0.000000
C67   C     C_R   0.810310 0.139872 0.736136 0.000000
C68   C     C_R   0.724820 0.165212 0.745418 0.000000
C69   C     C_R   0.719015 0.215152 0.788724 0.000000
N17   N     N_R   0.643706 0.247713 0.803640 0.000000
C70   C     C_R   0.678790 0.290380 0.849812 0.000000
N18   N     N_R   0.773032 0.287191 0.863295 0.000000
C71   C     C_R   0.795413 0.238981 0.822907 0.000000
C72   C     C_R   0.881267 0.214986 0.813142 0.000000
S9    S     S_3+2 0.606464 0.345036 0.885745 0.000000
O25   O     O_2   0.632333 0.396338 0.882455 0.000000
O26   O     O_2   0.628665 0.358094 0.947329 0.000000
O27   O     O_3   0.489074 0.344161 0.880701 0.000000
H57   H     H_    0.003724 0.125395 0.792848 0.000000
H58   H     H_    0.029584 0.162873 0.753381 0.000000
H59   H     H_    0.972919 0.099199 0.719103 0.000000
H60   H     H_    0.815940 0.100636 0.702144 0.000000
H61   H     H_    0.665302 0.146139 0.718457 0.000000
H62   H     H_    0.941632 0.234863 0.838243 0.000000
H63   H     H_    0.472268 0.367115 0.919407 0.000000
C73   C     C_3   0.224162 0.477260 0.018615 0.000000
C74   C     C_R   0.180691 0.425996 0.982550 0.000000
C75   C     C_R   0.120245 0.418459 0.936710 0.000000
C76   C     C_R   0.058787 0.378225 0.920662 0.000000
C77   C     C_R   0.059846 0.349134 0.951532 0.000000
N19   N     N_R   0.005024 0.308096 0.939126 0.000000
C78   C     C_R   0.067570 0.271361 0.948015 0.000000
N20   N     N_R   0.154954 0.291739 0.969546 0.000000
C79   C     C_R   0.142050 0.342455 0.975471 0.000000
C80   C     C_R   0.203543 0.382731 0.993701 0.000000
S10   S     S_3+2 0.046479 0.201469 0.924221 0.000000
O28   O     O_2   0.078869 0.180863 0.969106 0.000000
O29   O     O_2   0.112147 0.170243 0.878412 0.000000
O30   O     O_3   0.942733 0.172122 0.895656 0.000000
H64   H     H_    0.273479 0.488183 0.995919 0.000000
H65   H     H_    0.258467 0.473725 0.056152 0.000000
H66   H     H_    0.169801 0.508032 0.035454 0.000000
H67   H     H_    0.123006 0.441322 0.912289 0.000000
H68   H     H_    0.016406 0.365871 0.882596 0.000000
H69   H     H_    0.271048 0.380354 0.010543 0.000000
H70   H     H_    0.952535 0.134680 0.891100 0.000000
C81   C     C_3   0.844138 0.202187 0.089747 0.000000
C82   C     C_R   0.831611 0.243902 0.067436 0.000000
C83   C     C_R   0.856385 0.228829 0.013399 0.000000
C84   C     C_R   0.855899 0.265940 0.991412 0.000000
C85   C     C_R   0.827703 0.316627 0.023348 0.000000
N21   N     N_R   0.811327 0.353410 0.003363 0.000000
C86   C     C_R   0.760719 0.391886 0.043520 0.000000
N22   N     N_R   0.740167 0.378234 0.086003 0.000000
C87   C     C_R   0.790863 0.331570 0.073782 0.000000
C88   C     C_R   0.797758 0.295891 0.098590 0.000000
S11   S     S_3+2 0.707625 0.447686 0.034508 0.000000
O31   O     O_2   0.719807 0.444151 0.976322 0.000000
O32   O     O_2   0.744640 0.503151 0.071347 0.000000
O33   O     O_3   0.591612 0.450419 0.034454 0.000000
H71   H     H_    0.790136 0.171965 0.069968 0.000000
H72   H     H_    0.843955 0.220355 0.136190 0.000000
H73   H     H_    0.910750 0.180647 0.077426 0.000000
H74   H     H_    0.877083 0.187880 0.988926 0.000000
H75   H     H_    0.868450 0.255205 0.948335 0.000000
H76   H     H_    0.779039 0.308240 0.140865 0.000000
H77   H     H_    0.578117 0.418095 0.039386 0.000000
C89   C     C_3   0.004452 0.482780 0.131400 0.000000
C90   C     C_R   0.956849 0.488977 0.082286 0.000000
C91   C     C_R   0.936525 0.539207 0.083819 0.000000
C92   C     C_R   0.905405 0.544705 0.035152 0.000000
C93   C     C_R   0.892379 0.499512 0.986353 0.000000
N23   N     N_R   0.871353 0.495712 0.933693 0.000000
C94   C     C_R   0.866284 0.440639 0.902442 0.000000
N24   N     N_R   0.878601 0.412516 0.935425 0.000000
C95   C     C_R   0.902849 0.450577 0.986603 0.000000
C96   C     C_R   0.938142 0.443994 0.033772 0.000000
S12   S     S_3+2 0.891667 0.405998 0.829805 0.000000
O34   O     O_2   0.991402 0.418414 0.827029 0.000000
O35   O     O_2   0.845126 0.422353 0.784870 0.000000
O36   O     O_3   0.894544 0.337405 0.800429 0.000000
H78   H     H_    0.072592 0.463651 0.118685 0.000000
H79   H     H_    0.963778 0.456857 0.143330 0.000000
H80   H     H_    0.014435 0.522266 0.167120 0.000000
H81   H     H_    0.950814 0.574515 0.122034 0.000000
H82   H     H_    0.900163 0.583724 0.035654 0.000000
H83   H     H_    0.954670 0.405316 0.033536 0.000000
H84   H     H_    0.953778 0.327257 0.782361 0.000000
C97   C     C_3   0.134861 0.422322 0.759024 0.000000
C98   C     C_R   0.220451 0.393355 0.766396 0.000000
C99   C     C_R   0.222173 0.338427 0.751039 0.000000
C100  C     C_R   0.305336 0.311120 0.751276 0.000000
C101  C     C_R   0.383904 0.340376 0.771907 0.000000
N25   N     N_R   0.471296 0.320742 0.769794 0.000000
C102  C     C_R   0.519998 0.363795 0.772559 0.000000
N26   N     N_R   0.466666 0.409538 0.780945 0.000000
C103  C     C_R   0.382090 0.393392 0.782108 0.000000
C104  C     C_R   0.301335 0.420710 0.780164 0.000000
S13   S     S_3+2 0.634677 0.359247 0.752606 0.000000
O37   O     O_2   0.700845 0.318836 0.763331 0.000000
O38   O     O_2   0.679040 0.410994 0.793639 0.000000
O39   O     O_3   0.655372 0.355169 0.687612 0.000000
H85   H     H_    0.077205 0.394395 0.740397 0.000000
H86   H     H_    0.146861 0.441341 0.730629 0.000000
H87   H     H_    0.119295 0.454689 0.800138 0.000000
H88   H     H_    0.159303 0.316284 0.736164 0.000000
H89   H     H_    0.308106 0.268063 0.736052 0.000000
H90   H     H_    0.300626 0.461235 0.784430 0.000000
H91   H     H_    0.707907 0.329358 0.675816 0.000000
C105  C     C_3   0.268683 0.993686 0.623063 0.000000
C106  C     C_R   0.317149 0.045083 0.642567 0.000000
C107  C     C_R   0.310974 0.082664 0.697510 0.000000
C108  C     C_R   0.356501 0.130474 0.717225 0.000000
C109  C     C_R   0.409961 0.139553 0.681475 0.000000
N27   N     N_R   0.465565 0.181067 0.691923 0.000000
C110  C     C_R   0.491441 0.169951 0.638901 0.000000
N28   N     N_R   0.452177 0.124593 0.596260 0.000000
C111  C     C_R   0.406881 0.105049 0.625800 0.000000
C112  C     C_R   0.364548 0.056550 0.605630 0.000000
S14   S     S_3+2 0.594626 0.197537 0.634165 0.000000
O40   O     O_2   0.627219 0.228564 0.695325 0.000000
O41   O     O_2   0.588038 0.244838 0.618007 0.000000
O42   O     O_3   0.691011 0.158562 0.609985 0.000000
H92   H     H_    0.296042 0.971795 0.648591 0.000000
H93   H     H_    0.279482 0.968681 0.578172 0.000000
H94   H     H_    0.193817 0.001939 0.628174 0.000000
H95   H     H_    0.269542 0.074723 0.725275 0.000000
H96   H     H_    0.344401 0.159921 0.758298 0.000000
H97   H     H_    0.366403 0.028990 0.561954 0.000000
H98   H     H_    0.738664 0.172812 0.641468 0.000000
C113  C     C_3   0.551511 0.079573 0.908597 0.000000
C114  C     C_R   0.519061 0.117416 0.883322 0.000000
C115  C     C_R   0.555870 0.114130 0.834984 0.000000
C116  C     C_R   0.530603 0.151771 0.814155 0.000000
C117  C     C_R   0.466157 0.190269 0.840903 0.000000
N29   N     N_R   0.437091 0.231364 0.828281 0.000000
C118  C     C_R   0.369745 0.254853 0.864949 0.000000
N30   N     N_R   0.362272 0.233681 0.903982 0.000000
C119  C     C_R   0.423412 0.191449 0.885705 0.000000
C120  C     C_R   0.453836 0.156790 0.909488 0.000000
S15   S     S_3+2 0.285602 0.298081 0.854177 0.000000
O43   O     O_2   0.298359 0.358495 0.884975 0.000000
O44   O     O_2   0.287326 0.301340 0.913142 0.000000
O45   O     O_3   0.171334 0.285580 0.852071 0.000000
H99   H     H_    0.603857 0.050962 0.883092 0.000000
H100  H     H_    0.492313 0.057160 0.910722 0.000000
H101  H     H_    0.582531 0.102659 0.951545 0.000000
H102  H     H_    0.606421 0.083294 0.814353 0.000000
H103  H     H_    0.558564 0.150027 0.776953 0.000000
H104  H     H_    0.433283 0.161465 0.949391 0.000000
H105  H     H_    0.153865 0.264234 0.811762 0.000000
C121  C     C_3   0.178707 0.438719 0.197469 0.000000
C122  C     C_R   0.265246 0.425625 0.167728 0.000000
C123  C     C_R   0.344959 0.450527 0.197349 0.000000
C124  C     C_R   0.427744 0.436904 0.172759 0.000000
C125  C     C_R   0.429172 0.396159 0.120049 0.000000
N31   N     N_R   0.503847 0.375976 0.091407 0.000000
C126  C     C_R   0.468607 0.332925 0.044300 0.000000
N32   N     N_R   0.374687 0.327128 0.042441 0.000000
C127  C     C_R   0.352333 0.369590 0.090819 0.000000
C128  C     C_R   0.267577 0.387066 0.112689 0.000000
S16   S     S_3+2 0.540108 0.282700 0.996682 0.000000
O46   O     O_2   0.634994 0.305530 0.010598 0.000000
O47   O     O_2   0.531397 0.276080 0.936089 0.000000
O48   O     O_3   0.564778 0.222197 0.999478 0.000000
H106  H     H_    0.189891 0.430683 0.235672 0.000000
H107  H     H_    0.121907 0.413635 0.170193 0.000000
H108  H     H_    0.160421 0.481662 0.210317 0.000000
H109  H     H_    0.342285 0.480873 0.239827 0.000000
H110  H     H_    0.489488 0.457182 0.195068 0.000000
H111  H     H_    0.205016 0.369976 0.088815 0.000000
H112  H     H_    0.523055 0.221037 0.026745 0.000000
C129  C     C_3   0.299325 0.983146 0.914455 0.000000
C130  C     C_R   0.288750 0.042328 0.936834 0.000000
C131  C     C_R   0.272669 0.067126 0.900240 0.000000
C132  C     C_R   0.269432 0.122210 0.920777 0.000000
C133  C     C_R   0.278797 0.151391 0.978032 0.000000
N33   N     N_R   0.285642 0.204837 0.006647 0.000000
C134  C     C_R   0.292277 0.211003 0.061093 0.000000
N34   N     N_R   0.292012 0.164080 0.068111 0.000000
C135  C     C_R   0.287230 0.127084 0.014262 0.000000
C136  C     C_R   0.297769 0.072445 0.994369 0.000000
S17   S     S_3+2 0.275882 0.273406 0.116049 0.000000
O49   O     O_2   0.355105 0.309354 0.149503 0.000000
O50   O     O_2   0.269556 0.249175 0.157404 0.000000
O51   O     O_3   0.174186 0.308685 0.128828 0.000000
H113  H     H_    0.289611 0.964988 0.867911 0.000000
H114  H     H_    0.247281 0.967442 0.931716 0.000000
H115  H     H_    0.369427 0.972540 0.927383 0.000000
H116  H     H_    0.267153 0.043662 0.855283 0.000000
H117  H     H_    0.265288 0.141266 0.892187 0.000000
H118  H     H_    0.317156 0.053034 0.021791 0.000000
H119  H     H_    0.144706 0.300130 0.090666 0.000000
C137  C     C_3   0.691783 0.527917 0.436222 0.000000
C138  C     C_R   0.677082 0.495024 0.374656 0.000000
C139  C     C_R   0.662443 0.520104 0.338422 0.000000
C140  C     C_R   0.646524 0.490427 0.281244 0.000000
C141  C     C_R   0.650246 0.435619 0.260855 0.000000
N35   N     N_R   0.635636 0.399405 0.207175 0.000000
C142  C     C_R   0.626813 0.352900 0.214276 0.000000
N36   N     N_R   0.638071 0.358598 0.268978 0.000000
C143  C     C_R   0.656345 0.411154 0.296906 0.000000
C144  C     C_R   0.671782 0.440042 0.353926 0.000000
S18   S     S_3+2 0.605162 0.290809 0.157491 0.000000
O52   O     O_2   0.609206 0.303227 0.106983 0.000000
O53   O     O_2   0.508417 0.269086 0.145790 0.000000
O54   O     O_3   0.678829 0.237742 0.139682 0.000000
H120  H     H_    0.754568 0.551710 0.444700 0.000000
H121  H     H_    0.700513 0.501916 0.459246 0.000000
H122  H     H_    0.631426 0.555317 0.451043 0.000000
H123  H     H_    0.660547 0.563248 0.355119 0.000000
H124  H     H_    0.625334 0.510498 0.254812 0.000000
H125  H     H_    0.672326 0.420629 0.381916 0.000000
H126  H     H_    0.652502 0.213426 0.102097 0.000000
C145  C     C_3   0.913147 0.538459 0.267052 0.000000
C146  C     C_R   0.837205 0.550281 0.231542 0.000000
C147  C     C_R   0.828816 0.600501 0.230492 0.000000
C148  C     C_R   0.753649 0.613626 0.202035 0.000000
C149  C     C_R   0.686247 0.576736 0.176993 0.000000
N37   N     N_R   0.606762 0.582505 0.149098 0.000000
C150  C     C_R   0.565283 0.533751 0.136450 0.000000
N38   N     N_R   0.620655 0.497429 0.150972 0.000000
C151  C     C_R   0.694899 0.527100 0.177514 0.000000
C152  C     C_R   0.772033 0.512006 0.202194 0.000000
S19   S     S_3+2 0.448830 0.518846 0.106377 0.000000
O55   O     O_2   0.415119 0.553448 0.075547 0.000000
O56   O     O_2   0.378119 0.534689 0.151017 0.000000
O57   O     O_3   0.420512 0.456205 0.057973 0.000000
H127  H     H_    0.950694 0.501109 0.241827 0.000000
H128  H     H_    0.883334 0.533243 0.301875 0.000000
H129  H     H_    0.961979 0.571783 0.285034 0.000000
H130  H     H_    0.880147 0.630193 0.252911 0.000000
H131  H     H_    0.746472 0.652527 0.201845 0.000000
H132  H     H_    0.778963 0.472582 0.201815 0.000000
H133  H     H_    0.419040 0.458417 0.021176 0.000000
C153  C     C_3   0.839468 0.703302 0.811994 0.000000
C154  C     C_R   0.913300 0.690836 0.848119 0.000000
C155  C     C_R   0.994392 0.719135 0.864356 0.000000
C156  C     C_R   0.062581 0.708232 0.898618 0.000000
C157  C     C_R   0.049983 0.667693 0.914643 0.000000
N39   N     N_R   0.107089 0.651762 0.948747 0.000000
C158  C     C_R   0.050978 0.616699 0.956281 0.000000
N40   N     N_R   0.964183 0.608920 0.927423 0.000000
C159  C     C_R   0.968003 0.641398 0.900699 0.000000
C160  C     C_R   0.898854 0.652387 0.867419 0.000000
S20   S     S_3+2 0.092093 0.580299 0.994055 0.000000
O58   O     O_2   0.196581 0.572513 0.991948 0.000000
O59   O     O_2   0.060040 0.523362 0.962423 0.000000
O60   O     O_3   0.068819 0.599408 0.062579 0.000000
H134  H     H_    0.776068 0.717067 0.835108 0.000000
H135  H     H_    0.824683 0.666815 0.773081 0.000000
H136  H     H_    0.861478 0.735070 0.800508 0.000000
H137  H     H_    0.003904 0.751030 0.851635 0.000000
H138  H     H_    0.120827 0.733860 0.915514 0.000000
H139  H     H_    0.834037 0.632618 0.857522 0.000000
H140  H     H_    0.030488 0.632543 0.071731 0.000000
C161  C     C_3   0.930685 0.523622 0.705186 0.000000
C162  C     C_R   0.857143 0.504372 0.727105 0.000000
C163  C     C_R   0.786655 0.473105 0.691411 0.000000
C164  C     C_R   0.706555 0.467377 0.713020 0.000000
C165  C     C_R   0.696777 0.497208 0.769265 0.000000
N41   N     N_R   0.619506 0.510753 0.798149 0.000000
C166  C     C_R   0.653205 0.550318 0.848756 0.000000
N42   N     N_R   0.747895 0.547731 0.856523 0.000000
C167  C     C_R   0.771765 0.520520 0.804078 0.000000
C168  C     C_R   0.854102 0.523208 0.784375 0.000000
S21   S     S_3+2 0.617066 0.616354 0.857938 0.000000
O61   O     O_2   0.641176 0.624993 0.806544 0.000000
O62   O     O_2   0.676916 0.658983 0.903944 0.000000
O63   O     O_3   0.507100 0.639791 0.867278 0.000000
H141  H     H_    0.998770 0.509145 0.716284 0.000000
H142  H     H_    0.929330 0.567929 0.725193 0.000000
H143  H     H_    0.916872 0.510829 0.659345 0.000000
H144  H     H_    0.791548 0.455562 0.646372 0.000000
H145  H     H_    0.652183 0.443656 0.685423 0.000000
H146  H     H_    0.910603 0.544993 0.812174 0.000000
H147  H     H_    0.492908 0.629064 0.896875 0.000000
C169  C     C_3   0.807520 0.786783 0.001894 0.000000
C170  C     C_R   0.783688 0.751210 0.028369 0.000000
C171  C     C_R   0.719034 0.767667 0.067993 0.000000
C172  C     C_R   0.692042 0.734631 0.091041 0.000000
C173  C     C_R   0.724665 0.683058 0.069821 0.000000
N43   N     N_R   0.681546 0.642426 0.072054 0.000000
C174  C     C_R   0.704763 0.600078 0.023213 0.000000
N44   N     N_R   0.769536 0.612322 0.995577 0.000000
C175  C     C_R   0.779172 0.665027 0.025667 0.000000
C176  C     C_R   0.814520 0.698989 0.007074 0.000000
S22   S     S_3+2 0.619273 0.553425 0.983116 0.000000
O64   O     O_2   0.545026 0.583351 0.961862 0.000000
O65   O     O_2   0.562315 0.536672 0.018788 0.000000
O66   O     O_3   0.638466 0.498140 0.923305 0.000000
H148  H     H_    0.744911 0.795159 0.979458 0.000000
H149  H     H_    0.859751 0.767048 0.970930 0.000000
H150  H     H_    0.835432 0.824520 0.034615 0.000000
H151  H     H_    0.681738 0.804108 0.076508 0.000000
H152  H     H_    0.634784 0.746375 0.117261 0.000000
H153  H     H_    0.851367 0.684047 0.970586 0.000000
H154  H     H_    0.703232 0.500326 0.917070 0.000000
C177  C     C_3   0.085204 0.122464 0.634701 0.000000
C178  C     C_R   0.104475 0.094594 0.574500 0.000000
C179  C     C_R   0.032898 0.070648 0.534990 0.000000
C180  C     C_R   0.047881 0.047243 0.478519 0.000000
C181  C     C_R   0.136379 0.045089 0.463036 0.000000
N45   N     N_R   0.162824 0.027020 0.410200 0.000000
C182  C     C_R   0.257026 0.036241 0.420985 0.000000
N46   N     N_R   0.288197 0.064692 0.476670 0.000000
C183  C     C_R   0.208983 0.067576 0.502173 0.000000
C184  C     C_R   0.192364 0.094327 0.558210 0.000000
S23   S     S_3+2 0.335997 0.008528 0.370781 0.000000
O67   O     O_2   0.291339 0.971973 0.314943 0.000000
O68   O     O_2   0.398842 0.968487 0.384301 0.000000
O69   O     O_3   0.399245 0.050896 0.356789 0.000000
H155  H     H_    0.029029 0.152791 0.639679 0.000000
H156  H     H_    0.147580 0.142365 0.660624 0.000000
H157  H     H_    0.063896 0.092396 0.648759 0.000000
H158  H     H_    0.963984 0.072743 0.548172 0.000000
H159  H     H_    0.990484 0.033664 0.447723 0.000000
H160  H     H_    0.243336 0.118930 0.588336 0.000000
H161  H     H_    0.386538 0.086501 0.386918 0.000000
C185  C     C_3   0.602667 0.965827 0.606802 0.000000
C186  C     C_R   0.600257 0.961018 0.547990 0.000000
C187  C     C_R   0.642852 0.917342 0.507775 0.000000
C188  C     C_R   0.645028 0.913006 0.453468 0.000000
C189  C     C_R   0.600086 0.951420 0.439031 0.000000
N47   N     N_R   0.599311 0.956578 0.389694 0.000000
C190  C     C_R   0.562992 0.008505 0.405924 0.000000
N48   N     N_R   0.528599 0.031875 0.459632 0.000000
C191  C     C_R   0.558279 0.995086 0.479373 0.000000
C192  C     C_R   0.558962 0.000760 0.533961 0.000000
S24   S     S_3+2 0.592998 0.046099 0.369735 0.000000
O70   O     O_2   0.697722 0.046441 0.369539 0.000000
O71   O     O_2   0.568811 0.105493 0.399356 0.000000
O72   O     O_3   0.552540 0.029294 0.302055 0.000000
H162  H     H_    0.568476 0.931078 0.607189 0.000000
H163  H     H_    0.566379 0.003091 0.633763 0.000000
H164  H     H_    0.675351 0.966464 0.623684 0.000000
H165  H     H_    0.676840 0.886964 0.519251 0.000000
H166  H     H_    0.680998 0.879660 0.423989 0.000000
H167  H     H_    0.534129 0.036766 0.565903 0.000000
H168  H     H_    0.540500 0.064534 0.300707 0.000000
C193  C     C_3   0.787149 0.191212 0.537171 0.000000
C194  C     C_R   0.692255 0.206601 0.522023 0.000000
C195  C     C_R   0.677137 0.259264 0.529276 0.000000
C196  C     C_R   0.589234 0.278256 0.522707 0.000000
C197  C     C_R   0.517815 0.243936 0.510165 0.000000
N49   N     N_R   0.428595 0.258265 0.511259 0.000000
C198  C     C_R   0.387896 0.214729 0.513222 0.000000
N50   N     N_R   0.447759 0.170892 0.503363 0.000000
C199  C     C_R   0.530109 0.192107 0.503855 0.000000
C200  C     C_R   0.618530 0.171770 0.508021 0.000000
S25   S     S_3+2 0.288418 0.223943 0.553489 0.000000
O73   O     O_2   0.313767 0.226721 0.612628 0.000000
O74   O     O_2   0.232809 0.173888 0.530681 0.000000
O75   O     O_3   0.204703 0.272205 0.561280 0.000000
H169  H     H_    0.837455 0.203183 0.515615 0.000000
H170  H     H_    0.793332 0.147666 0.525870 0.000000
H171  H     H_    0.803410 0.213575 0.582977 0.000000
H172  H     H_    0.734234 0.286089 0.541795 0.000000
H173  H     H_    0.576878 0.319706 0.530730 0.000000
H174  H     H_    0.629171 0.131717 0.505629 0.000000
H175  H     H_    0.148306 0.256856 0.566400 0.000000
C201  C     C_3   0.613147 0.062271 0.042842 0.000000
C202  C     C_R   0.596306 0.105448 0.099063 0.000000
C203  C     C_R   0.670587 0.127063 0.137155 0.000000
C204  C     C_R   0.659858 0.171656 0.187106 0.000000
C205  C     C_R   0.572027 0.192525 0.198527 0.000000
N51   N     N_R   0.543998 0.239275 0.239498 0.000000
C206  C     C_R   0.449123 0.237172 0.228640 0.000000
N52   N     N_R   0.418900 0.190481 0.184791 0.000000
C207  C     C_R   0.498285 0.165924 0.164677 0.000000
C208  C     C_R   0.507939 0.123573 0.113724 0.000000
S26   S     S_3+2 0.377534 0.295078 0.261442 0.000000
O76   O     O_2   0.413875 0.345309 0.259481 0.000000
O77   O     O_2   0.395818 0.309225 0.323323 0.000000
O78   O     O_3   0.259904 0.301256 0.257750 0.000000
H176  H     H_    0.657532 0.077544 0.020875 0.000000
H177  H     H_    0.547103 0.048943 0.017447 0.000000
H178  H     H_    0.649710 0.028034 0.047980 0.000000
H179  H     H_    0.737843 0.110472 0.125509 0.000000
H180  H     H_    0.719710 0.191703 0.212651 0.000000
H181  H     H_    0.448653 0.106009 0.085708 0.000000
H182  H     H_    0.247101 0.334051 0.251249 0.000000
C209  C     C_3   0.950700 0.348774 0.198647 0.000000
C210  C     C_R   0.991309 0.294889 0.188462 0.000000
C211  C     C_R   0.023319 0.261466 0.136679 0.000000
C212  C     C_R   0.084796 0.219507 0.131650 0.000000
C213  C     C_R   0.113118 0.213323 0.179881 0.000000
N53   N     N_R   0.188246 0.186492 0.190347 0.000000
C214  C     C_R   0.179461 0.195230 0.245170 0.000000
N54   N     N_R   0.106231 0.227691 0.269079 0.000000
C215  C     C_R   0.068518 0.240208 0.227633 0.000000
C216  C     C_R   0.006646 0.280904 0.233069 0.000000
S27   S     S_3+2 0.265332 0.178518 0.286573 0.000000
O79   O     O_2   0.323606 0.227416 0.316876 0.000000
O80   O     O_2   0.337732 0.136861 0.255160 0.000000
O81   O     O_3   0.237671 0.166098 0.341052 0.000000
H183  H     H_    0.948404 0.355875 0.159962 0.000000
H184  H     H_    0.994724 0.379398 0.231651 0.000000
H185  H     H_    0.880931 0.352772 0.213731 0.000000
H186  H     H_    0.007818 0.271131 0.100936 0.000000
H187  H     H_    0.115170 0.196291 0.092399 0.000000
H188  H     H_    0.983104 0.306454 0.273291 0.000000
H189  H     H_    0.248127 0.200879 0.373185 0.000000
C217  C     C_3   0.017101 0.036024 0.999916 0.000000
C218  C     C_R   0.088496 0.022646 0.036711 0.000000
C219  C     C_R   0.091605 0.971766 0.035841 0.000000
C220  C     C_R   0.161248 0.956707 0.066161 0.000000
C221  C     C_R   0.229039 0.992573 0.094771 0.000000
N55   N     N_R   0.305306 0.984724 0.123657 0.000000
C222  C     C_R   0.350129 0.032824 0.140015 0.000000
N56   N     N_R   0.299991 0.070755 0.126051 0.000000
C223  C     C_R   0.225329 0.042961 0.096642 0.000000
C224  C     C_R   0.153591 0.059795 0.069673 0.000000
S28   S     S_3+2 0.467286 0.041372 0.169187 0.000000
O82   O     O_2   0.483660 0.008506 0.203431 0.000000
O83   O     O_2   0.492529 0.096406 0.214816 0.000000
O84   O     O_3   0.556293 0.020091 0.126120 0.000000
H190  H     H_    0.947620 0.028345 0.008538 0.000000
H191  H     H_    0.028873 0.010415 0.955279 0.000000
H192  H     H_    0.021029 0.078539 0.007267 0.000000
H193  H     H_    0.039877 0.943364 0.010607 0.000000
H194  H     H_    0.163764 0.917240 0.065133 0.000000
H195  H     H_    0.151293 0.099652 0.071390 0.000000
H196  H     H_    0.611800 0.023760 0.152028 0.000000
C225  C     C_3   0.265391 0.643787 0.230718 0.000000
C226  C     C_R   0.280877 0.652761 0.179943 0.000000
C227  C     C_R   0.206011 0.661233 0.147864 0.000000
C228  C     C_R   0.218794 0.667721 0.099272 0.000000
C229  C     C_R   0.305891 0.662571 0.082419 0.000000
N57   N     N_R   0.332526 0.664924 0.035629 0.000000
C230  C     C_R   0.427272 0.668564 0.047136 0.000000
N58   N     N_R   0.459690 0.661589 0.095192 0.000000
C231  C     C_R   0.380143 0.659590 0.116739 0.000000
C232  C     C_R   0.369362 0.653424 0.165080 0.000000
S29   S     S_3+2 0.487298 0.706168 0.020518 0.000000
O85   O     O_2   0.429320 0.701974 0.967972 0.000000
O86   O     O_2   0.578082 0.683212 0.994126 0.000000
O87   O     O_3   0.496660 0.774007 0.057020 0.000000
H197  H     H_    0.228065 0.678802 0.260764 0.000000
H198  H     H_    0.332125 0.637914 0.251501 0.000000
H199  H     H_    0.223538 0.607743 0.218134 0.000000
H200  H     H_    0.137436 0.663634 0.161538 0.000000
H201  H     H_    0.162440 0.676526 0.074961 0.000000
H202  H     H_    0.427689 0.645924 0.188511 0.000000
H203  H     H_    0.476971 0.781503 0.094820 0.000000
C233  C     C_3   0.429384 0.790057 0.854298 0.000000
C234  C     C_R   0.388459 0.806292 0.909293 0.000000
C235  C     C_R   0.389103 0.859417 0.946974 0.000000
C236  C     C_R   0.354845 0.875078 0.999058 0.000000
C237  C     C_R   0.321069 0.836751 0.012700 0.000000
N59   N     N_R   0.285765 0.843831 0.061228 0.000000
C238  C     C_R   0.241669 0.795629 0.045775 0.000000
N60   N     N_R   0.265009 0.756552 0.993956 0.000000
C239  C     C_R   0.311466 0.785281 0.973648 0.000000
C240  C     C_R   0.348936 0.768835 0.922394 0.000000
S30   S     S_3+2 0.123497 0.798292 0.063117 0.000000
O88   O     O_2   0.092529 0.855128 0.101472 0.000000
O89   O     O_2   0.103132 0.766992 0.097164 0.000000
O90   O     O_3   0.038892 0.781103 0.009698 0.000000
H204  H     H_    0.503404 0.800033 0.861750 0.000000
H205  H     H_    0.393065 0.811931 0.830919 0.000000
H206  H     H_    0.422768 0.746506 0.828815 0.000000
H207  H     H_    0.417799 0.888693 0.935889 0.000000
H208  H     H_    0.353362 0.916695 0.027152 0.000000
H209  H     H_    0.352171 0.727757 0.894022 0.000000
H210  H     H_    0.021520 0.815004 0.006293 0.000000
C241  C     C_3   0.283173 0.607444 0.672106 0.000000
C242  C     C_R   0.290653 0.611172 0.730625 0.000000
C243  C     C_R   0.245310 0.652491 0.771870 0.000000
C244  C     C_R   0.250169 0.656180 0.826194 0.000000
C245  C     C_R   0.302278 0.619279 0.839239 0.000000
N61   N     N_R   0.313187 0.615143 0.889226 0.000000
C246  C     C_R   0.362558 0.566355 0.873465 0.000000
N62   N     N_R   0.390066 0.544656 0.818657 0.000000
C247  C     C_R   0.347239 0.578337 0.798314 0.000000
C248  C     C_R   0.341783 0.573471 0.743801 0.000000
S31   S     S_3+2 0.362350 0.525469 0.910961 0.000000
O91   O     O_2   0.377355 0.556013 0.974685 0.000000
O92   O     O_2   0.443090 0.484706 0.897671 0.000000
O93   O     O_3   0.266489 0.488482 0.899815 0.000000
H211  H     H_    0.209774 0.603543 0.655948 0.000000
H212  H     H_    0.323251 0.572269 0.644353 0.000000
H213  H     H_    0.310405 0.644165 0.672026 0.000000
H214  H     H_    0.205722 0.682090 0.761579 0.000000
H215  H     H_    0.217711 0.688969 0.857793 0.000000
H216  H     H_    0.373135 0.540419 0.711536 0.000000
H217  H     H_    0.291721 0.453166 0.896048 0.000000
C249  C     C_3   0.656676 0.576292 0.652493 0.000000
C250  C     C_R   0.601960 0.527211 0.634436 0.000000
C251  C     C_R   0.610997 0.486526 0.581446 0.000000
C252  C     C_R   0.559584 0.440908 0.562991 0.000000
C253  C     C_R   0.494281 0.438255 0.596591 0.000000
N63   N     N_R   0.435561 0.398129 0.587048 0.000000
C254  C     C_R   0.414420 0.410061 0.641510 0.000000
N64   N     N_R   0.456285 0.454674 0.682884 0.000000
C255  C     C_R   0.499089 0.473693 0.651992 0.000000
C256  C     C_R   0.548281 0.519855 0.671492 0.000000
S32   S     S_3+2 0.359820 0.363727 0.656691 0.000000
O94   O     O_2   0.351897 0.336116 0.593012 0.000000
O95   O     O_2   0.254695 0.360382 0.652714 0.000000
O96   O     O_3   0.415203 0.306736 0.654088 0.000000
H218  H     H_    0.731210 0.565350 0.651074 0.000000
H219  H     H_    0.642112 0.604494 0.695809 0.000000
H220  H     H_    0.637971 0.595989 0.623602 0.000000
H221  H     H_    0.660302 0.489889 0.554685 0.000000
H222  H     H_    0.577147 0.407430 0.525461 0.000000
H223  H     H_    0.547054 0.548412 0.714786 0.000000
H224  H     H_    0.480449 0.316037 0.657849 0.000000

loop_
_geom_bond_atom_site_label_1
_geom_bond_atom_site_label_2
_geom_bond_distance
_geom_bond_site_symmetry_2
_ccdc_geom_bond_type
Zn1   N1    2.122 .      S
Zn1   N3    2.112 .      S
Zn1   N36   2.079 .      S
Zn1   N51   2.116 .      S
Zn2   N5    2.207 .      S
Zn2   N37   2.177 .      S
Zn2   N43   2.055 .      S
Zn2   N58   2.121 .      S
Zn3   N2    2.077 1_455  S
Zn3   N8    2.059 .      S
Zn3   N9    2.107 .      S
Zn3   N54   2.016 .      S
Zn4   N11   1.988 .      S
Zn4   N14   2.101 .      S
Zn4   N55   2.126 .      S
Zn4   N59   2.152 .      S
Zn5   N7    2.036 .      S
Zn5   N12   2.044 1_545  S
Zn5   N15   2.176 1_445  S
Zn5   N45   2.182 .      S
Zn6   N6    2.202 .      S
Zn6   N13   2.115 .      S
Zn6   N16   2.173 .      S
Zn6   N47   2.222 .      S
Zn7   N4    2.019 .      S
Zn7   N10   2.127 .      S
Zn7   N49   2.109 .      S
Zn7   N63   2.189 .      S
Zn8   N18   2.153 .      S
Zn8   N19   2.147 1_655  S
Zn8   N21   2.012 1_556  S
Zn8   N24   2.041 .      S
Zn9   N17   2.119 .      S
Zn9   N25   2.125 .      S
Zn9   N27   2.139 .      S
Zn9   N29   2.042 .      S
Zn10  N20   2.136 .      S
Zn10  N30   2.146 .      S
Zn10  N32   2.150 1_556  S
Zn10  N33   2.037 1_556  S
Zn11  N22   2.112 .      S
Zn11  N31   2.087 .      S
Zn11  N35   2.098 .      S
Zn11  N38   2.171 .      S
Zn12  N23   2.064 .      S
Zn12  N40   2.190 .      S
Zn12  N42   2.075 .      S
Zn12  N44   2.054 .      S
Zn13  N28   2.125 .      S
Zn13  N46   2.245 .      S
Zn13  N48   2.226 .      S
Zn13  N50   2.123 .      S
Zn14  N34   2.086 .      S
Zn14  N52   2.058 .      S
Zn14  N53   2.077 .      S
Zn14  N56   2.114 .      S
Zn15  N39   2.180 .      S
Zn15  N57   2.137 1_556  S
Zn15  N60   2.156 .      S
Zn15  N61   2.197 .      S
Zn16  N26   2.110 .      S
Zn16  N41   2.151 .      S
Zn16  N62   2.158 .      S
Zn16  N64   2.121 .      S
C1    C2    1.485 .      S
C1    H1    1.103 .      S
C1    H2    1.103 .      S
C1    H3    1.101 .      S
C3    H4    1.079 .      S
C4    H5    1.058 .      S
C6    S1    1.786 .      S
N2    Zn3   2.077 1_655  S
C8    H6    1.075 .      S
S1    O3    1.707 .      S
O3    H7    0.990 .      S
C9    C10   1.489 .      S
C9    H8    1.109 .      S
C9    H9    1.109 .      S
C9    H10   1.109 .      S
C11   H11   1.081 .      S
C12   H12   1.065 .      S
C14   S2    1.782 .      S
C16   H13   1.079 .      S
S2    O6    1.698 .      S
O6    H14   0.989 .      S
C17   C18   1.489 .      S
C17   H15   1.109 .      S
C17   H16   1.108 .      S
C17   H17   1.109 .      S
C19   H18   1.081 .      S
C20   H19   1.072 .      S
C22   S3    1.810 .      S
C24   H20   1.063 .      S
S3    O9    1.713 .      S
O9    H21   0.990 .      S
C25   C26   1.476 .      S
C25   H22   1.106 .      S
C25   H23   1.101 .      S
C25   H24   1.107 .      S
C27   H25   1.081 .      S
C28   H26   1.073 1_545  S
C30   S4    1.749 .      S
C32   H27   1.071 .      S
S4    O12   1.703 .      S
O12   H28   0.983 .      S
H26   C28   1.073 1_565  S
C33   C34   1.470 .      S
C33   H29   1.104 .      S
C33   H30   1.107 .      S
C33   H31   1.108 .      S
C35   H32   1.081 1_455  S
C36   H33   1.077 1_455  S
C38   S5    1.802 .      S
C40   H34   1.079 .      S
S5    O15   1.708 .      S
O15   H35   0.990 .      S
H32   C35   1.081 1_655  S
H33   C36   1.077 1_655  S
C41   C42   1.488 .      S
C41   H36   1.108 .      S
C41   H37   1.108 .      S
C41   H38   1.108 .      S
C43   H39   1.070 .      S
C44   H40   1.079 .      S
C46   S6    1.775 1_565  S
N12   Zn5   2.044 1_565  S
C48   H41   1.055 .      S
S6    C46   1.775 1_545  S
S6    O18   1.707 .      S
O18   H42   0.983 .      S
C49   C50   1.489 .      S
C49   H43   1.108 .      S
C49   H44   1.108 .      S
C49   H45   1.104 .      S
C51   H46   1.080 .      S
C52   H47   1.073 .      S
C54   S7    1.788 .      S
C56   H48   1.061 .      S
S7    O21   1.711 .      S
O21   H49   0.990 .      S
C57   C58   1.489 .      S
C57   H50   1.109 .      S
C57   H51   1.108 .      S
C57   H52   1.109 .      S
C59   H53   1.081 1_655  S
C60   H54   1.076 .      S
N15   Zn5   2.176 1_665  S
C62   S8    1.794 .      S
C64   H55   1.073 .      S
S8    O24   1.696 1_565  S
O24   S8    1.696 1_545  S
O24   H56   0.991 .      S
H53   C59   1.081 1_455  S
C65   C66   1.486 .      S
C65   H57   1.104 1_655  S
C65   H58   1.109 1_655  S
C65   H59   1.106 .      S
C67   H60   1.081 .      S
C68   H61   1.079 .      S
C70   S9    1.751 .      S
C72   H62   1.078 .      S
S9    O27   1.704 .      S
O27   H63   0.990 .      S
H57   C65   1.104 1_455  S
H58   C65   1.109 1_455  S
C73   C74   1.476 1_554  S
C73   H64   1.101 1_554  S
C73   H65   1.102 .      S
C73   H66   1.100 .      S
C74   C73   1.476 1_556  S
C75   H67   1.073 .      S
C76   H68   1.061 .      S
N19   Zn8   2.147 1_455  S
C78   S10   1.796 .      S
C80   H69   1.051 1_556  S
S10   O30   1.715 1_455  S
O30   S10   1.715 1_655  S
O30   H70   0.990 .      S
H64   C73   1.101 1_556  S
H69   C80   1.051 1_554  S
C81   C82   1.487 .      S
C81   H71   1.108 .      S
C81   H72   1.107 .      S
C81   H73   1.107 .      S
C83   H74   1.079 1_554  S
C84   H75   1.072 .      S
N21   Zn8   2.012 1_554  S
C86   S11   1.772 .      S
C88   H76   1.071 .      S
S11   O33   1.687 .      S
O33   H77   0.984 .      S
H74   C83   1.079 1_556  S
C89   C90   1.476 1_455  S
C89   H78   1.106 .      S
C89   H79   1.108 1_455  S
C89   H80   1.108 .      S
C90   C89   1.476 1_655  S
C91   H81   1.081 .      S
C92   H82   1.067 .      S
C94   S12   1.801 .      S
C96   H83   1.075 .      S
S12   O36   1.717 .      S
O36   H84   0.990 .      S
H79   C89   1.108 1_655  S
C97   C98   1.481 .      S
C97   H85   1.108 .      S
C97   H86   1.104 .      S
C97   H87   1.107 .      S
C99   H88   1.081 .      S
C100  H89   1.081 .      S
C102  S13   1.776 .      S
C104  H90   1.074 .      S
S13   O39   1.713 .      S
O39   H91   0.990 .      S
C105  C106  1.489 1_565  S
C105  H92   1.109 .      S
C105  H93   1.109 .      S
C105  H94   1.109 1_565  S
C106  C105  1.489 1_545  S
C107  H95   1.081 .      S
C108  H96   1.066 .      S
C110  S14   1.761 .      S
C112  H97   1.080 .      S
S14   O42   1.713 .      S
O42   H98   0.989 .      S
H94   C105  1.109 1_545  S
C113  C114  1.486 .      S
C113  H99   1.108 .      S
C113  H100  1.109 .      S
C113  H101  1.106 .      S
C115  H102  1.081 .      S
C116  H103  1.072 .      S
C118  S15   1.744 .      S
C120  H104  1.068 .      S
S15   O45   1.712 .      S
O45   H105  0.990 .      S
C121  C122  1.488 .      S
C121  H106  1.109 .      S
C121  H107  1.107 .      S
C121  H108  1.109 .      S
C123  H109  1.081 .      S
C124  H110  1.076 .      S
C126  S16   1.782 1_554  S
N32   Zn10  2.150 1_554  S
C128  H111  1.072 .      S
S16   C126  1.782 1_556  S
S16   O48   1.713 .      S
O48   H112  0.990 1_556  S
H112  O48   0.990 1_554  S
C129  C130  1.488 1_565  S
C129  H113  1.109 .      S
C129  H114  1.109 .      S
C129  H115  1.108 .      S
C130  C129  1.488 1_545  S
C131  H116  1.081 .      S
C132  H117  1.075 .      S
N33   Zn10  2.037 1_554  S
C134  S17   1.742 .      S
C136  H118  1.072 1_556  S
S17   O51   1.701 .      S
O51   H119  0.990 .      S
H118  C136  1.072 1_554  S
C137  C138  1.489 .      S
C137  H120  1.109 .      S
C137  H121  1.108 .      S
C137  H122  1.109 .      S
C139  H123  1.081 .      S
C140  H124  1.068 .      S
C142  S18   1.761 .      S
C144  H125  1.072 .      S
S18   O54   1.684 .      S
O54   H126  0.990 .      S
C145  C146  1.491 .      S
C145  H127  1.106 .      S
C145  H128  1.109 .      S
C145  H129  1.109 .      S
C147  H130  1.081 .      S
C148  H131  1.072 .      S
C150  S19   1.801 .      S
C152  H132  1.080 .      S
S19   O57   1.710 .      S
O57   H133  0.990 .      S
C153  C154  1.489 .      S
C153  H134  1.109 .      S
C153  H135  1.109 .      S
C153  H136  1.109 .      S
C155  H137  1.081 1_655  S
C156  H138  1.077 .      S
C158  S20   1.730 .      S
C160  H139  1.075 .      S
S20   O60   1.708 1_556  S
O60   S20   1.708 1_554  S
O60   H140  0.991 .      S
H137  C155  1.081 1_455  S
C161  C162  1.480 .      S
C161  H141  1.107 .      S
C161  H142  1.109 .      S
C161  H143  1.105 .      S
C163  H144  1.081 .      S
C164  H145  1.070 .      S
C166  S21   1.784 .      S
C168  H146  1.076 .      S
S21   O63   1.690 .      S
O63   H147  0.979 .      S
C169  C170  1.487 .      S
C169  H148  1.106 1_554  S
C169  H149  1.107 1_554  S
C169  H150  1.108 .      S
C171  H151  1.059 .      S
C172  H152  1.076 .      S
C174  S22   1.773 1_554  S
C176  H153  1.053 1_554  S
S22   C174  1.773 1_556  S
S22   O66   1.701 .      S
O66   H154  0.981 .      S
H148  C169  1.106 1_556  S
H149  C169  1.107 1_556  S
H153  C176  1.053 1_556  S
C177  C178  1.484 .      S
C177  H155  1.109 .      S
C177  H156  1.108 .      S
C177  H157  1.106 .      S
C179  H158  1.081 1_455  S
C180  H159  1.076 1_455  S
C182  S23   1.722 .      S
C184  H160  1.070 .      S
S23   O69   1.700 .      S
O69   H161  0.989 .      S
H158  C179  1.081 1_655  S
H159  C180  1.076 1_655  S
C185  C186  1.489 .      S
C185  H162  1.109 .      S
C185  H163  1.109 1_565  S
C185  H164  1.109 .      S
C187  H165  1.081 .      S
C188  H166  1.067 .      S
C190  S24   1.763 .      S
C192  H167  1.065 .      S
S24   O72   1.695 .      S
O72   H168  0.990 .      S
H163  C185  1.109 1_545  S
C193  C194  1.490 .      S
C193  H169  1.106 .      S
C193  H170  1.109 .      S
C193  H171  1.108 .      S
C195  H172  1.081 .      S
C196  H173  1.078 .      S
C198  S25   1.812 .      S
C200  H174  1.081 .      S
S25   O75   1.708 .      S
O75   H175  0.990 .      S
C201  C202  1.489 .      S
C201  H176  1.108 .      S
C201  H177  1.109 .      S
C201  H178  1.106 .      S
C203  H179  1.070 .      S
C204  H180  1.077 .      S
C206  S26   1.785 .      S
C208  H181  1.078 .      S
S26   O78   1.710 .      S
O78   H182  0.991 .      S
C209  C210  1.488 .      S
C209  H183  1.107 .      S
C209  H184  1.109 .      S
C209  H185  1.106 .      S
C211  H186  1.078 .      S
C212  H187  1.078 .      S
C214  S27   1.750 .      S
C216  H188  1.069 1_455  S
S27   O81   1.687 .      S
O81   H189  0.986 .      S
H188  C216  1.069 1_655  S
C217  C218  1.490 1_556  S
C217  H190  1.107 1_456  S
C217  H191  1.109 .      S
C217  H192  1.109 1_556  S
C218  C217  1.490 1_554  S
C219  H193  1.081 .      S
C220  H194  1.074 .      S
C222  S28   1.794 .      S
C224  H195  1.078 .      S
S28   O84   1.708 .      S
O84   H196  0.990 .      S
H190  C217  1.107 1_654  S
H192  C217  1.109 1_554  S
C225  C226  1.489 .      S
C225  H197  1.107 .      S
C225  H198  1.108 .      S
C225  H199  1.109 .      S
C227  H200  1.080 .      S
C228  H201  1.073 .      S
N57   Zn15  2.137 1_554  S
C230  S29   1.773 .      S
C232  H202  1.065 .      S
S29   O87   1.715 .      S
O87   H203  0.990 .      S
C233  C234  1.489 .      S
C233  H204  1.109 .      S
C233  H205  1.109 .      S
C233  H206  1.109 .      S
C235  H207  1.080 .      S
C236  H208  1.074 1_556  S
C238  S30   1.809 .      S
C240  H209  1.065 .      S
S30   O90   1.708 .      S
O90   H210  0.990 .      S
H208  C236  1.074 1_554  S
C241  C242  1.489 .      S
C241  H211  1.109 .      S
C241  H212  1.108 .      S
C241  H213  1.109 .      S
C243  H214  1.081 .      S
C244  H215  1.058 .      S
C246  S31   1.777 .      S
C248  H216  1.063 .      S
S31   O93   1.710 .      S
O93   H217  0.987 .      S
C249  C250  1.489 .      S
C249  H218  1.109 .      S
C249  H219  1.107 .      S
C249  H220  1.109 .      S
C251  H221  1.081 .      S
C252  H222  1.070 .      S
C254  S32   1.738 .      S
C256  H223  1.080 .      S
S32   O96   1.699 .      S
O96   H224  0.985 .      S
C2    C3    1.387 .      A
C2    C8    1.367 .      A
C3    C4    1.384 .      A
C4    C5    1.362 .      A
C5    N1    1.350 .      A
C5    C7    1.344 .      A
N1    C6    1.400 .      A
C6    N2    1.380 .      A
N2    C7    1.329 .      A
C7    C8    1.362 .      A
C10   C11   1.384 .      A
C10   C16   1.381 .      A
C11   C12   1.384 .      A
C12   C13   1.378 .      A
C13   N3    1.367 .      A
C13   C15   1.361 .      A
N3    C14   1.389 .      A
C14   N4    1.371 .      A
N4    C15   1.338 .      A
C15   C16   1.379 .      A
C18   C19   1.383 .      A
C18   C24   1.385 .      A
C19   C20   1.379 .      A
C20   C21   1.373 .      A
C21   N5    1.347 .      A
C21   C23   1.370 .      A
N5    C22   1.406 .      A
C22   N6    1.399 .      A
N6    C23   1.360 .      A
C23   C24   1.378 .      A
C26   C27   1.387 .      A
C26   C32   1.378 .      A
C27   C28   1.383 .      A
C28   C29   1.376 1_655  A
C29   C28   1.376 1_455  A
C29   N7    1.344 .      A
C29   C31   1.357 .      A
N7    C30   1.377 .      A
C30   N8    1.372 .      A
N8    C31   1.346 .      A
C31   C32   1.366 1_455  A
C32   C31   1.366 1_655  A
C34   C35   1.390 .      A
C34   C40   1.379 .      A
C35   C36   1.380 .      A
C36   C37   1.371 .      A
C37   N9    1.345 .      A
C37   C39   1.364 .      A
N9    C38   1.382 .      A
C38   N10   1.391 .      A
N10   C39   1.338 .      A
C39   C40   1.361 .      A
C42   C43   1.386 .      A
C42   C48   1.381 .      A
C43   C44   1.381 .      A
C44   C45   1.368 .      A
C45   N11   1.339 .      A
C45   C47   1.357 .      A
N11   C46   1.367 .      A
C46   N12   1.378 .      A
N12   C47   1.349 .      A
C47   C48   1.367 .      A
C50   C51   1.386 .      A
C50   C56   1.381 .      A
C51   C52   1.388 .      A
C52   C53   1.363 .      A
C53   N13   1.347 .      A
C53   C55   1.357 .      A
N13   C54   1.387 .      A
C54   N14   1.394 .      A
N14   C55   1.343 .      A
C55   C56   1.365 .      A
C58   C59   1.387 .      A
C58   C64   1.385 .      A
C59   C60   1.383 1_655  A
C60   C59   1.383 1_455  A
C60   C61   1.378 1_455  A
C61   C60   1.378 1_655  A
C61   N15   1.353 .      A
C61   C63   1.369 .      A
N15   C62   1.403 .      A
C62   N16   1.401 .      A
N16   C63   1.348 .      A
C63   C64   1.369 .      A
C66   C67   1.390 .      A
C66   C72   1.389 .      A
C67   C68   1.380 .      A
C68   C69   1.375 .      A
C69   N17   1.351 .      A
C69   C71   1.376 .      A
N17   C70   1.373 .      A
C70   N18   1.394 .      A
N18   C71   1.352 .      A
C71   C72   1.372 .      A
C74   C75   1.375 .      A
C74   C80   1.357 .      A
C75   C76   1.368 .      A
C76   C77   1.354 .      A
C77   N19   1.333 .      A
C77   C79   1.341 .      A
N19   C78   1.398 .      A
C78   N20   1.396 .      A
N20   C79   1.343 .      A
C79   C80   1.365 .      A
C82   C83   1.376 .      A
C82   C88   1.404 .      A
C83   C84   1.366 1_554  A
C84   C83   1.366 1_556  A
C84   C85   1.355 1_556  A
C85   C84   1.355 1_554  A
C85   N21   1.322 .      A
C85   C87   1.361 .      A
N21   C86   1.374 .      A
C86   N22   1.376 .      A
N22   C87   1.373 .      A
C87   C88   1.381 .      A
C90   C91   1.382 .      A
C90   C96   1.376 .      A
C91   C92   1.381 .      A
C92   C93   1.371 1_554  A
C93   C92   1.371 1_556  A
C93   N23   1.349 .      A
C93   C95   1.350 .      A
N23   C94   1.394 .      A
C94   N24   1.376 .      A
N24   C95   1.346 .      A
C95   C96   1.375 1_556  A
C96   C95   1.375 1_554  A
C98   C99   1.393 .      A
C98   C104  1.375 .      A
C99   C100  1.388 .      A
C100  C101  1.375 .      A
C101  N25   1.349 .      A
C101  C103  1.369 .      A
N25   C102  1.391 .      A
C102  N26   1.386 .      A
N26   C103  1.342 .      A
C103  C104  1.366 .      A
C106  C107  1.387 .      A
C106  C112  1.383 .      A
C107  C108  1.385 .      A
C108  C109  1.377 .      A
C109  N27   1.360 .      A
C109  C111  1.369 .      A
N27   C110  1.376 .      A
C110  N28   1.395 .      A
N28   C111  1.344 .      A
C111  C112  1.377 .      A
C114  C115  1.386 .      A
C114  C120  1.386 .      A
C115  C116  1.378 .      A
C116  C117  1.369 .      A
C117  N29   1.341 .      A
C117  C119  1.365 .      A
N29   C118  1.370 .      A
C118  N30   1.387 .      A
N30   C119  1.365 .      A
C119  C120  1.375 .      A
C122  C123  1.383 .      A
C122  C128  1.392 .      A
C123  C124  1.376 .      A
C124  C125  1.371 .      A
C125  N31   1.334 .      A
C125  C127  1.362 .      A
N31   C126  1.391 .      A
C126  N32   1.381 .      A
N32   C127  1.369 .      A
C127  C128  1.382 .      A
C130  C131  1.389 .      A
C130  C136  1.384 .      A
C131  C132  1.381 .      A
C132  C133  1.375 .      A
C133  N33   1.350 1_556  A
C133  C135  1.365 1_556  A
N33   C133  1.350 1_554  A
N33   C134  1.361 .      A
C134  N34   1.379 .      A
N34   C135  1.352 .      A
C135  C133  1.365 1_554  A
C135  C136  1.375 1_554  A
C136  C135  1.375 1_556  A
C138  C139  1.385 .      A
C138  C144  1.384 .      A
C139  C140  1.382 .      A
C140  C141  1.375 .      A
C141  N35   1.351 .      A
C141  C143  1.365 .      A
N35   C142  1.383 .      A
C142  N36   1.372 .      A
N36   C143  1.353 .      A
C143  C144  1.375 .      A
C146  C147  1.392 .      A
C146  C152  1.385 .      A
C147  C148  1.385 .      A
C148  C149  1.370 .      A
C149  N37   1.351 .      A
C149  C151  1.371 .      A
N37   C150  1.403 .      A
C150  N38   1.401 .      A
N38   C151  1.349 .      A
C151  C152  1.376 .      A
C154  C155  1.389 .      A
C154  C160  1.383 .      A
C155  C156  1.384 1_655  A
C156  C155  1.384 1_455  A
C156  C157  1.373 .      A
C157  N39   1.355 .      A
C157  C159  1.375 1_455  A
N39   C158  1.386 .      A
C158  N40   1.395 1_455  A
N40   C158  1.395 1_655  A
N40   C159  1.352 .      A
C159  C157  1.375 1_655  A
C159  C160  1.377 .      A
C162  C163  1.391 .      A
C162  C168  1.373 .      A
C163  C164  1.386 .      A
C164  C165  1.373 .      A
C165  N41   1.358 .      A
C165  C167  1.363 .      A
N41   C166  1.390 .      A
C166  N42   1.378 .      A
N42   C167  1.330 .      A
C167  C168  1.365 .      A
C170  C171  1.379 .      A
C170  C176  1.371 .      A
C171  C172  1.375 .      A
C172  C173  1.364 .      A
C173  N43   1.340 .      A
C173  C175  1.362 .      A
N43   C174  1.378 .      A
C174  N44   1.376 1_554  A
N44   C174  1.376 1_556  A
N44   C175  1.341 1_556  A
C175  N44   1.341 1_554  A
C175  C176  1.364 .      A
C178  C179  1.385 .      A
C178  C184  1.384 .      A
C179  C180  1.379 .      A
C180  C181  1.376 .      A
C181  N45   1.346 .      A
C181  C183  1.383 .      A
N45   C182  1.393 .      A
C182  N46   1.387 .      A
N46   C183  1.366 .      A
C183  C184  1.378 .      A
C186  C187  1.383 .      A
C186  C192  1.383 1_565  A
C187  C188  1.382 .      A
C188  C189  1.377 .      A
C189  N47   1.358 .      A
C189  C191  1.379 .      A
N47   C190  1.396 1_565  A
C190  N47   1.396 1_545  A
C190  N48   1.407 .      A
N48   C191  1.351 1_545  A
C191  N48   1.351 1_565  A
C191  C192  1.373 1_565  A
C192  C186  1.383 1_545  A
C192  C191  1.373 1_545  A
C194  C195  1.388 .      A
C194  C200  1.403 .      A
C195  C196  1.378 .      A
C196  C197  1.372 .      A
C197  N49   1.335 .      A
C197  C199  1.369 .      A
N49   C198  1.391 .      A
C198  N50   1.392 .      A
N50   C199  1.362 .      A
C199  C200  1.387 .      A
C202  C203  1.383 .      A
C202  C208  1.380 .      A
C203  C204  1.386 .      A
C204  C205  1.376 .      A
C205  N51   1.357 .      A
C205  C207  1.365 .      A
N51   C206  1.386 .      A
C206  N52   1.384 .      A
N52   C207  1.338 .      A
C207  C208  1.371 .      A
C210  C211  1.388 1_655  A
C210  C216  1.373 1_655  A
C211  C210  1.388 1_455  A
C211  C212  1.387 .      A
C212  C213  1.370 .      A
C213  N53   1.355 .      A
C213  C215  1.361 .      A
N53   C214  1.372 .      A
C214  N54   1.366 .      A
N54   C215  1.336 .      A
C215  C216  1.363 .      A
C216  C210  1.373 1_455  A
C218  C219  1.390 1_545  A
C218  C224  1.388 .      A
C219  C218  1.390 1_565  A
C219  C220  1.383 .      A
C220  C221  1.372 .      A
C221  N55   1.346 .      A
C221  C223  1.366 1_565  A
N55   C222  1.395 1_565  A
C222  N55   1.395 1_545  A
C222  N56   1.392 .      A
N56   C223  1.350 .      A
C223  C221  1.366 1_545  A
C223  C224  1.375 .      A
C226  C227  1.386 .      A
C226  C232  1.383 .      A
C227  C228  1.388 .      A
C228  C229  1.360 .      A
C229  N57   1.347 .      A
C229  C231  1.366 .      A
N57   C230  1.387 .      A
C230  N58   1.390 .      A
N58   C231  1.347 .      A
C231  C232  1.370 .      A
C234  C235  1.383 .      A
C234  C240  1.384 .      A
C235  C236  1.380 .      A
C236  C237  1.375 1_556  A
C237  C236  1.375 1_554  A
C237  N59   1.349 .      A
C237  C239  1.366 1_554  A
N59   C238  1.395 .      A
C238  N60   1.393 1_554  A
N60   C238  1.393 1_556  A
N60   C239  1.359 .      A
C239  C237  1.366 1_556  A
C239  C240  1.379 .      A
C242  C243  1.383 .      A
C242  C248  1.383 .      A
C243  C244  1.381 .      A
C244  C245  1.370 .      A
C245  N61   1.357 .      A
C245  C247  1.371 .      A
N61   C246  1.402 .      A
C246  N62   1.393 .      A
N62   C247  1.348 .      A
C247  C248  1.374 .      A
C250  C251  1.386 .      A
C250  C256  1.384 .      A
C251  C252  1.384 .      A
C252  C253  1.377 .      A
C253  N63   1.364 .      A
C253  C255  1.370 .      A
N63   C254  1.385 .      A
C254  N64   1.386 .      A
N64   C255  1.342 .      A
C255  C256  1.376 .      A
S1    O1    1.532 .      D
S1    O2    1.533 .      D
S2    O4    1.527 .      D
S2    O5    1.530 .      D
S3    O7    1.534 .      D
S3    O8    1.533 .      D
S4    O10   1.529 .      D
S4    O11   1.515 .      D
S5    O13   1.522 .      D
S5    O14   1.536 .      D
S6    O16   1.525 .      D
S6    O17   1.524 .      D
S7    O19   1.520 .      D
S7    O20   1.535 .      D
S8    O22   1.524 .      D
S8    O23   1.532 .      D
S9    O25   1.522 .      D
S9    O26   1.510 .      D
S10   O28   1.535 .      D
S10   O29   1.530 .      D
S11   O31   1.513 1_554  D
S11   O32   1.528 .      D
O31   S11   1.513 1_556  D
S12   O34   1.527 .      D
S12   O35   1.521 .      D
S13   O37   1.526 .      D
S13   O38   1.522 .      D
S14   O40   1.516 .      D
S14   O41   1.524 .      D
S15   O43   1.532 .      D
S15   O44   1.509 .      D
S16   O46   1.504 1_556  D
S16   O47   1.516 .      D
O46   S16   1.504 1_554  D
S17   O49   1.522 .      D
S17   O50   1.502 .      D
S18   O52   1.506 .      D
S18   O53   1.520 .      D
S19   O55   1.522 .      D
S19   O56   1.535 .      D
S20   O58   1.527 .      D
S20   O59   1.517 .      D
S21   O61   1.535 .      D
S21   O62   1.533 .      D
S22   O64   1.526 .      D
S22   O65   1.523 1_556  D
O65   S22   1.523 1_554  D
S23   O67   1.504 1_545  D
S23   O68   1.525 1_545  D
O67   S23   1.504 1_565  D
O68   S23   1.525 1_565  D
S24   O70   1.527 .      D
S24   O71   1.524 .      D
S25   O73   1.533 .      D
S25   O74   1.508 .      D
S26   O76   1.532 .      D
S26   O77   1.505 .      D
S27   O79   1.514 .      D
S27   O80   1.526 .      D
S28   O82   1.515 .      D
S28   O83   1.530 .      D
S29   O85   1.516 1_554  D
S29   O86   1.525 1_554  D
O85   S29   1.516 1_556  D
O86   S29   1.525 1_556  D
S30   O88   1.533 .      D
S30   O89   1.532 .      D
S31   O91   1.528 .      D
S31   O92   1.534 .      D
S32   O94   1.516 .      D
S32   O95   1.531 .      D
