data_str_m1_o12216_NES
_audit_creation_date              2015-10-01T06:25:06-0700
_symmetry_space_group_name_H-M    P1
_symmetry_Int_Tables_number       1
_space_group_crystal_system       triclinic
loop_
_symmetry_equiv_pos_as_xyz
  x,y,z
_cell_length_a                    27.8922732
_cell_length_b                    28.4355444
_cell_length_c                    29.7970881
_cell_angle_alpha                 63.5834979
_cell_angle_beta                  77.8684712
_cell_angle_gamma                 60.9670172
_cell_volume                      18505.2219219

loop_
_atom_site_label
_atom_site_type_symbol
_atom_site_description
_atom_site_fract_x
_atom_site_fract_y
_atom_site_fract_z
_atom_type_partial_charge
Zn1   Zn    Zn3+2 0.842623 0.675877 0.769151 0.000000
Zn2   Zn    Zn3+2 0.089132 0.862247 0.166291 0.000000
Zn3   Zn    Zn3+2 0.078860 0.062258 0.771865 0.000000
Zn4   Zn    Zn3+2 0.915870 0.241009 0.145695 0.000000
Zn5   Zn    Zn3+2 0.061638 0.066738 0.353087 0.000000
Zn6   Zn    Zn3+2 0.715102 0.548570 0.341803 0.000000
Zn7   Zn    Zn3+2 0.207593 0.799184 0.363320 0.000000
Zn8   Zn    Zn3+2 0.828013 0.492221 0.140705 0.000000
Zn9   Zn    Zn3+2 0.020098 0.685224 0.147767 0.000000
Zn10  Zn    Zn3+2 0.016975 0.883808 0.753581 0.000000
Zn11  Zn    Zn3+2 0.475984 0.127343 0.034404 0.000000
Zn12  Zn    Zn3+2 0.460679 0.897141 0.031276 0.000000
Zn13  Zn    Zn3+2 0.462982 0.021658 0.278327 0.000000
Zn14  Zn    Zn3+2 0.232438 0.356877 0.971682 0.000000
Zn15  Zn    Zn3+2 0.721181 0.110415 0.966866 0.000000
Zn16  Zn    Zn3+2 0.212293 0.175372 0.349000 0.000000
Zn17  Zn    Zn3+2 0.705830 0.926092 0.352039 0.000000
Zn18  Zn    Zn3+2 0.710669 0.741748 0.955026 0.000000
Zn19  Zn    Zn3+2 0.459793 0.780896 0.277898 0.000000
Zn20  Zn    Zn3+2 0.827924 0.067279 0.166874 0.000000
Zn21  Zn    Zn3+2 0.210122 0.990676 0.964668 0.000000
Zn22  Zn    Zn3+2 0.827928 0.254286 0.775996 0.000000
Zn23  Zn    Zn3+2 0.863363 0.857494 0.950713 0.000000
Zn24  Zn    Zn3+2 0.078688 0.253019 0.954666 0.000000
Zn25  Zn    Zn3+2 0.090914 0.429997 0.154504 0.000000
Zn26  Zn    Zn3+2 0.837687 0.859253 0.536984 0.000000
Zn27  Zn    Zn3+2 0.096736 0.612097 0.778294 0.000000
Zn28  Zn    Zn3+2 0.082331 0.239851 0.541364 0.000000
Zn29  Zn    Zn3+2 0.859733 0.672064 0.339014 0.000000
Zn30  Zn    Zn3+2 0.826671 0.298164 0.545466 0.000000
Zn31  Zn    Zn3+2 0.900003 0.430227 0.770042 0.000000
Zn32  Zn    Zn3+2 0.001899 0.492278 0.540483 0.000000
Zn33  Zn    Zn3+2 0.891904 0.050117 0.542198 0.000000
Zn34  Zn    Zn3+2 0.093501 0.657092 0.544044 0.000000
C1    C     C_3   0.651594 0.601202 0.734668 0.000000
C2    C     C_R   0.700994 0.603598 0.743056 0.000000
C3    C     C_R   0.695066 0.653959 0.744922 0.000000
C4    C     C_R   0.740128 0.656910 0.753254 0.000000
C5    C     C_R   0.790217 0.609413 0.758815 0.000000
N1    N     N_R   0.836606 0.603191 0.771792 0.000000
C6    C     C_R   0.870237 0.543563 0.784482 0.000000
N2    N     N_R   0.849523 0.515175 0.773191 0.000000
C7    C     C_R   0.797058 0.558129 0.759114 0.000000
C8    C     C_R   0.751799 0.555067 0.750792 0.000000
S1    S     S_3+2 0.918022 0.501642 0.833666 0.000000
O1    O     O_2   0.927482 0.543089 0.845527 0.000000
O2    O     O_2   0.975922 0.462546 0.821347 0.000000
O3    O     O_3   0.901131 0.460598 0.890647 0.000000
H1    H     H_    0.621644 0.607974 0.764927 0.000000
H2    H     H_    0.662749 0.558084 0.734689 0.000000
H3    H     H_    0.632725 0.636371 0.697995 0.000000
H4    H     H_    0.654962 0.690849 0.740357 0.000000
H5    H     H_    0.735898 0.694681 0.757095 0.000000
H6    H     H_    0.753479 0.515948 0.752435 0.000000
H7    H     H_    0.936005 0.425706 0.904467 0.000000
C9    C     C_3   0.989886 0.962460 0.013058 0.000000
C10   C     C_R   0.020546 0.899476 0.040173 0.000000
C11   C     C_R   0.023488 0.862018 0.022213 0.000000
C12   C     C_R   0.045161 0.802689 0.051288 0.000000
C13   C     C_R   0.062301 0.782112 0.099011 0.000000
N3    N     N_R   0.068566 0.731763 0.140271 0.000000
C14   C     C_R   0.084891 0.741414 0.175426 0.000000
N4    N     N_R   0.083828 0.796120 0.157905 0.000000
C15   C     C_R   0.068267 0.819531 0.111044 0.000000
C16   C     C_R   0.046261 0.878225 0.083247 0.000000
S2    S     S_3+2 0.099850 0.691427 0.239109 0.000000
O4    O     O_2   0.049658 0.682168 0.264158 0.000000
O5    O     O_2   0.108531 0.716154 0.271431 0.000000
O6    O     O_3   0.154038 0.622755 0.253405 0.000000
H8    H     H_    0.004493 0.974451 0.975007 0.000000
H9    H     H_    0.994618 0.986311 0.030250 0.000000
H10   H     H_    0.946743 0.974290 0.013297 0.000000
H11   H     H_    0.008711 0.880755 0.985081 0.000000
H12   H     H_    0.055497 0.774925 0.033374 0.000000
H13   H     H_    0.041112 0.908064 0.098051 0.000000
H14   H     H_    0.177367 0.619776 0.276335 0.000000
C17   C     C_3   0.076483 0.055021 0.574810 0.000000
C18   C     C_R   0.046840 0.046509 0.623525 0.000000
C19   C     C_R   0.024378 0.092479 0.638317 0.000000
C20   C     C_R   0.023318 0.080075 0.687907 0.000000
C21   C     C_R   0.041399 0.023571 0.719693 0.000000
N5    N     N_R   0.070826 0.999385 0.760700 0.000000
C22   C     C_R   0.082739 0.941025 0.777614 0.000000
N6    N     N_R   0.060325 0.930467 0.747480 0.000000
C23   C     C_R   0.041794 0.982846 0.707946 0.000000
C24   C     C_R   0.052015 0.991260 0.658062 0.000000
S3    S     S_3+2 0.139023 0.885406 0.820687 0.000000
O7    O     O_2   0.189190 0.897530 0.801963 0.000000
O8    O     O_2   0.162155 0.823965 0.821314 0.000000
O9    O     O_3   0.133961 0.875641 0.882271 0.000000
H15   H     H_    0.052735 0.069501 0.542717 0.000000
H16   H     H_    0.114369 0.014186 0.577943 0.000000
H17   H     H_    0.084857 0.092832 0.564005 0.000000
H18   H     H_    0.020538 0.135287 0.612778 0.000000
H19   H     H_    0.017999 0.111911 0.700616 0.000000
H20   H     H_    0.072759 0.954450 0.647630 0.000000
H21   H     H_    0.159815 0.888413 0.885689 0.000000
C25   C     C_3   0.839063 0.260901 0.307772 0.000000
C26   C     C_R   0.866473 0.208116 0.352867 0.000000
C27   C     C_R   0.836224 0.198298 0.395744 0.000000
C28   C     C_R   0.860956 0.151048 0.438636 0.000000
C29   C     C_R   0.913944 0.111676 0.437435 0.000000
N7    N     N_R   0.943530 0.064452 0.477009 0.000000
C30   C     C_R   0.996534 0.048392 0.456702 0.000000
N8    N     N_R   0.998207 0.081580 0.406265 0.000000
C31   C     C_R   0.945164 0.121940 0.396050 0.000000
C32   C     C_R   0.922083 0.171419 0.353160 0.000000
S4    S     S_3+2 0.060522 0.998272 0.490200 0.000000
O10   O     O_2   0.057454 0.981775 0.546657 0.000000
O11   O     O_2   0.096690 0.029753 0.474773 0.000000
O12   O     O_3   0.103309 0.934571 0.482492 0.000000
H22   H     H_    0.852180 0.294045 0.301291 0.000000
H23   H     H_    0.849671 0.248333 0.275762 0.000000
H24   H     H_    0.794392 0.280275 0.313356 0.000000
H25   H     H_    0.793592 0.228389 0.396547 0.000000
H26   H     H_    0.837921 0.145089 0.471915 0.000000
H27   H     H_    0.946326 0.184338 0.321837 0.000000
H28   H     H_    0.136973 0.918832 0.501076 0.000000
C33   C     C_3   0.168425 0.182449 0.193051 0.000000
C34   C     C_R   0.112072 0.189684 0.197986 0.000000
C35   C     C_R   0.076385 0.229059 0.157887 0.000000
C36   C     C_R   0.023468 0.237258 0.162376 0.000000
C37   C     C_R   0.009889 0.200384 0.205004 0.000000
N9    N     N_R   0.966639 0.190189 0.210043 0.000000
C38   C     C_R   0.977701 0.142405 0.256197 0.000000
N10   N     N_R   0.024011 0.126763 0.280723 0.000000
C39   C     C_R   0.044031 0.162693 0.245482 0.000000
C40   C     C_R   0.095956 0.156332 0.242558 0.000000
S5    S     S_3+2 0.951401 0.090743 0.272088 0.000000
O13   O     O_2   0.907615 0.091542 0.313147 0.000000
O14   O     O_2   0.998118 0.029561 0.297253 0.000000
O15   O     O_3   0.932231 0.081741 0.226834 0.000000
H29   H     H_    0.190901 0.161327 0.166724 0.000000
H30   H     H_    0.186663 0.156743 0.230679 0.000000
H31   H     H_    0.169042 0.224741 0.179577 0.000000
H32   H     H_    0.090214 0.251739 0.122263 0.000000
H33   H     H_    0.995179 0.268823 0.131838 0.000000
H34   H     H_    0.124366 0.124342 0.273023 0.000000
H35   H     H_    0.942148 0.039391 0.240908 0.000000
C41   C     C_3   0.939514 0.962200 0.448132 0.000000
C42   C     C_R   0.998376 0.938169 0.436179 0.000000
C43   C     C_R   0.029642 0.879133 0.451801 0.000000
C44   C     C_R   0.076805 0.857933 0.426280 0.000000
C45   C     C_R   0.101998 0.892667 0.398421 0.000000
N11   N     N_R   0.150134 0.880781 0.372473 0.000000
C46   C     C_R   0.148995 0.935402 0.351258 0.000000
N12   N     N_R   0.100762 0.979823 0.359684 0.000000
C47   C     C_R   0.073031 0.950351 0.388638 0.000000
C48   C     C_R   0.019179 0.974153 0.401332 0.000000
S6    S     S_3+2 0.202214 0.947646 0.311482 0.000000
O16   O     O_2   0.221572 0.915375 0.276734 0.000000
O17   O     O_2   0.255555 0.923915 0.338272 0.000000
O18   O     O_3   0.184348 0.018976 0.272936 0.000000
H36   H     H_    0.915112 0.981814 0.414188 0.000000
H37   H     H_    0.927988 0.997347 0.460198 0.000000
H38   H     H_    0.930509 0.926982 0.478322 0.000000
H39   H     H_    0.013024 0.850704 0.478520 0.000000
H40   H     H_    0.089974 0.817160 0.424752 0.000000
H41   H     H_    0.991918 0.019130 0.381986 0.000000
H42   H     H_    0.144462 0.037681 0.278153 0.000000
C49   C     C_3   0.682223 0.294578 0.433265 0.000000
C50   C     C_R   0.693802 0.342792 0.427690 0.000000
C51   C     C_R   0.664596 0.399058 0.392461 0.000000
C52   C     C_R   0.677923 0.443221 0.383875 0.000000
C53   C     C_R   0.717899 0.430302 0.413403 0.000000
N13   N     N_R   0.736701 0.467069 0.409715 0.000000
C54   C     C_R   0.770381 0.433804 0.452650 0.000000
N14   N     N_R   0.776418 0.376466 0.479527 0.000000
C55   C     C_R   0.742553 0.376749 0.452317 0.000000
C56   C     C_R   0.733769 0.331278 0.457157 0.000000
S7    S     S_3+2 0.791346 0.466935 0.478175 0.000000
O19   O     O_2   0.747920 0.530968 0.463785 0.000000
O20   O     O_2   0.842946 0.473870 0.454154 0.000000
O21   O     O_3   0.799928 0.441722 0.541204 0.000000
H43   H     H_    0.638893 0.305112 0.444442 0.000000
H44   H     H_    0.709379 0.252433 0.462282 0.000000
H45   H     H_    0.689238 0.290222 0.396970 0.000000
H46   H     H_    0.633360 0.407628 0.369824 0.000000
H47   H     H_    0.657501 0.486582 0.354905 0.000000
H48   H     H_    0.758947 0.287485 0.480730 0.000000
H49   H     H_    0.777804 0.476964 0.548835 0.000000
C57   C     C_3   0.755442 0.713413 0.200743 0.000000
C58   C     C_R   0.763696 0.659808 0.200057 0.000000
C59   C     C_R   0.788778 0.647014 0.159848 0.000000
C60   C     C_R   0.801656 0.593746 0.160846 0.000000
C61   C     C_R   0.784927 0.557450 0.200954 0.000000
N15   N     N_R   0.788464 0.507303 0.205562 0.000000
C62   C     C_R   0.761494 0.491988 0.250974 0.000000
N16   N     N_R   0.745254 0.529825 0.275264 0.000000
C63   C     C_R   0.760064 0.570535 0.240744 0.000000
C64   C     C_R   0.747880 0.622624 0.240440 0.000000
S8    S     S_3+2 0.740704 0.435618 0.270050 0.000000
O22   O     O_2   0.755694 0.410121 0.230386 0.000000
O23   O     O_2   0.678016 0.460043 0.271221 0.000000
O24   O     O_3   0.764349 0.376020 0.325448 0.000000
H50   H     H_    0.792360 0.720722 0.186858 0.000000
H51   H     H_    0.747446 0.708143 0.239914 0.000000
H52   H     H_    0.719309 0.749105 0.177541 0.000000
H53   H     H_    0.801658 0.677444 0.130080 0.000000
H54   H     H_    0.827819 0.579350 0.133177 0.000000
H55   H     H_    0.721135 0.637110 0.267872 0.000000
H56   H     H_    0.778231 0.388929 0.343460 0.000000
C65   C     C_3   0.316122 0.604548 0.305892 0.000000
C66   C     C_R   0.269752 0.663895 0.283076 0.000000
C67   C     C_R   0.247497 0.680797 0.237656 0.000000
C68   C     C_R   0.203550 0.735259 0.216272 0.000000
C69   C     C_R   0.182074 0.770862 0.242065 0.000000
N17   N     N_R   0.138057 0.823702 0.229564 0.000000
C70   C     C_R   0.138834 0.840444 0.266355 0.000000
N18   N     N_R   0.180669 0.799630 0.301379 0.000000
C71   C     C_R   0.205880 0.755767 0.285208 0.000000
C72   C     C_R   0.249796 0.702460 0.306444 0.000000
S9    S     S_3+2 0.088077 0.905490 0.272776 0.000000
O25   O     O_2   0.039358 0.949262 0.236740 0.000000
O26   O     O_2   0.111447 0.943787 0.272655 0.000000
O27   O     O_3   0.060504 0.887381 0.329086 0.000000
H57   H     H_    0.302687 0.570751 0.313848 0.000000
H58   H     H_    0.329578 0.598557 0.341327 0.000000
H59   H     H_    0.350883 0.599450 0.279453 0.000000
H60   H     H_    0.264424 0.651057 0.218986 0.000000
H61   H     H_    0.186544 0.748655 0.180844 0.000000
H62   H     H_    0.268405 0.691614 0.339703 0.000000
H63   H     H_    0.086760 0.845413 0.343894 0.000000
C73   C     C_3   0.338620 0.501828 0.546600 0.000000
C74   C     C_R   0.300765 0.559391 0.509640 0.000000
C75   C     C_R   0.322126 0.588902 0.466462 0.000000
C76   C     C_R   0.289168 0.645549 0.434876 0.000000
C77   C     C_R   0.233979 0.669769 0.444776 0.000000
N19   N     N_R   0.200794 0.727860 0.429712 0.000000
C78   C     C_R   0.163407 0.728147 0.468588 0.000000
N20   N     N_R   0.160773 0.675261 0.495638 0.000000
C79   C     C_R   0.211357 0.638573 0.485250 0.000000
C80   C     C_R   0.245357 0.584882 0.519873 0.000000
S10   S     S_3+2 0.165147 0.763002 0.505692 0.000000
O28   O     O_2   0.187838 0.782037 0.453037 0.000000
O29   O     O_2   0.218016 0.706909 0.528602 0.000000
O30   O     O_3   0.124377 0.731293 0.512268 0.000000
H64   H     H_    0.361332 0.470665 0.528188 0.000000
H65   H     H_    0.315241 0.483701 0.578650 0.000000
H66   H     H_    0.368283 0.507864 0.560476 0.000000
H67   H     H_    0.365720 0.569528 0.459840 0.000000
H68   H     H_    0.307775 0.671612 0.406599 0.000000
H69   H     H_    0.229688 0.565111 0.555700 0.000000
H70   H     H_    0.087168 0.763647 0.508022 0.000000
C81   C     C_3   0.703902 0.499771 0.995131 0.000000
C82   C     C_R   0.742934 0.451728 0.036860 0.000000
C83   C     C_R   0.754457 0.394078 0.049814 0.000000
C84   C     C_R   0.794599 0.348917 0.085090 0.000000
C85   C     C_R   0.820522 0.362857 0.108100 0.000000
N21   N     N_R   0.864147 0.326271 0.139373 0.000000
C86   C     C_R   0.866416 0.363376 0.155667 0.000000
N22   N     N_R   0.829579 0.421440 0.133069 0.000000
C87   C     C_R   0.802590 0.419420 0.101640 0.000000
C88   C     C_R   0.768020 0.464517 0.062308 0.000000
S11   S     S_3+2 0.906716 0.340148 0.205562 0.000000
O31   O     O_2   0.960179 0.345674 0.189214 0.000000
O32   O     O_2   0.926029 0.276009 0.241423 0.000000
O33   O     O_3   0.872109 0.377961 0.242328 0.000000
H71   H     H_    0.721326 0.494696 0.959659 0.000000
H72   H     H_    0.696714 0.543116 0.991775 0.000000
H73   H     H_    0.664301 0.497415 0.002522 0.000000
H74   H     H_    0.733612 0.384249 0.030919 0.000000
H75   H     H_    0.802497 0.304526 0.096155 0.000000
H76   H     H_    0.764401 0.507620 0.048001 0.000000
H77   H     H_    0.867677 0.417610 0.220093 0.000000
C89   C     C_3   0.146105 0.830856 0.601803 0.000000
C90   C     C_R   0.085335 0.856286 0.607220 0.000000
C91   C     C_R   0.051551 0.877653 0.567529 0.000000
C92   C     C_R   0.997912 0.919197 0.565679 0.000000
C93   C     C_R   0.979370 0.934240 0.605545 0.000000
N23   N     N_R   0.937520 0.984480 0.605822 0.000000
C94   C     C_R   0.941093 0.978733 0.653475 0.000000
N24   N     N_R   0.983206 0.926671 0.682278 0.000000
C95   C     C_R   0.008137 0.902208 0.649237 0.000000
C96   C     C_R   0.062564 0.865519 0.649897 0.000000
S12   S     S_3+2 0.900873 0.037744 0.672094 0.000000
O34   O     O_2   0.916347 0.087775 0.642734 0.000000
O35   O     O_2   0.914767 0.021944 0.725465 0.000000
O36   O     O_3   0.830821 0.068720 0.668056 0.000000
H78   H     H_    0.166338 0.790673 0.635487 0.000000
H79   H     H_    0.159536 0.863329 0.597949 0.000000
H80   H     H_    0.158707 0.820787 0.568133 0.000000
H81   H     H_    0.068524 0.867266 0.535368 0.000000
H82   H     H_    0.973581 0.943165 0.532507 0.000000
H83   H     H_    0.088153 0.853994 0.678706 0.000000
H84   H     H_    0.816935 0.074809 0.699274 0.000000
C97   C     C_3   0.306997 0.121172 0.122189 0.000000
C98   C     C_R   0.342766 0.087906 0.091267 0.000000
C99   C     C_R   0.326542 0.058815 0.075528 0.000000
C100  C     C_R   0.361484 0.027158 0.047705 0.000000
C101  C     C_R   0.413185 0.018969 0.042559 0.000000
N25   N     N_R   0.455550 0.983387 0.023344 0.000000
C102  C     C_R   0.488873 0.012081 0.009893 0.000000
N26   N     N_R   0.470238 0.057893 0.026040 0.000000
C103  C     C_R   0.422990 0.059180 0.046280 0.000000
C104  C     C_R   0.389091 0.093573 0.071083 0.000000
S13   S     S_3+2 0.537280 0.006942 0.960680 0.000000
O37   O     O_2   0.511843 0.011828 0.916976 0.000000
O38   O     O_2   0.587910 0.946970 0.973229 0.000000
O39   O     O_3   0.559557 0.060021 0.932644 0.000000
H85   H     H_    0.291226 0.168870 0.099667 0.000000
H86   H     H_    0.329610 0.113288 0.152633 0.000000
H87   H     H_    0.273835 0.107990 0.138253 0.000000
H88   H     H_    0.285796 0.064220 0.082395 0.000000
H89   H     H_    0.349530 0.015058 0.024703 0.000000
H90   H     H_    0.399319 0.121685 0.077240 0.000000
H91   H     H_    0.538181 0.086829 0.901034 0.000000
C105  C     C_3   0.523455 0.267287 0.088321 0.000000
C106  C     C_R   0.510381 0.217155 0.119368 0.000000
C107  C     C_R   0.509629 0.197587 0.171250 0.000000
C108  C     C_R   0.498686 0.150251 0.201516 0.000000
C109  C     C_R   0.486572 0.124338 0.178848 0.000000
N27   N     N_R   0.475511 0.077150 0.200598 0.000000
C110  C     C_R   0.473425 0.069856 0.158949 0.000000
N28   N     N_R   0.478380 0.110696 0.112734 0.000000
C111  C     C_R   0.488050 0.143756 0.127322 0.000000
C112  C     C_R   0.499890 0.189704 0.096828 0.000000
S14   S     S_3+2 0.471419 0.008595 0.168533 0.000000
O40   O     O_2   0.509899 0.957602 0.211293 0.000000
O41   O     O_2   0.492993 0.989947 0.125290 0.000000
O42   O     O_3   0.407807 0.014603 0.184959 0.000000
H92   H     H_    0.492186 0.306837 0.094684 0.000000
H93   H     H_    0.523792 0.276396 0.048042 0.000000
H94   H     H_    0.564381 0.256196 0.099394 0.000000
H95   H     H_    0.518751 0.218844 0.188341 0.000000
H96   H     H_    0.500288 0.133990 0.241871 0.000000
H97   H     H_    0.500774 0.203801 0.056609 0.000000
H98   H     H_    0.394613 0.043508 0.199930 0.000000
C113  C     C_3   0.366099 0.340268 0.796378 0.000000
C114  C     C_R   0.374549 0.301412 0.850671 0.000000
C115  C     C_R   0.421353 0.247887 0.865828 0.000000
C116  C     C_R   0.433458 0.213210 0.916127 0.000000
C117  C     C_R   0.396831 0.232483 0.949911 0.000000
N29   N     N_R   0.403633 0.207877 0.999764 0.000000
C118  C     C_R   0.354701 0.245737 0.014291 0.000000
N30   N     N_R   0.318117 0.291577 0.975578 0.000000
C119  C     C_R   0.347864 0.282516 0.935400 0.000000
C120  C     C_R   0.337123 0.319248 0.885641 0.000000
S15   S     S_3+2 0.348044 0.249344 0.072606 0.000000
O43   O     O_2   0.370243 0.189764 0.116987 0.000000
O44   O     O_2   0.287857 0.278598 0.086505 0.000000
O45   O     O_3   0.378241 0.288037 0.075270 0.000000
H99   H     H_    0.403309 0.346718 0.781123 0.000000
H100  H     H_    0.330846 0.383596 0.790753 0.000000
H101  H     H_    0.358579 0.319589 0.776362 0.000000
H102  H     H_    0.449903 0.234579 0.838119 0.000000
H103  H     H_    0.471116 0.173057 0.928416 0.000000
H104  H     H_    0.302668 0.362088 0.874353 0.000000
H105  H     H_    0.398574 0.295839 0.043421 0.000000
C121  C     C_3   0.708309 0.942176 0.144577 0.000000
C122  C     C_R   0.670053 0.987862 0.102676 0.000000
C123  C     C_R   0.619075 0.990238 0.107634 0.000000
C124  C     C_R   0.578832 0.036031 0.074755 0.000000
C125  C     C_R   0.589546 0.078671 0.037905 0.000000
N31   N     N_R   0.552236 0.127841 0.005951 0.000000
C126  C     C_R   0.585430 0.152845 0.973765 0.000000
N32   N     N_R   0.641318 0.119333 0.985957 0.000000
C127  C     C_R   0.640790 0.073912 0.028011 0.000000
C128  C     C_R   0.683147 0.027907 0.060641 0.000000
S16   S     S_3+2 0.557256 0.224715 0.924698 0.000000
O46   O     O_2   0.548848 0.223328 0.876077 0.000000
O47   O     O_2   0.596747 0.252647 0.907572 0.000000
O48   O     O_3   0.495913 0.277057 0.934829 0.000000
H106  H     H_    0.750248 0.936465 0.134571 0.000000
H107  H     H_    0.707068 0.900785 0.157023 0.000000
H108  H     H_    0.692465 0.953503 0.177032 0.000000
H109  H     H_    0.610076 0.956870 0.137613 0.000000
H110  H     H_    0.539983 0.038439 0.076924 0.000000
H111  H     H_    0.724109 0.023844 0.054941 0.000000
H112  H     H_    0.504904 0.287133 0.958753 0.000000
C129  C     C_3   0.471369 0.983625 0.820192 0.000000
C130  C     C_R   0.508984 0.929421 0.859889 0.000000
C131  C     C_R   0.554371 0.887880 0.846209 0.000000
C132  C     C_R   0.592842 0.839664 0.881662 0.000000
C133  C     C_R   0.587417 0.836649 0.929478 0.000000
N33   N     N_R   0.622264 0.795425 0.968576 0.000000
C134  C     C_R   0.587329 0.805824 0.008529 0.000000
N34   N     N_R   0.535901 0.854267 0.994378 0.000000
C135  C     C_R   0.538790 0.872886 0.944168 0.000000
C136  C     C_R   0.498839 0.919930 0.910000 0.000000
S17   S     S_3+2 0.600456 0.761158 0.073911 0.000000
O49   O     O_2   0.653808 0.704391 0.092635 0.000000
O50   O     O_2   0.557666 0.738021 0.096094 0.000000
O51   O     O_3   0.593322 0.799867 0.107061 0.000000
H113  H     H_    0.493242 0.010378 0.797347 0.000000
H114  H     H_    0.434738 0.009694 0.837127 0.000000
H115  H     H_    0.459046 0.971422 0.795573 0.000000
H116  H     H_    0.559836 0.893245 0.807508 0.000000
H117  H     H_    0.625290 0.804916 0.872034 0.000000
H118  H     H_    0.461727 0.949396 0.921906 0.000000
H119  H     H_    0.598153 0.834323 0.081494 0.000000
C137  C     C_3   0.434898 0.632025 0.207815 0.000000
C138  C     C_R   0.438428 0.688554 0.180749 0.000000
C139  C     C_R   0.436140 0.714094 0.128594 0.000000
C140  C     C_R   0.441286 0.765569 0.101824 0.000000
C141  C     C_R   0.448385 0.790575 0.128428 0.000000
N35   N     N_R   0.458613 0.837745 0.110007 0.000000
C142  C     C_R   0.462858 0.839939 0.154230 0.000000
N36   N     N_R   0.454992 0.798791 0.198686 0.000000
C143  C     C_R   0.447420 0.767065 0.180362 0.000000
C144  C     C_R   0.443862 0.715315 0.207325 0.000000
S18   S     S_3+2 0.479046 0.889952 0.152687 0.000000
O52   O     O_2   0.515643 0.903685 0.107633 0.000000
O53   O     O_2   0.512254 0.870654 0.197814 0.000000
O54   O     O_3   0.420496 0.952380 0.145490 0.000000
H120  H     H_    0.395634 0.637791 0.197999 0.000000
H121  H     H_    0.436896 0.617819 0.248850 0.000000
H122  H     H_    0.469530 0.598001 0.196476 0.000000
H123  H     H_    0.431645 0.692686 0.108620 0.000000
H124  H     H_    0.441890 0.783932 0.061486 0.000000
H125  H     H_    0.445568 0.696277 0.247815 0.000000
H126  H     H_    0.391779 0.939163 0.159708 0.000000
C145  C     C_3   0.472244 0.772055 0.914654 0.000000
C146  C     C_R   0.425264 0.817511 0.929696 0.000000
C147  C     C_R   0.372274 0.834912 0.917150 0.000000
C148  C     C_R   0.327801 0.875964 0.931752 0.000000
C149  C     C_R   0.337657 0.901694 0.956083 0.000000
N37   N     N_R   0.300121 0.939927 0.975765 0.000000
C150  C     C_R   0.333986 0.939335 0.004136 0.000000
N38   N     N_R   0.389980 0.910187 0.997675 0.000000
C151  C     C_R   0.390312 0.884719 0.968448 0.000000
C152  C     C_R   0.434401 0.840926 0.957189 0.000000
S19   S     S_3+2 0.309329 0.942525 0.060911 0.000000
O55   O     O_2   0.273635 0.910437 0.086313 0.000000
O56   O     O_2   0.269564 0.006633 0.048739 0.000000
O57   O     O_3   0.351435 0.923687 0.105660 0.000000
H127  H     H_    0.468652 0.730370 0.932868 0.000000
H128  H     H_    0.511542 0.764718 0.925945 0.000000
H129  H     H_    0.471677 0.787122 0.873370 0.000000
H130  H     H_    0.365591 0.815074 0.896925 0.000000
H131  H     H_    0.286615 0.887235 0.924104 0.000000
H132  H     H_    0.474598 0.822865 0.971503 0.000000
H133  H     H_    0.356471 0.883749 0.127100 0.000000
C153  C     C_3   0.265983 0.057725 0.244424 0.000000
C154  C     C_R   0.313911 0.000667 0.258434 0.000000
C155  C     C_R   0.318735 0.958562 0.244032 0.000000
C156  C     C_R   0.365926 0.906704 0.255056 0.000000
C157  C     C_R   0.408800 0.901792 0.274741 0.000000
N39   N     N_R   0.458668 0.856286 0.284905 0.000000
C158  C     C_R   0.485479 0.878488 0.299682 0.000000
N40   N     N_R   0.454898 0.938606 0.292017 0.000000
C159  C     C_R   0.405558 0.946781 0.283050 0.000000
C160  C     C_R   0.356489 0.993431 0.280676 0.000000
S20   S     S_3+2 0.535201 0.827767 0.349106 0.000000
O58   O     O_2   0.561252 0.765502 0.350809 0.000000
O59   O     O_2   0.506640 0.818782 0.400195 0.000000
O60   O     O_3   0.588279 0.838560 0.354854 0.000000
H134  H     H_    0.280101 0.092182 0.226920 0.000000
H135  H     H_    0.242759 0.061474 0.278587 0.000000
H136  H     H_    0.240952 0.062512 0.217022 0.000000
H137  H     H_    0.285883 0.965708 0.224529 0.000000
H138  H     H_    0.371064 0.874033 0.243358 0.000000
H139  H     H_    0.351927 0.026499 0.291039 0.000000
H140  H     H_    0.575887 0.880770 0.334178 0.000000
C161  C     C_3   0.353044 0.270298 0.178313 0.000000
C162  C     C_R   0.336035 0.222477 0.200945 0.000000
C163  C     C_R   0.282351 0.233270 0.199337 0.000000
C164  C     C_R   0.264878 0.195714 0.238364 0.000000
C165  C     C_R   0.302562 0.149624 0.274326 0.000000
N41   N     N_R   0.296593 0.132625 0.324493 0.000000
C166  C     C_R   0.351141 0.091860 0.339925 0.000000
N42   N     N_R   0.387200 0.082270 0.301210 0.000000
C167  C     C_R   0.356195 0.126721 0.261583 0.000000
C168  C     C_R   0.373246 0.167609 0.230399 0.000000
S21   S     S_3+2 0.377255 0.073923 0.397992 0.000000
O61   O     O_2   0.343150 0.121761 0.418323 0.000000
O62   O     O_2   0.432781 0.075451 0.390019 0.000000
O63   O     O_3   0.387877 0.008340 0.446885 0.000000
H141  H     H_    0.323183 0.309336 0.149281 0.000000
H142  H     H_    0.394391 0.254180 0.162369 0.000000
H143  H     H_    0.356131 0.282097 0.208009 0.000000
H144  H     H_    0.252448 0.274867 0.174427 0.000000
H145  H     H_    0.222938 0.204790 0.242330 0.000000
H146  H     H_    0.410319 0.162495 0.240248 0.000000
H147  H     H_    0.377932 0.988161 0.433294 0.000000
C169  C     C_3   0.560992 0.881069 0.522267 0.000000
C170  C     C_R   0.553066 0.908820 0.466938 0.000000
C171  C     C_R   0.506421 0.919062 0.447196 0.000000
C172  C     C_R   0.496065 0.949168 0.396196 0.000000
C173  C     C_R   0.534481 0.965612 0.366323 0.000000
N43   N     N_R   0.531984 0.994917 0.316433 0.000000
C174  C     C_R   0.583465 0.993540 0.305781 0.000000
N44   N     N_R   0.618221 0.961333 0.346972 0.000000
C175  C     C_R   0.583969 0.948183 0.384703 0.000000
C176  C     C_R   0.592215 0.923773 0.435460 0.000000
S22   S     S_3+2 0.607392 0.024491 0.244628 0.000000
O64   O     O_2   0.588082 0.022009 0.201706 0.000000
O65   O     O_2   0.667317 0.981414 0.245998 0.000000
O66   O     O_3   0.611425 0.089328 0.222101 0.000000
H148  H     H_    0.527134 0.909742 0.539200 0.000000
H149  H     H_    0.600689 0.874678 0.531765 0.000000
H150  H     H_    0.560686 0.837828 0.537603 0.000000
H151  H     H_    0.477145 0.905248 0.472034 0.000000
H152  H     H_    0.459192 0.959073 0.380285 0.000000
H153  H     H_    0.626726 0.918589 0.450631 0.000000
H154  H     H_    0.618079 0.099191 0.185803 0.000000
C177  C     C_3   0.055644 0.514491 0.891593 0.000000
C178  C     C_R   0.069806 0.454454 0.916804 0.000000
C179  C     C_R   0.036914 0.435351 0.910203 0.000000
C180  C     C_R   0.053446 0.377883 0.925576 0.000000
C181  C     C_R   0.103882 0.342365 0.944780 0.000000
N45   N     N_R   0.127277 0.284845 0.962573 0.000000
C182  C     C_R   0.177093 0.271385 0.978977 0.000000
N46   N     N_R   0.183928 0.319761 0.970718 0.000000
C183  C     C_R   0.135584 0.362265 0.951553 0.000000
C184  C     C_R   0.116301 0.418170 0.943900 0.000000
S23   S     S_3+2 0.224995 0.199879 0.014172 0.000000
O67   O     O_2   0.225274 0.149182 0.008145 0.000000
O68   O     O_2   0.210000 0.185079 0.069448 0.000000
O69   O     O_3   0.291385 0.189068 0.008465 0.000000
H155  H     H_    0.067301 0.522112 0.852198 0.000000
H156  H     H_    0.077214 0.525607 0.909629 0.000000
H157  H     H_    0.011041 0.535608 0.894586 0.000000
H158  H     H_    0.996925 0.464975 0.896667 0.000000
H159  H     H_    0.025528 0.362540 0.926692 0.000000
H160  H     H_    0.137471 0.433680 0.955769 0.000000
H161  H     H_    0.304892 0.180197 0.978333 0.000000
C185  C     C_3   0.272326 0.477311 0.120416 0.000000
C186  C     C_R   0.254014 0.453666 0.095327 0.000000
C187  C     C_R   0.289107 0.429518 0.062581 0.000000
C188  C     C_R   0.273581 0.406127 0.039555 0.000000
C189  C     C_R   0.222213 0.409145 0.048456 0.000000
N47   N     N_R   0.201752 0.384174 0.033234 0.000000
C190  C     C_R   0.155835 0.388048 0.063565 0.000000
N48   N     N_R   0.145973 0.417134 0.094164 0.000000
C191  C     C_R   0.188940 0.429574 0.083254 0.000000
C192  C     C_R   0.203735 0.452570 0.106835 0.000000
S24   S     S_3+2 0.128455 0.338093 0.080306 0.000000
O70   O     O_2   0.174308 0.277042 0.087045 0.000000
O71   O     O_2   0.088358 0.349578 0.044354 0.000000
O72   O     O_3   0.096097 0.328296 0.136320 0.000000
H162  H     H_    0.310165 0.441914 0.142434 0.000000
H163  H     H_    0.240032 0.493995 0.145855 0.000000
H164  H     H_    0.280965 0.513692 0.091620 0.000000
H165  H     H_    0.329592 0.427357 0.056152 0.000000
H166  H     H_    0.302466 0.382592 0.017918 0.000000
H167  H     H_    0.178327 0.466939 0.135070 0.000000
H168  H     H_    0.125082 0.318221 0.157464 0.000000
C193  C     C_3   0.296197 0.533832 0.943771 0.000000
C194  C     C_R   0.253413 0.533976 0.921091 0.000000
C195  C     C_R   0.209966 0.586585 0.895199 0.000000
C196  C     C_R   0.173244 0.587987 0.869297 0.000000
C197  C     C_R   0.180897 0.536799 0.869114 0.000000
N49   N     N_R   0.156749 0.528612 0.839641 0.000000
C198  C     C_R   0.181190 0.465813 0.861931 0.000000
N50   N     N_R   0.213398 0.439210 0.904079 0.000000
C199  C     C_R   0.216373 0.484886 0.903549 0.000000
C200  C     C_R   0.256257 0.482121 0.925907 0.000000
S25   S     S_3+2 0.187234 0.416469 0.836923 0.000000
O73   O     O_2   0.134808 0.412836 0.834347 0.000000
O74   O     O_2   0.219547 0.354229 0.875446 0.000000
O75   O     O_3   0.226329 0.413058 0.784719 0.000000
H169  H     H_    0.314477 0.561201 0.914144 0.000000
H170  H     H_    0.328912 0.488471 0.961313 0.000000
H171  H     H_    0.277284 0.552200 0.972596 0.000000
H172  H     H_    0.205617 0.627084 0.893862 0.000000
H173  H     H_    0.138297 0.627883 0.852604 0.000000
H174  H     H_    0.291694 0.441020 0.941749 0.000000
H175  H     H_    0.234278 0.447169 0.772098 0.000000
C201  C     C_3   0.662642 0.295577 0.084665 0.000000
C202  C     C_R   0.683513 0.245630 0.069547 0.000000
C203  C     C_R   0.659884 0.253026 0.028698 0.000000
C204  C     C_R   0.679919 0.207954 0.012772 0.000000
C205  C     C_R   0.723259 0.156217 0.038705 0.000000
N51   N     N_R   0.749792 0.108485 0.027992 0.000000
C206  C     C_R   0.789263 0.070960 0.065655 0.000000
N52   N     N_R   0.788284 0.094124 0.098645 0.000000
C207  C     C_R   0.745857 0.148162 0.079641 0.000000
C208  C     C_R   0.726902 0.192599 0.095502 0.000000
S26   S     S_3+2 0.839209 0.000105 0.070720 0.000000
O76   O     O_2   0.829466 0.950778 0.113883 0.000000
O77   O     O_2   0.891161 0.992698 0.087535 0.000000
O78   O     O_3   0.863174 0.972930 0.026611 0.000000
H176  H     H_    0.666763 0.333239 0.052834 0.000000
H177  H     H_    0.686401 0.282722 0.117155 0.000000
H178  H     H_    0.618845 0.308713 0.095072 0.000000
H179  H     H_    0.626143 0.294633 0.008694 0.000000
H180  H     H_    0.662706 0.213667 0.980469 0.000000
H181  H     H_    0.746722 0.187284 0.125732 0.000000
H182  H     H_    0.889273 0.931450 0.044099 0.000000
C209  C     C_3   0.665429 0.227465 0.712199 0.000000
C210  C     C_R   0.681511 0.213720 0.762766 0.000000
C211  C     C_R   0.661212 0.181364 0.805043 0.000000
C212  C     C_R   0.676453 0.167077 0.852377 0.000000
C213  C     C_R   0.711173 0.186445 0.856160 0.000000
N53   N     N_R   0.732181 0.174800 0.898565 0.000000
C214  C     C_R   0.767388 0.201188 0.879991 0.000000
N54   N     N_R   0.771039 0.224804 0.828029 0.000000
C215  C     C_R   0.732565 0.217020 0.814816 0.000000
C216  C     C_R   0.717772 0.231578 0.767460 0.000000
S27   S     S_3+2 0.800534 0.210613 0.918677 0.000000
O79   O     O_2   0.821136 0.158152 0.968944 0.000000
O80   O     O_2   0.760317 0.259730 0.936050 0.000000
O81   O     O_3   0.855299 0.225580 0.894798 0.000000
H183  H     H_    0.678595 0.185931 0.708184 0.000000
H184  H     H_    0.685135 0.253303 0.682689 0.000000
H185  H     H_    0.620261 0.253248 0.707770 0.000000
H186  H     H_    0.633620 0.166872 0.800970 0.000000
H187  H     H_    0.661249 0.141804 0.885394 0.000000
H188  H     H_    0.734476 0.254974 0.734808 0.000000
H189  H     H_    0.884214 0.196560 0.920823 0.000000
C217  C     C_3   0.916929 0.077576 0.920856 0.000000
C218  C     C_R   0.892803 0.040138 0.924949 0.000000
C219  C     C_R   0.925128 0.984551 0.924993 0.000000
C220  C     C_R   0.902435 0.947512 0.934951 0.000000
C221  C     C_R   0.847229 0.968910 0.941297 0.000000
N55   N     N_R   0.817849 0.939152 0.955209 0.000000
C222  C     C_R   0.766296 0.980885 0.961911 0.000000
N56   N     N_R   0.766191 0.031382 0.957831 0.000000
C223  C     C_R   0.816290 0.023359 0.940787 0.000000
C224  C     C_R   0.838249 0.058916 0.933835 0.000000
S28   S     S_3+2 0.703237 0.980931 0.957676 0.000000
O82   O     O_2   0.706788 0.947186 0.927897 0.000000
O83   O     O_2   0.663183 0.043169 0.924542 0.000000
O84   O     O_3   0.666228 0.961007 0.009778 0.000000
H190  H     H_    0.916534 0.078803 0.957526 0.000000
H191  H     H_    0.894079 0.122325 0.893052 0.000000
H192  H     H_    0.958426 0.058167 0.908294 0.000000
H193  H     H_    0.968522 0.969018 0.918655 0.000000
H194  H     H_    0.927690 0.902435 0.941024 0.000000
H195  H     H_    0.815342 0.095495 0.943146 0.000000
H196  H     H_    0.629428 0.994390 0.002298 0.000000
C225  C     C_3   0.323307 0.992878 0.539361 0.000000
C226  C     C_R   0.280270 0.054780 0.523103 0.000000
C227  C     C_R   0.261981 0.080618 0.557143 0.000000
C228  C     C_R   0.213705 0.131830 0.548094 0.000000
C229  C     C_R   0.187221 0.157654 0.503403 0.000000
N57   N     N_R   0.141754 0.209136 0.486973 0.000000
C230  C     C_R   0.149380 0.226587 0.435177 0.000000
N58   N     N_R   0.191787 0.183614 0.420298 0.000000
C231  C     C_R   0.214058 0.140702 0.465129 0.000000
C232  C     C_R   0.258063 0.086538 0.475122 0.000000
S29   S     S_3+2 0.128893 0.301952 0.395169 0.000000
O85   O     O_2   0.091884 0.341425 0.422728 0.000000
O86   O     O_2   0.093508 0.325813 0.349877 0.000000
O87   O     O_3   0.180975 0.321633 0.372924 0.000000
H197  H     H_    0.363342 0.990558 0.542643 0.000000
H198  H     H_    0.325592 0.974580 0.512600 0.000000
H199  H     H_    0.312137 0.966369 0.576476 0.000000
H200  H     H_    0.282931 0.058004 0.592693 0.000000
H201  H     H_    0.198194 0.150900 0.575206 0.000000
H202  H     H_    0.275435 0.070078 0.446578 0.000000
H203  H     H_    0.214174 0.284082 0.377519 0.000000
C233  C     C_3   0.263691 0.880563 0.463578 0.000000
C234  C     C_R   0.246021 0.942558 0.428048 0.000000
C235  C     C_R   0.282128 0.966410 0.415970 0.000000
C236  C     C_R   0.264241 0.025617 0.388210 0.000000
C237  C     C_R   0.210797 0.059640 0.372125 0.000000
N59   N     N_R   0.180995 0.117592 0.360746 0.000000
C238  C     C_R   0.128522 0.123209 0.365921 0.000000
N60   N     N_R   0.124934 0.076148 0.368211 0.000000
C239  C     C_R   0.177305 0.034821 0.378210 0.000000
C240  C     C_R   0.193672 0.976529 0.408197 0.000000
S30   S     S_3+2 0.079413 0.166209 0.396755 0.000000
O88   O     O_2   0.084867 0.222283 0.380308 0.000000
O89   O     O_2   0.089565 0.138558 0.453459 0.000000
O90   O     O_3   0.012512 0.186740 0.388591 0.000000
H204  H     H_    0.266341 0.876335 0.501911 0.000000
H205  H     H_    0.304765 0.854753 0.451994 0.000000
H206  H     H_    0.234645 0.864667 0.462967 0.000000
H207  H     H_    0.323171 0.939588 0.431510 0.000000
H208  H     H_    0.290416 0.044067 0.384836 0.000000
H209  H     H_    0.165196 0.958686 0.419967 0.000000
H210  H     H_    0.014311 0.176434 0.360583 0.000000
C241  C     C_3   0.962896 0.365988 0.280631 0.000000
C242  C     C_R   0.016487 0.332264 0.264586 0.000000
C243  C     C_R   0.039461 0.272661 0.277635 0.000000
C244  C     C_R   0.095805 0.242868 0.281130 0.000000
C245  C     C_R   0.122182 0.274890 0.271830 0.000000
N61   N     N_R   0.170972 0.260541 0.287582 0.000000
C246  C     C_R   0.176575 0.311381 0.254473 0.000000
N62   N     N_R   0.133498 0.352634 0.219771 0.000000
C247  C     C_R   0.099674 0.329210 0.237445 0.000000
C248  C     C_R   0.046409 0.360978 0.238448 0.000000
S31   S     S_3+2 0.231230 0.325758 0.258298 0.000000
O91   O     O_2   0.251731 0.352613 0.205814 0.000000
O92   O     O_2   0.283142 0.269304 0.283037 0.000000
O93   O     O_3   0.222295 0.371194 0.285640 0.000000
H211  H     H_    0.968192 0.381959 0.306004 0.000000
H212  H     H_    0.943706 0.336922 0.298065 0.000000
H213  H     H_    0.939285 0.404180 0.248770 0.000000
H214  H     H_    0.014676 0.249742 0.289651 0.000000
H215  H     H_    0.119196 0.198532 0.287877 0.000000
H216  H     H_    0.032106 0.405624 0.229373 0.000000
H217  H     H_    0.257093 0.352026 0.303909 0.000000
C249  C     C_3   0.613338 0.229197 0.238854 0.000000
C250  C     C_R   0.646005 0.164355 0.256576 0.000000
C251  C     C_R   0.629662 0.128226 0.299248 0.000000
C252  C     C_R   0.658291 0.067865 0.315564 0.000000
C253  C     C_R   0.704283 0.045243 0.289649 0.000000
N63   N     N_R   0.732495 0.989066 0.295158 0.000000
C254  C     C_R   0.767979 0.994347 0.254435 0.000000
N64   N     N_R   0.769033 0.047822 0.229901 0.000000
C255  C     C_R   0.723083 0.080440 0.249472 0.000000
C256  C     C_R   0.692326 0.140496 0.230654 0.000000
S32   S     S_3+2 0.772923 0.968755 0.210835 0.000000
O94   O     O_2   0.779757 0.906659 0.226535 0.000000
O95   O     O_2   0.826961 0.966558 0.186645 0.000000
O96   O     O_3   0.729438 0.018578 0.160384 0.000000
H218  H     H_    0.570848 0.241971 0.230278 0.000000
H219  H     H_    0.631792 0.251612 0.204684 0.000000
H220  H     H_    0.612542 0.242812 0.268678 0.000000
H221  H     H_    0.593246 0.147393 0.318893 0.000000
H222  H     H_    0.644180 0.039602 0.347125 0.000000
H223  H     H_    0.704086 0.168568 0.197163 0.000000
H224  H     H_    0.711256 0.055927 0.164804 0.000000
C257  C     C_3   0.620618 0.878259 0.233111 0.000000
C258  C     C_R   0.674546 0.851389 0.255567 0.000000
C259  C     C_R   0.717994 0.811212 0.240616 0.000000
C260  C     C_R   0.764837 0.774001 0.269029 0.000000
C261  C     C_R   0.767126 0.784721 0.308191 0.000000
N65   N     N_R   0.805553 0.751161 0.343408 0.000000
C262  C     C_R   0.794539 0.787645 0.367003 0.000000
N66   N     N_R   0.748730 0.842334 0.347431 0.000000
C263  C     C_R   0.731464 0.835364 0.313041 0.000000
C264  C     C_R   0.681694 0.866268 0.290617 0.000000
S33   S     S_3+2 0.841037 0.764297 0.414367 0.000000
O97   O     O_2   0.830759 0.722990 0.465457 0.000000
O98   O     O_2   0.837389 0.812717 0.426472 0.000000
O99   O     O_3   0.909109 0.727735 0.404724 0.000000
H225  H     H_    0.623721 0.867941 0.200589 0.000000
H226  H     H_    0.603670 0.925584 0.221791 0.000000
H227  H     H_    0.594115 0.860905 0.260862 0.000000
H228  H     H_    0.712199 0.807419 0.208752 0.000000
H229  H     H_    0.798032 0.737991 0.261259 0.000000
H230  H     H_    0.648499 0.897388 0.302367 0.000000
H231  H     H_    0.927559 0.740987 0.418099 0.000000
C265  C     C_3   0.674655 0.746418 0.504101 0.000000
C266  C     C_R   0.711936 0.771939 0.499530 0.000000
C267  C     C_R   0.747138 0.750691 0.538277 0.000000
C268  C     C_R   0.775956 0.780097 0.535857 0.000000
C269  C     C_R   0.763022 0.834059 0.497429 0.000000
N67   N     N_R   0.777750 0.875429 0.490839 0.000000
C270  C     C_R   0.746578 0.921920 0.448744 0.000000
N68   N     N_R   0.726349 0.904562 0.423659 0.000000
C271  C     C_R   0.732247 0.851798 0.457989 0.000000
C272  C     C_R   0.709220 0.819607 0.456550 0.000000
S34   S     S_3+2 0.698404 0.988572 0.456816 0.000000
O100  O     O_2   0.708017 0.986676 0.506619 0.000000
O101  O     O_2   0.641038 0.991310 0.466277 0.000000
O102  O     O_3   0.687306 0.057325 0.412961 0.000000
H232  H     H_    0.692228 0.716873 0.484073 0.000000
H233  H     H_    0.634413 0.782240 0.486914 0.000000
H234  H     H_    0.668054 0.722511 0.544148 0.000000
H235  H     H_    0.752478 0.710942 0.570614 0.000000
H236  H     H_    0.804838 0.762533 0.564663 0.000000
H237  H     H_    0.684152 0.834804 0.425338 0.000000
H238  H     H_    0.647179 0.081403 0.413395 0.000000
C273  C     C_3   0.688139 0.926992 0.708721 0.000000
C274  C     C_R   0.710468 0.876551 0.757305 0.000000
C275  C     C_R   0.691264 0.886323 0.800467 0.000000
C276  C     C_R   0.701907 0.839668 0.846092 0.000000
C277  C     C_R   0.727826 0.784326 0.846461 0.000000
N69   N     N_R   0.733474 0.734501 0.885975 0.000000
C278  C     C_R   0.764849 0.692450 0.866286 0.000000
N70   N     N_R   0.782334 0.714626 0.817265 0.000000
C279  C     C_R   0.754223 0.773502 0.805469 0.000000
C280  C     C_R   0.746159 0.820266 0.759730 0.000000
S35   S     S_3+2 0.766025 0.621723 0.894670 0.000000
O103  O     O_2   0.768944 0.595243 0.952002 0.000000
O104  O     O_2   0.818098 0.575481 0.882062 0.000000
O105  O     O_3   0.713412 0.615112 0.880963 0.000000
H239  H     H_    0.643179 0.951450 0.712154 0.000000
H240  H     H_    0.695248 0.911005 0.679046 0.000000
H241  H     H_    0.706859 0.956868 0.699268 0.000000
H242  H     H_    0.664547 0.930340 0.798132 0.000000
H243  H     H_    0.685317 0.847122 0.879717 0.000000
H244  H     H_    0.762585 0.814276 0.726067 0.000000
H245  H     H_    0.731413 0.587462 0.864216 0.000000
C281  C     C_3   0.719796 0.848477 0.105619 0.000000
C282  C     C_R   0.733331 0.824621 0.068301 0.000000
C283  C     C_R   0.711415 0.789240 0.071582 0.000000
C284  C     C_R   0.716238 0.775853 0.031857 0.000000
C285  C     C_R   0.745443 0.795081 0.992581 0.000000
N71   N     N_R   0.756485 0.782563 0.952970 0.000000
C286  C     C_R   0.795372 0.803062 0.929099 0.000000
N72   N     N_R   0.807542 0.827038 0.953682 0.000000
C287  C     C_R   0.773813 0.821892 0.992736 0.000000
C288  C     C_R   0.765784 0.840526 0.028888 0.000000
S36   S     S_3+2 0.837507 0.786674 0.880135 0.000000
O106  O     O_2   0.834144 0.737529 0.875453 0.000000
O107  O     O_2   0.897237 0.755464 0.896781 0.000000
O108  O     O_3   0.833412 0.837018 0.819880 0.000000
H246  H     H_    0.679518 0.851769 0.122658 0.000000
H247  H     H_    0.717912 0.892233 0.085497 0.000000
H248  H     H_    0.753204 0.821351 0.133611 0.000000
H249  H     H_    0.689973 0.773109 0.104422 0.000000
H250  H     H_    0.701288 0.748230 0.031640 0.000000
H251  H     H_    0.781733 0.869426 0.024411 0.000000
H252  H     H_    0.831796 0.818803 0.799022 0.000000
C289  C     C_3   0.563157 0.645025 0.044484 0.000000
C290  C     C_R   0.621103 0.624612 0.055989 0.000000
C291  C     C_R   0.645513 0.575577 0.099643 0.000000
C292  C     C_R   0.699493 0.555152 0.111275 0.000000
C293  C     C_R   0.727762 0.584977 0.078394 0.000000
N73   N     N_R   0.781018 0.570952 0.081091 0.000000
C294  C     C_R   0.784589 0.619299 0.041615 0.000000
N74   N     N_R   0.737242 0.658987 0.013315 0.000000
C295  C     C_R   0.703109 0.634602 0.036859 0.000000
C296  C     C_R   0.650109 0.654775 0.023862 0.000000
S37   S     S_3+2 0.841170 0.635342 0.030722 0.000000
O109  O     O_2   0.832985 0.679904 0.050565 0.000000
O110  O     O_2   0.843101 0.670678 0.974713 0.000000
O111  O     O_3   0.906541 0.581796 0.047291 0.000000
H253  H     H_    0.559669 0.610189 0.039883 0.000000
H254  H     H_    0.549420 0.685448 0.009569 0.000000
H255  H     H_    0.536760 0.654522 0.075799 0.000000
H256  H     H_    0.622324 0.552690 0.124465 0.000000
H257  H     H_    0.718974 0.516258 0.144434 0.000000
H258  H     H_    0.631846 0.692683 0.989792 0.000000
H259  H     H_    0.929463 0.601366 0.026936 0.000000
C297  C     C_3   0.459809 0.594516 0.467229 0.000000
C298  C     C_R   0.506044 0.601877 0.434367 0.000000
C299  C     C_R   0.559572 0.561968 0.450819 0.000000
C300  C     C_R   0.603021 0.564813 0.419219 0.000000
C301  C     C_R   0.591768 0.609860 0.372516 0.000000
N75   N     N_R   0.627271 0.615856 0.334415 0.000000
C302  C     C_R   0.591830 0.668095 0.297370 0.000000
N76   N     N_R   0.537023 0.695269 0.311792 0.000000
C303  C     C_R   0.539109 0.654061 0.358636 0.000000
C304  C     C_R   0.495664 0.647626 0.387421 0.000000
S38   S     S_3+2 0.610629 0.687873 0.233771 0.000000
O112  O     O_2   0.647027 0.636237 0.218524 0.000000
O113  O     O_2   0.642687 0.723740 0.217518 0.000000
O114  O     O_3   0.559420 0.729891 0.192131 0.000000
H260  H     H_    0.463071 0.550882 0.475911 0.000000
H261  H     H_    0.420029 0.629216 0.448266 0.000000
H262  H     H_    0.461801 0.597552 0.502567 0.000000
H263  H     H_    0.567301 0.526649 0.487659 0.000000
H264  H     H_    0.644278 0.532522 0.431331 0.000000
H265  H     H_    0.454969 0.674382 0.372207 0.000000
H266  H     H_    0.556494 0.768061 0.186190 0.000000
C305  C     C_3   0.351070 0.724542 0.519539 0.000000
C306  C     C_R   0.358029 0.745180 0.464207 0.000000
C307  C     C_R   0.405091 0.751390 0.443148 0.000000
C308  C     C_R   0.414089 0.767088 0.392268 0.000000
C309  C     C_R   0.375805 0.774975 0.363873 0.000000
N77   N     N_R   0.381691 0.780281 0.316022 0.000000
C310  C     C_R   0.330003 0.787966 0.307508 0.000000
N78   N     N_R   0.293903 0.786721 0.348374 0.000000
C311  C     C_R   0.326301 0.775571 0.383454 0.000000
C312  C     C_R   0.317261 0.759387 0.434031 0.000000
S39   S     S_3+2 0.311555 0.798846 0.248614 0.000000
O115  O     O_2   0.337357 0.834676 0.206947 0.000000
O116  O     O_2   0.250993 0.839941 0.234711 0.000000
O117  O     O_3   0.328224 0.740564 0.234470 0.000000
H267  H     H_    0.384487 0.679828 0.537872 0.000000
H268  H     H_    0.311013 0.723370 0.530235 0.000000
H269  H     H_    0.352949 0.754806 0.532262 0.000000
H270  H     H_    0.435914 0.741656 0.466922 0.000000
H271  H     H_    0.452047 0.768552 0.376128 0.000000
H272  H     H_    0.281271 0.754317 0.450334 0.000000
H273  H     H_    0.314411 0.758747 0.199829 0.000000
C313  C     C_3   0.872861 0.870899 0.334458 0.000000
C314  C     C_R   0.911360 0.882682 0.295121 0.000000
C315  C     C_R   0.961836 0.837467 0.292000 0.000000
C316  C     C_R   0.998316 0.849942 0.255168 0.000000
C317  C     C_R   0.979813 0.905954 0.219453 0.000000
N79   N     N_R   0.005043 0.925049 0.176521 0.000000
C318  C     C_R   0.962826 0.981384 0.152423 0.000000
N80   N     N_R   0.913171 0.996054 0.177964 0.000000
C319  C     C_R   0.927899 0.948281 0.220964 0.000000
C320  C     C_R   0.895805 0.939158 0.260915 0.000000
S40   S     S_3+2 0.974460 0.034186 0.099175 0.000000
O118  O     O_2   0.031126 0.004482 0.079790 0.000000
O119  O     O_2   0.982705 0.074844 0.113816 0.000000
O120  O     O_3   0.932382 0.076079 0.047504 0.000000
H274  H     H_    0.898851 0.831884 0.365077 0.000000
H275  H     H_    0.843989 0.863844 0.320862 0.000000
H276  H     H_    0.849569 0.907712 0.346486 0.000000
H277  H     H_    0.973072 0.792726 0.318697 0.000000
H278  H     H_    0.037870 0.816337 0.252099 0.000000
H279  H     H_    0.860848 0.975215 0.266073 0.000000
H280  H     H_    0.895047 0.085609 0.061432 0.000000
C321  C     C_3   0.725983 0.275142 0.265631 0.000000
C322  C     C_R   0.767072 0.229625 0.247339 0.000000
C323  C     C_R   0.765201 0.176933 0.264574 0.000000
C324  C     C_R   0.795636 0.138975 0.241095 0.000000
C325  C     C_R   0.820772 0.158062 0.198018 0.000000
N81   N     N_R   0.841212 0.136086 0.162455 0.000000
C326  C     C_R   0.869029 0.168865 0.132352 0.000000
N82   N     N_R   0.869148 0.204089 0.152071 0.000000
C327  C     C_R   0.833858 0.200769 0.189629 0.000000
C328  C     C_R   0.806324 0.239241 0.212614 0.000000
S41   S     S_3+2 0.873075 0.193770 0.065103 0.000000
O121  O     O_2   0.929947 0.172120 0.041793 0.000000
O122  O     O_2   0.858260 0.259184 0.042927 0.000000
O123  O     O_3   0.829122 0.194024 0.032943 0.000000
H281  H     H_    0.684411 0.287846 0.254671 0.000000
H282  H     H_    0.733179 0.314636 0.248640 0.000000
H283  H     H_    0.728212 0.256950 0.307079 0.000000
H284  H     H_    0.737454 0.167545 0.294378 0.000000
H285  H     H_    0.799874 0.096055 0.255034 0.000000
H286  H     H_    0.810628 0.278531 0.200709 0.000000
H287  H     H_    0.800005 0.235045 0.021045 0.000000
C329  C     C_3   0.219511 0.010609 0.137583 0.000000
C330  C     C_R   0.182270 0.995090 0.124484 0.000000
C331  C     C_R   0.162532 0.960416 0.163097 0.000000
C332  C     C_R   0.129920 0.943714 0.152471 0.000000
C333  C     C_R   0.136133 0.941462 0.107988 0.000000
N83   N     N_R   0.129560 0.902728 0.100163 0.000000
C334  C     C_R   0.153694 0.908993 0.052852 0.000000
N84   N     N_R   0.169612 0.954157 0.031161 0.000000
C335  C     C_R   0.157428 0.972606 0.068706 0.000000
C336  C     C_R   0.171110 0.009328 0.075307 0.000000
S42   S     S_3+2 0.175681 0.854934 0.027911 0.000000
O124  O     O_2   0.134189 0.869593 0.991429 0.000000
O125  O     O_2   0.180215 0.795848 0.068674 0.000000
O126  O     O_3   0.237369 0.837494 0.997729 0.000000
H288  H     H_    0.261733 0.975024 0.142927 0.000000
H289  H     H_    0.208529 0.015226 0.173604 0.000000
H290  H     H_    0.216483 0.052251 0.107581 0.000000
H291  H     H_    0.171125 0.948345 0.201022 0.000000
H292  H     H_    0.107683 0.923508 0.179055 0.000000
H293  H     H_    0.179591 0.041872 0.044164 0.000000
H294  H     H_    0.265074 0.811385 0.025028 0.000000
C337  C     C_3   0.354497 0.982174 0.795667 0.000000
C338  C     C_R   0.296744 0.991771 0.803451 0.000000
C339  C     C_R   0.269672 0.996438 0.766561 0.000000
C340  C     C_R   0.215660 0.006428 0.773211 0.000000
C341  C     C_R   0.191103 0.009479 0.816968 0.000000
N85   N     N_R   0.138110 0.023962 0.827839 0.000000
C342  C     C_R   0.137302 0.015130 0.877266 0.000000
N86   N     N_R   0.186371 0.000116 0.896313 0.000000
C343  C     C_R   0.218769 0.999256 0.855516 0.000000
C344  C     C_R   0.270821 0.994509 0.847892 0.000000
S43   S     S_3+2 0.079532 0.015555 0.912430 0.000000
O127  O     O_2   0.062956 0.973840 0.907677 0.000000
O128  O     O_2   0.031570 0.074850 0.886172 0.000000
O129  O     O_3   0.075269 0.004735 0.973911 0.000000
H295  H     H_    0.379755 0.941943 0.788292 0.000000
H296  H     H_    0.370237 0.976490 0.829797 0.000000
H297  H     H_    0.356799 0.020506 0.763267 0.000000
H298  H     H_    0.290543 0.993279 0.732343 0.000000
H299  H     H_    0.192909 0.010321 0.746079 0.000000
H300  H     H_    0.291478 0.992345 0.875442 0.000000
H301  H     H_    0.039523 0.036945 0.975980 0.000000
C345  C     C_3   0.304454 0.205748 0.867138 0.000000
C346  C     C_R   0.272393 0.171314 0.888211 0.000000
C347  C     C_R   0.296852 0.114119 0.892488 0.000000
C348  C     C_R   0.268817 0.080707 0.913777 0.000000
C349  C     C_R   0.215999 0.105345 0.929545 0.000000
N87   N     N_R   0.182862 0.079222 0.951434 0.000000
C350  C     C_R   0.135312 0.125088 0.958014 0.000000
N88   N     N_R   0.139228 0.175730 0.944726 0.000000
C351  C     C_R   0.190513 0.162371 0.924656 0.000000
C352  C     C_R   0.219313 0.195674 0.904721 0.000000
S44   S     S_3+2 0.069497 0.129522 0.967007 0.000000
O130  O     O_2   0.050238 0.127807 0.923887 0.000000
O131  O     O_2   0.029659 0.192714 0.959188 0.000000
O132  O     O_3   0.048542 0.089888 0.021652 0.000000
H302  H     H_    0.316718 0.209459 0.828266 0.000000
H303  H     H_    0.341756 0.182914 0.890359 0.000000
H304  H     H_    0.279711 0.250369 0.866722 0.000000
H305  H     H_    0.338560 0.094999 0.880130 0.000000
H306  H     H_    0.288903 0.036411 0.917898 0.000000
H307  H     H_    0.204183 0.238014 0.904786 0.000000
H308  H     H_    0.061650 0.093497 0.047729 0.000000
C353  C     C_3   0.822613 0.065327 0.807318 0.000000
C354  C     C_R   0.870597 0.074148 0.808499 0.000000
C355  C     C_R   0.922783 0.028239 0.816851 0.000000
C356  C     C_R   0.967765 0.036975 0.815473 0.000000
C357  C     C_R   0.959990 0.091856 0.803870 0.000000
N89   N     N_R   0.998014 0.111693 0.791575 0.000000
C358  C     C_R   0.966052 0.169373 0.785481 0.000000
N90   N     N_R   0.909359 0.186587 0.787686 0.000000
C359  C     C_R   0.908622 0.135754 0.800003 0.000000
C360  C     C_R   0.863628 0.128712 0.799665 0.000000
S45   S     S_3+2 0.998886 0.209794 0.786491 0.000000
O133  O     O_2   0.049800 0.166941 0.820366 0.000000
O134  O     O_2   0.966545 0.251320 0.813290 0.000000
O135  O     O_3   0.024837 0.246315 0.733086 0.000000
H309  H     H_    0.829562 0.046965 0.779688 0.000000
H310  H     H_    0.784902 0.107369 0.797051 0.000000
H311  H     H_    0.816989 0.034288 0.844259 0.000000
H312  H     H_    0.928037 0.985357 0.825327 0.000000
H313  H     H_    0.007521 0.001895 0.826440 0.000000
H314  H     H_    0.826524 0.166034 0.783376 0.000000
H315  H     H_    0.018964 0.236007 0.707912 0.000000
C361  C     C_3   0.694293 0.471510 0.880572 0.000000
C362  C     C_R   0.729724 0.428340 0.858043 0.000000
C363  C     C_R   0.711486 0.391513 0.856549 0.000000
C364  C     C_R   0.742793 0.352447 0.834225 0.000000
C365  C     C_R   0.792499 0.350634 0.814585 0.000000
N91   N     N_R   0.826983 0.319941 0.787790 0.000000
C366  C     C_R   0.862466 0.344263 0.768606 0.000000
N92   N     N_R   0.854823 0.384740 0.785750 0.000000
C367  C     C_R   0.809562 0.388308 0.814251 0.000000
C368  C     C_R   0.779281 0.426916 0.836626 0.000000
S46   S     S_3+2 0.890153 0.346892 0.709979 0.000000
O136  O     O_2   0.905144 0.287943 0.709687 0.000000
O137  O     O_2   0.944837 0.349888 0.698026 0.000000
O138  O     O_3   0.847452 0.398258 0.659286 0.000000
H316  H     H_    0.654135 0.500338 0.860815 0.000000
H317  H     H_    0.713826 0.498929 0.876883 0.000000
H318  H     H_    0.687927 0.447772 0.920781 0.000000
H319  H     H_    0.672043 0.394105 0.872120 0.000000
H320  H     H_    0.727217 0.326106 0.830945 0.000000
H321  H     H_    0.792396 0.457237 0.835495 0.000000
H322  H     H_    0.810640 0.412647 0.673975 0.000000
C369  C     C_3   0.649292 0.474548 0.686731 0.000000
C370  C     C_R   0.688967 0.430526 0.666264 0.000000
C371  C     C_R   0.684461 0.442064 0.616360 0.000000
C372  C     C_R   0.721024 0.402166 0.596105 0.000000
C373  C     C_R   0.762739 0.352216 0.626338 0.000000
N93   N     N_R   0.801838 0.307387 0.614884 0.000000
C374  C     C_R   0.825988 0.266660 0.660952 0.000000
N94   N     N_R   0.807011 0.286020 0.699567 0.000000
C375  C     C_R   0.766318 0.339996 0.675931 0.000000
C376  C     C_R   0.729601 0.378223 0.696952 0.000000
S47   S     S_3+2 0.858533 0.193398 0.668491 0.000000
O139  O     O_2   0.888773 0.195491 0.619261 0.000000
O140  O     O_2   0.817065 0.174823 0.664400 0.000000
O141  O     O_3   0.906996 0.133279 0.709160 0.000000
H323  H     H_    0.652281 0.516424 0.665259 0.000000
H324  H     H_    0.658557 0.458663 0.726749 0.000000
H325  H     H_    0.607108 0.482023 0.683232 0.000000
H326  H     H_    0.651855 0.482477 0.593166 0.000000
H327  H     H_    0.716849 0.410340 0.557767 0.000000
H328  H     H_    0.732280 0.367515 0.736100 0.000000
H329  H     H_    0.930660 0.149187 0.710057 0.000000
C377  C     C_3   0.081711 0.692746 0.916972 0.000000
C378  C     C_R   0.051967 0.704498 0.961061 0.000000
C379  C     C_R   0.083537 0.680938 0.002632 0.000000
C380  C     C_R   0.058721 0.685822 0.046229 0.000000
C381  C     C_R   0.003296 0.721780 0.044703 0.000000
N95   N     N_R   0.973237 0.734426 0.082595 0.000000
C382  C     C_R   0.922697 0.776941 0.059365 0.000000
N96   N     N_R   0.921833 0.791545 0.008584 0.000000
C383  C     C_R   0.972838 0.752409 0.002028 0.000000
C384  C     C_R   0.995406 0.740274 0.960589 0.000000
S48   S     S_3+2 0.862161 0.804784 0.092608 0.000000
O142  O     O_2   0.900217 0.826315 0.097625 0.000000
O143  O     O_2   0.868932 0.767755 0.149003 0.000000
O144  O     O_3   0.817768 0.875075 0.086266 0.000000
H330  H     H_    0.107865 0.715665 0.901025 0.000000
H331  H     H_    0.053302 0.705273 0.888663 0.000000
H332  H     H_    0.109173 0.645280 0.930185 0.000000
H333  H     H_    0.127450 0.655247 0.001956 0.000000
H334  H     H_    0.083241 0.666450 0.078994 0.000000
H335  H     H_    0.970334 0.760619 0.928598 0.000000
H336  H     H_    0.825485 0.899806 0.052788 0.000000
C385  C     C_3   0.719852 0.993234 0.809678 0.000000
C386  C     C_R   0.780612 0.964529 0.806223 0.000000
C387  C     C_R   0.805895 0.968453 0.760493 0.000000
C388  C     C_R   0.862345 0.945391 0.757162 0.000000
C389  C     C_R   0.893442 0.919264 0.799432 0.000000
N97   N     N_R   0.948731 0.896296 0.805112 0.000000
C390  C     C_R   0.953259 0.874562 0.856336 0.000000
N98   N     N_R   0.904406 0.877381 0.882221 0.000000
C391  C     C_R   0.868212 0.909454 0.844536 0.000000
C392  C     C_R   0.812261 0.932703 0.849006 0.000000
S49   S     S_3+2 0.018275 0.850584 0.880281 0.000000
O145  O     O_2   0.024548 0.905776 0.865153 0.000000
O146  O     O_2   0.063943 0.822643 0.848364 0.000000
O147  O     O_3   0.043742 0.812811 0.939333 0.000000
H337  H     H_    0.707069 0.027059 0.824586 0.000000
H338  H     H_    0.705986 0.959808 0.835388 0.000000
H339  H     H_    0.700915 0.014348 0.772223 0.000000
H340  H     H_    0.781688 0.990241 0.726964 0.000000
H341  H     H_    0.880669 0.946395 0.722114 0.000000
H342  H     H_    0.793365 0.927358 0.884815 0.000000
H343  H     H_    0.010235 0.824920 0.958470 0.000000
C393  C     C_3   0.085228 0.057355 0.198694 0.000000
C394  C     C_R   0.072382 0.106945 0.150151 0.000000
C395  C     C_R   0.111516 0.123318 0.120730 0.000000
C396  C     C_R   0.101131 0.159865 0.070743 0.000000
C397  C     C_R   0.047721 0.190864 0.056042 0.000000
N99   N     N_R   0.028231 0.243793 0.018523 0.000000
C398  C     C_R   0.978225 0.273008 0.038214 0.000000
N100  N     N_R   0.965196 0.237450 0.083122 0.000000
C399  C     C_R   0.008525 0.185833 0.091118 0.000000
C400  C     C_R   0.019321 0.139067 0.135079 0.000000
S50   S     S_3+2 0.942329 0.350018 0.019405 0.000000
O148  O     O_2   0.977514 0.382210 0.995995 0.000000
O149  O     O_2   0.927830 0.360765 0.067263 0.000000
O150  O     O_3   0.881212 0.391847 0.987816 0.000000
H344  H     H_    0.128933 0.035906 0.206883 0.000000
H345  H     H_    0.071200 0.028355 0.196451 0.000000
H346  H     H_    0.063217 0.070401 0.228915 0.000000
H347  H     H_    0.148993 0.110018 0.137344 0.000000
H348  H     H_    0.131125 0.172797 0.047164 0.000000
H349  H     H_    0.987098 0.132146 0.159830 0.000000
H350  H     H_    0.856343 0.413578 0.008176 0.000000
C401  C     C_3   0.125106 0.288944 0.724859 0.000000
C402  C     C_R   0.096900 0.313436 0.762364 0.000000
C403  C     C_R   0.129294 0.301247 0.798975 0.000000
C404  C     C_R   0.105714 0.303183 0.843502 0.000000
C405  C     C_R   0.051442 0.320086 0.848051 0.000000
N101  N     N_R   0.024586 0.308600 0.890977 0.000000
C406  C     C_R   0.970515 0.338730 0.873774 0.000000
N102  N     N_R   0.965217 0.368937 0.822048 0.000000
C407  C     C_R   0.018056 0.349448 0.807991 0.000000
C408  C     C_R   0.040078 0.339862 0.765475 0.000000
S51   S     S_3+2 0.916219 0.322409 0.910272 0.000000
O151  O     O_2   0.934619 0.273857 0.962450 0.000000
O152  O     O_2   0.902302 0.291386 0.887892 0.000000
O153  O     O_3   0.853420 0.373451 0.919122 0.000000
H351  H     H_    0.149374 0.242436 0.747731 0.000000
H352  H     H_    0.153781 0.307298 0.702752 0.000000
H353  H     H_    0.095702 0.294975 0.700576 0.000000
H354  H     H_    0.173398 0.282949 0.795282 0.000000
H355  H     H_    0.127844 0.291119 0.874574 0.000000
H356  H     H_    0.014749 0.348723 0.737427 0.000000
H357  H     H_    0.852378 0.411379 0.895313 0.000000
C409  C     C_3   0.106868 0.527412 0.332528 0.000000
C410  C     C_R   0.103392 0.518755 0.288032 0.000000
C411  C     C_R   0.110949 0.464419 0.294757 0.000000
C412  C     C_R   0.105951 0.454739 0.254972 0.000000
C413  C     C_R   0.095227 0.499696 0.208201 0.000000
N103  N     N_R   0.082698 0.501384 0.166057 0.000000
C414  C     C_R   0.061659 0.560302 0.135824 0.000000
N104  N     N_R   0.061422 0.595261 0.157208 0.000000
C415  C     C_R   0.084396 0.554401 0.202268 0.000000
C416  C     C_R   0.088280 0.564894 0.241417 0.000000
S52   S     S_3+2 0.031258 0.584458 0.078597 0.000000
O154  O     O_2   0.019937 0.535092 0.085007 0.000000
O155  O     O_2   0.073098 0.579969 0.036346 0.000000
O156  O     O_3   0.969289 0.643107 0.055321 0.000000
H358  H     H_    0.076422 0.517175 0.360559 0.000000
H359  H     H_    0.098167 0.573242 0.321499 0.000000
H360  H     H_    0.148621 0.497748 0.349118 0.000000
H361  H     H_    0.118077 0.430275 0.332007 0.000000
H362  H     H_    0.105964 0.414498 0.262491 0.000000
H363  H     H_    0.077022 0.608651 0.235432 0.000000
H364  H     H_    0.949779 0.651768 0.084524 0.000000
C417  C     C_3   0.900559 0.515934 0.968383 0.000000
C418  C     C_R   0.934379 0.485694 0.013807 0.000000
C419  C     C_R   0.987174 0.478759 0.010805 0.000000
C420  C     C_R   0.017005 0.457778 0.052547 0.000000
C421  C     C_R   0.992586 0.445017 0.098258 0.000000
N105  N     N_R   0.006927 0.444656 0.139295 0.000000
C422  C     C_R   0.955206 0.464648 0.160767 0.000000
N106  N     N_R   0.913166 0.469256 0.138770 0.000000
C423  C     C_R   0.938351 0.456769 0.099725 0.000000
C424  C     C_R   0.909824 0.473290 0.059131 0.000000
S53   S     S_3+2 0.937836 0.513083 0.188382 0.000000
O157  O     O_2   0.986841 0.499863 0.214675 0.000000
O158  O     O_2   0.895265 0.509826 0.230110 0.000000
O159  O     O_3   0.914883 0.584097 0.145087 0.000000
H365  H     H_    0.926675 0.520982 0.935120 0.000000
H366  H     H_    0.869162 0.559612 0.966779 0.000000
H367  H     H_    0.879962 0.490612 0.969783 0.000000
H368  H     H_    0.003049 0.496542 0.975422 0.000000
H369  H     H_    0.054413 0.461375 0.047484 0.000000
H370  H     H_    0.866535 0.486439 0.060660 0.000000
H371  H     H_    0.890541 0.608828 0.163028 0.000000
C425  C     C_3   0.998747 0.757444 0.701269 0.000000
C426  C     C_R   0.942899 0.786877 0.685102 0.000000
C427  C     C_R   0.938587 0.821196 0.635786 0.000000
C428  C     C_R   0.900090 0.830196 0.609113 0.000000
C429  C     C_R   0.865343 0.805523 0.632905 0.000000
N107  N     N_R   0.826761 0.809599 0.610450 0.000000
C430  C     C_R   0.804973 0.775848 0.650481 0.000000
N108  N     N_R   0.834523 0.745675 0.695160 0.000000
C431  C     C_R   0.868777 0.770922 0.682148 0.000000
C432  C     C_R   0.905448 0.764785 0.710209 0.000000
S54   S     S_3+2 0.737475 0.783928 0.647817 0.000000
O160  O     O_2   0.705392 0.838992 0.602170 0.000000
O161  O     O_2   0.700678 0.798987 0.690370 0.000000
O162  O     O_3   0.728763 0.728955 0.646611 0.000000
H372  H     H_    0.022821 0.741122 0.673482 0.000000
H373  H     H_    0.005453 0.719070 0.736182 0.000000
H374  H     H_    0.010452 0.790550 0.698190 0.000000
H375  H     H_    0.970232 0.833915 0.616624 0.000000
H376  H     H_    0.903063 0.852296 0.570217 0.000000
H377  H     H_    0.907038 0.740040 0.748872 0.000000
H378  H     H_    0.689627 0.747379 0.637633 0.000000
C433  C     C_3   0.949291 0.923017 0.349628 0.000000
C434  C     C_R   0.961889 0.863901 0.390842 0.000000
C435  C     C_R   0.007689 0.812943 0.390528 0.000000
C436  C     C_R   0.028177 0.764975 0.434831 0.000000
C437  C     C_R   0.999027 0.769057 0.476872 0.000000
N109  N     N_R   0.014708 0.731975 0.524238 0.000000
C438  C     C_R   0.966467 0.752159 0.549326 0.000000
N110  N     N_R   0.922552 0.802786 0.519882 0.000000
C439  C     C_R   0.946449 0.812186 0.474451 0.000000
C440  C     C_R   0.927915 0.860861 0.431484 0.000000
S55   S     S_3+2 0.958748 0.701407 0.606418 0.000000
O163  O     O_2   0.999446 0.641225 0.606783 0.000000
O164  O     O_2   0.904312 0.697819 0.616020 0.000000
O165  O     O_3   0.977308 0.697563 0.658095 0.000000
H379  H     H_    0.966109 0.945965 0.357819 0.000000
H380  H     H_    0.904589 0.950526 0.344866 0.000000
H381  H     H_    0.968722 0.919688 0.314488 0.000000
H382  H     H_    0.030369 0.811199 0.357003 0.000000
H383  H     H_    0.066903 0.727398 0.436450 0.000000
H384  H     H_    0.891867 0.898248 0.430706 0.000000
H385  H     H_    0.017060 0.679514 0.655389 0.000000
C441  C     C_3   0.796942 0.038989 0.353073 0.000000
C442  C     C_R   0.800078 0.039935 0.401112 0.000000
C443  C     C_R   0.789189 0.090899 0.404891 0.000000
C444  C     C_R   0.797694 0.088017 0.450088 0.000000
C445  C     C_R   0.821804 0.033611 0.487979 0.000000
N111  N     N_R   0.842215 0.018130 0.532103 0.000000
C446  C     C_R   0.843004 0.963766 0.559454 0.000000
N112  N     N_R   0.832181 0.941820 0.530971 0.000000
C447  C     C_R   0.819860 0.987703 0.486595 0.000000
C448  C     C_R   0.811514 0.989339 0.443078 0.000000
S56   S     S_3+2 0.823195 0.947042 0.623640 0.000000
O166  O     O_2   0.785638 0.003087 0.632567 0.000000
O167  O     O_2   0.870697 0.918629 0.659451 0.000000
O168  O     O_3   0.788478 0.905605 0.649190 0.000000
H386  H     H_    0.831721 0.045459 0.330407 0.000000
H387  H     H_    0.756756 0.073472 0.335707 0.000000
H388  H     H_    0.800867 0.996144 0.358616 0.000000
H389  H     H_    0.773673 0.132659 0.373256 0.000000
H390  H     H_    0.780668 0.127507 0.456206 0.000000
H391  H     H_    0.815424 0.951499 0.441546 0.000000
H392  H     H_    0.764972 0.918338 0.621339 0.000000
C449  C     C_3   0.014993 0.610672 0.953081 0.000000
C450  C     C_R   0.986121 0.629820 0.907777 0.000000
C451  C     C_R   0.937311 0.626786 0.913530 0.000000
C452  C     C_R   0.910890 0.636920 0.873783 0.000000
C453  C     C_R   0.937418 0.644397 0.829467 0.000000
N113  N     N_R   0.924478 0.642058 0.790067 0.000000
C454  C     C_R   0.975380 0.620978 0.768638 0.000000
N114  N     N_R   0.016147 0.621405 0.788510 0.000000
C455  C     C_R   0.990092 0.636034 0.826661 0.000000
C456  C     C_R   0.013279 0.635945 0.862900 0.000000
S57   S     S_3+2 0.991933 0.566392 0.745558 0.000000
O169  O     O_2   0.950802 0.560112 0.724550 0.000000
O170  O     O_2   0.020172 0.585571 0.696658 0.000000
O171  O     O_3   0.936959 0.633396 0.722217 0.000000
H393  H     H_    0.994042 0.645477 0.967294 0.000000
H394  H     H_    0.058533 0.600156 0.944718 0.000000
H395  H     H_    0.013447 0.570222 0.981757 0.000000
H396  H     H_    0.923207 0.609976 0.950442 0.000000
H397  H     H_    0.874161 0.631753 0.879141 0.000000
H398  H     H_    0.054844 0.629685 0.859678 0.000000
H399  H     H_    0.913267 0.626355 0.707962 0.000000
C457  C     C_3   0.205062 0.410010 0.672803 0.000000
C458  C     C_R   0.164823 0.465807 0.678020 0.000000
C459  C     C_R   0.138943 0.464255 0.723117 0.000000
C460  C     C_R   0.123686 0.510708 0.736496 0.000000
C461  C     C_R   0.126329 0.559779 0.700679 0.000000
N115  N     N_R   0.115680 0.608882 0.705336 0.000000
C462  C     C_R   0.114708 0.645717 0.654992 0.000000
N116  N     N_R   0.117186 0.623427 0.621073 0.000000
C463  C     C_R   0.130581 0.567281 0.651915 0.000000
C464  C     C_R   0.157492 0.519293 0.640415 0.000000
S58   S     S_3+2 0.120786 0.710408 0.633790 0.000000
O172  O     O_2   0.179152 0.702163 0.617241 0.000000
O173  O     O_2   0.110895 0.733299 0.673786 0.000000
O174  O     O_3   0.077008 0.767358 0.586436 0.000000
H400  H     H_    0.184701 0.384341 0.674484 0.000000
H401  H     H_    0.235275 0.383274 0.703955 0.000000
H402  H     H_    0.227587 0.419449 0.637186 0.000000
H403  H     H_    0.138718 0.423527 0.749877 0.000000
H404  H     H_    0.107195 0.511103 0.772367 0.000000
H405  H     H_    0.179191 0.522062 0.606215 0.000000
H406  H     H_    0.046489 0.757753 0.589720 0.000000
C465  C     C_3   0.282949 0.645075 0.733860 0.000000
C466  C     C_R   0.226499 0.684426 0.743976 0.000000
C467  C     C_R   0.214875 0.740041 0.738744 0.000000
C468  C     C_R   0.162528 0.778242 0.746867 0.000000
C469  C     C_R   0.122811 0.759096 0.761386 0.000000
N117  N     N_R   0.068993 0.790014 0.768557 0.000000
C470  C     C_R   0.050205 0.748763 0.781868 0.000000
N118  N     N_R   0.088680 0.695424 0.777340 0.000000
C471  C     C_R   0.134257 0.704031 0.766560 0.000000
C472  C     C_R   0.185732 0.666155 0.757442 0.000000
S59   S     S_3+2 0.979215 0.775323 0.796039 0.000000
O175  O     O_2   0.970336 0.784391 0.843713 0.000000
O176  O     O_2   0.943381 0.745828 0.805633 0.000000
O177  O     O_3   0.942510 0.842801 0.752192 0.000000
H407  H     H_    0.293959 0.666562 0.694628 0.000000
H408  H     H_    0.285262 0.602776 0.739484 0.000000
H409  H     H_    0.312217 0.636601 0.759785 0.000000
H410  H     H_    0.246828 0.754126 0.727174 0.000000
H411  H     H_    0.152969 0.822392 0.740343 0.000000
H412  H     H_    0.193599 0.623812 0.760182 0.000000
H413  H     H_    0.908992 0.841320 0.748337 0.000000
C473  C     C_3   0.241218 0.213792 0.656776 0.000000
C474  C     C_R   0.195727 0.196625 0.671553 0.000000
C475  C     C_R   0.191141 0.161737 0.721007 0.000000
C476  C     C_R   0.148754 0.146250 0.735428 0.000000
C477  C     C_R   0.119366 0.155259 0.698528 0.000000
N119  N     N_R   0.100273 0.118652 0.701793 0.000000
C478  C     C_R   0.103751 0.125805 0.652043 0.000000
N120  N     N_R   0.105986 0.177828 0.618567 0.000000
C479  C     C_R   0.123427 0.189742 0.649376 0.000000
C480  C     C_R   0.159586 0.213402 0.635838 0.000000
S60   S     S_3+2 0.155401 0.059940 0.643731 0.000000
O178  O     O_2   0.153381 0.003435 0.683355 0.000000
O179  O     O_2   0.209707 0.049794 0.659421 0.000000
O180  O     O_3   0.174488 0.048935 0.589476 0.000000
H414  H     H_    0.281007 0.173696 0.664769 0.000000
H415  H     H_    0.238850 0.237825 0.678602 0.000000
H416  H     H_    0.238485 0.242356 0.616250 0.000000
H417  H     H_    0.219337 0.148874 0.748927 0.000000
H418  H     H_    0.143888 0.121534 0.774098 0.000000
H419  H     H_    0.166904 0.234932 0.597429 0.000000
H420  H     H_    0.201213 0.006923 0.600386 0.000000
C481  C     C_3   0.887461 0.305321 0.372349 0.000000
C482  C     C_R   0.918589 0.300312 0.409798 0.000000
C483  C     C_R   0.972153 0.292980 0.402266 0.000000
C484  C     C_R   0.003162 0.280169 0.440224 0.000000
C485  C     C_R   0.979935 0.273397 0.485489 0.000000
N121  N     N_R   0.002533 0.256894 0.529003 0.000000
C486  C     C_R   0.957531 0.262111 0.559866 0.000000
N122  N     N_R   0.909387 0.280206 0.536961 0.000000
C487  C     C_R   0.925893 0.286408 0.490764 0.000000
C488  C     C_R   0.894674 0.298379 0.454619 0.000000
S61   S     S_3+2 0.955501 0.270985 0.614117 0.000000
O181  O     O_2   0.000040 0.286042 0.617511 0.000000
O182  O     O_2   0.962908 0.217215 0.662489 0.000000
O183  O     O_3   0.894481 0.326882 0.617396 0.000000
H421  H     H_    0.870506 0.351022 0.343913 0.000000
H422  H     H_    0.853111 0.294538 0.390579 0.000000
H423  H     H_    0.915008 0.273648 0.355564 0.000000
H424  H     H_    0.991747 0.292689 0.367827 0.000000
H425  H     H_    0.044339 0.273553 0.435317 0.000000
H426  H     H_    0.855219 0.298944 0.462839 0.000000
H427  H     H_    0.878916 0.347425 0.583322 0.000000
C489  C     C_3   0.261302 0.280485 0.468070 0.000000
C490  C     C_R   0.205848 0.317992 0.481694 0.000000
C491  C     C_R   0.190820 0.375838 0.470193 0.000000
C492  C     C_R   0.140524 0.410403 0.484643 0.000000
C493  C     C_R   0.105125 0.386511 0.512229 0.000000
N123  N     N_R   0.053746 0.411202 0.530567 0.000000
C494  C     C_R   0.035173 0.371267 0.538744 0.000000
N124  N     N_R   0.074906 0.319776 0.533993 0.000000
C495  C     C_R   0.118132 0.331506 0.517644 0.000000
C496  C     C_R   0.168671 0.295956 0.504637 0.000000
S62   S     S_3+2 0.964362 0.400751 0.527583 0.000000
O184  O     O_2   0.946490 0.373391 0.504668 0.000000
O185  O     O_2   0.950647 0.459244 0.482878 0.000000
O186  O     O_3   0.917178 0.419607 0.570997 0.000000
H428  H     H_    0.267345 0.300809 0.427171 0.000000
H429  H     H_    0.265719 0.236021 0.478204 0.000000
H430  H     H_    0.292804 0.276824 0.488420 0.000000
H431  H     H_    0.218964 0.394251 0.450388 0.000000
H432  H     H_    0.132859 0.453998 0.474236 0.000000
H433  H     H_    0.180126 0.251198 0.513705 0.000000
H434  H     H_    0.939202 0.398747 0.601894 0.000000
C497  C     C_3   0.940652 0.876552 0.152559 0.000000
C498  C     C_R   0.928048 0.830146 0.187622 0.000000
C499  C     C_R   0.894444 0.833424 0.227692 0.000000
C500  C     C_R   0.886062 0.786724 0.261192 0.000000
C501  C     C_R   0.910976 0.737941 0.251568 0.000000
N125  N     N_R   0.907627 0.687183 0.275805 0.000000
C502  C     C_R   0.944349 0.656034 0.248670 0.000000
N126  N     N_R   0.968985 0.685583 0.209637 0.000000
C503  C     C_R   0.947134 0.735589 0.213897 0.000000
C504  C     C_R   0.955565 0.780483 0.181564 0.000000
S63   S     S_3+2 0.943565 0.597537 0.247348 0.000000
O187  O     O_2   0.987322 0.537210 0.279324 0.000000
O188  O     O_2   0.964276 0.603518 0.194513 0.000000
O189  O     O_3   0.882747 0.596515 0.248775 0.000000
H435  H     H_    0.936215 0.883482 0.114047 0.000000
H436  H     H_    0.983186 0.861734 0.159479 0.000000
H437  H     H_    0.914354 0.914159 0.161177 0.000000
H438  H     H_    0.876190 0.871344 0.234593 0.000000
H439  H     H_    0.864595 0.789125 0.294343 0.000000
H440  H     H_    0.976646 0.780015 0.148021 0.000000
H441  H     H_    0.855513 0.636184 0.246296 0.000000
C505  C     C_3   0.987691 0.439236 0.377679 0.000000
C506  C     C_R   0.928860 0.477521 0.364949 0.000000
C507  C     C_R   0.897691 0.453907 0.360708 0.000000
C508  C     C_R   0.842357 0.487099 0.351427 0.000000
C509  C     C_R   0.819692 0.543585 0.347483 0.000000
N127  N     N_R   0.766373 0.580471 0.344625 0.000000
C510  C     C_R   0.766492 0.630846 0.340281 0.000000
N128  N     N_R   0.818960 0.625638 0.340169 0.000000
C511  C     C_R   0.850456 0.568719 0.347495 0.000000
C512  C     C_R   0.905537 0.535801 0.357616 0.000000
S64   S     S_3+2 0.704080 0.688226 0.349543 0.000000
O190  O     O_2   0.667678 0.659880 0.384017 0.000000
O191  O     O_2   0.667153 0.730634 0.302904 0.000000
O192  O     O_3   0.703091 0.729512 0.377886 0.000000
H442  H     H_    0.991152 0.401208 0.413226 0.000000
H443  H     H_    0.006700 0.463205 0.382303 0.000000
H444  H     H_    0.008604 0.423921 0.347383 0.000000
H445  H     H_    0.916260 0.408647 0.366774 0.000000
H446  H     H_    0.818020 0.467909 0.349715 0.000000
H447  H     H_    0.930524 0.554575 0.358313 0.000000
H448  H     H_    0.675026 0.727429 0.404243 0.000000
C513  C     C_3   0.122106 0.593004 0.406732 0.000000
C514  C     C_R   0.065071 0.603311 0.404370 0.000000
C515  C     C_R   0.030926 0.652983 0.367412 0.000000
C516  C     C_R   0.981727 0.658365 0.358799 0.000000
C517  C     C_R   0.964148 0.617860 0.392115 0.000000
N129  N     N_R   0.913907 0.621829 0.395488 0.000000
C518  C     C_R   0.913710 0.580340 0.441931 0.000000
N130  N     N_R   0.962757 0.550557 0.468632 0.000000
C519  C     C_R   0.993530 0.574618 0.433773 0.000000
C520  C     C_R   0.045510 0.564580 0.438490 0.000000
S65   S     S_3+2 0.850097 0.579274 0.465354 0.000000
O193  O     O_2   0.821488 0.629809 0.482197 0.000000
O194  O     O_2   0.852305 0.526839 0.513321 0.000000
O195  O     O_3   0.797249 0.596847 0.432722 0.000000
H449  H     H_    0.147251 0.546625 0.431023 0.000000
H450  H     H_    0.121941 0.623436 0.420495 0.000000
H451  H     H_    0.139911 0.601563 0.368645 0.000000
H452  H     H_    0.043233 0.687194 0.344884 0.000000
H453  H     H_    0.954629 0.698752 0.332201 0.000000
H454  H     H_    0.069209 0.529036 0.468964 0.000000
H455  H     H_    0.765168 0.623525 0.445593 0.000000
C521  C     C_3   0.656154 0.158953 0.595648 0.000000
C522  C     C_R   0.701451 0.175688 0.585816 0.000000
C523  C     C_R   0.691219 0.227267 0.588787 0.000000
C524  C     C_R   0.731985 0.245086 0.578363 0.000000
C525  C     C_R   0.782705 0.209619 0.565919 0.000000
N131  N     N_R   0.826576 0.220906 0.550432 0.000000
C526  C     C_R   0.864360 0.170916 0.542336 0.000000
N132  N     N_R   0.845968 0.130356 0.552433 0.000000
C527  C     C_R   0.793504 0.157445 0.565268 0.000000
C528  C     C_R   0.753133 0.140386 0.573402 0.000000
S66   S     S_3+2 0.932886 0.152546 0.524215 0.000000
O196  O     O_2   0.965185 0.166957 0.546825 0.000000
O197  O     O_2   0.943363 0.177661 0.467962 0.000000
O198  O     O_3   0.968728 0.079028 0.542483 0.000000
H456  H     H_    0.640790 0.153709 0.634230 0.000000
H457  H     H_    0.670986 0.116999 0.591833 0.000000
H458  H     H_    0.622370 0.193924 0.568397 0.000000
H459  H     H_    0.650643 0.254429 0.598252 0.000000
H460  H     H_    0.723830 0.286097 0.578861 0.000000
H461  H     H_    0.761208 0.101897 0.568562 0.000000
H462  H     H_    0.968256 0.062769 0.579002 0.000000
C529  C     C_3   0.755501 0.605658 0.565665 0.000000
C530  C     C_R   0.803021 0.561620 0.599729 0.000000
C531  C     C_R   0.791682 0.530656 0.647450 0.000000
C532  C     C_R   0.833431 0.493411 0.681187 0.000000
C533  C     C_R   0.885659 0.480596 0.665236 0.000000
N133  N     N_R   0.928732 0.452285 0.695103 0.000000
C534  C     C_R   0.969633 0.458279 0.659975 0.000000
N134  N     N_R   0.953329 0.483717 0.610111 0.000000
C535  C     C_R   0.898491 0.502420 0.616468 0.000000
C536  C     C_R   0.857402 0.551057 0.585721 0.000000
S67   S     S_3+2 0.027228 0.460082 0.674845 0.000000
O199  O     O_2   0.029422 0.451149 0.729121 0.000000
O200  O     O_2   0.026753 0.520192 0.646315 0.000000
O201  O     O_3   0.089488 0.412616 0.662830 0.000000
H463  H     H_    0.753476 0.589538 0.538792 0.000000
H464  H     H_    0.760042 0.645999 0.546324 0.000000
H465  H     H_    0.716791 0.614707 0.587114 0.000000
H466  H     H_    0.750183 0.538229 0.659540 0.000000
H467  H     H_    0.825144 0.473485 0.718990 0.000000
H468  H     H_    0.869188 0.579645 0.553258 0.000000
H469  H     H_    0.079651 0.393593 0.647837 0.000000
C537  C     C_3   0.261772 0.463056 0.500395 0.000000
C538  C     C_R   0.207736 0.475760 0.525721 0.000000
C539  C     C_R   0.193467 0.430436 0.552496 0.000000
C540  C     C_R   0.139308 0.443363 0.564675 0.000000
C541  C     C_R   0.102415 0.500970 0.553509 0.000000
N135  N     N_R   0.047695 0.526047 0.549146 0.000000
C542  C     C_R   0.032226 0.583434 0.539558 0.000000
N136  N     N_R   0.076798 0.594711 0.536629 0.000000
C543  C     C_R   0.119322 0.542519 0.540264 0.000000
C544  C     C_R   0.170199 0.532579 0.519809 0.000000
S68   S     S_3+2 0.959284 0.633471 0.533251 0.000000
O202  O     O_2   0.932058 0.630948 0.496148 0.000000
O203  O     O_2   0.944470 0.698426 0.507564 0.000000
O204  O     O_3   0.915854 0.625506 0.583093 0.000000
H470  H     H_    0.294942 0.433949 0.528992 0.000000
H471  H     H_    0.264930 0.504300 0.476206 0.000000
H472  H     H_    0.265868 0.440521 0.476537 0.000000
H473  H     H_    0.222922 0.385874 0.558032 0.000000
H474  H     H_    0.126739 0.409183 0.579042 0.000000
H475  H     H_    0.177064 0.569055 0.494020 0.000000
H476  H     H_    0.935751 0.585197 0.607862 0.000000

loop_
_geom_bond_atom_site_label_1
_geom_bond_atom_site_label_2
_geom_bond_distance
_geom_bond_site_symmetry_2
_ccdc_geom_bond_type
Zn1   N1    2.120 .      S
Zn1   N70   2.166 .      S
Zn1   N108  2.175 .      S
Zn1   N113  2.112 .      S
Zn2   N4    2.079 .      S
Zn2   N17   2.100 .      S
Zn2   N79   2.214 .      S
Zn2   N83   2.188 .      S
Zn3   N5    2.075 1_545  S
Zn3   N85   2.120 .      S
Zn3   N89   2.123 1_455  S
Zn3   N119  2.171 .      S
Zn4   N9    2.112 .      S
Zn4   N21   2.076 .      S
Zn4   N82   1.971 .      S
Zn4   N100  2.082 .      S
Zn5   N8    2.124 1_455  S
Zn5   N10   2.145 .      S
Zn5   N12   2.092 1_545  S
Zn5   N60   2.072 .      S
Zn6   N13   2.194 .      S
Zn6   N16   2.174 .      S
Zn6   N75   2.239 .      S
Zn6   N127  2.062 .      S
Zn7   N11   2.190 .      S
Zn7   N18   2.127 .      S
Zn7   N19   2.170 .      S
Zn7   N78   2.232 .      S
Zn8   N15   2.126 .      S
Zn8   N22   2.103 .      S
Zn8   N73   2.116 .      S
Zn8   N106  2.131 .      S
Zn9   N3    2.231 .      S
Zn9   N95   2.076 1_455  S
Zn9   N104  2.141 .      S
Zn9   N126  2.081 1_455  S
Zn10  N6    2.123 .      S
Zn10  N24   2.076 1_455  S
Zn10  N97   2.170 1_455  S
Zn10  N117  2.208 .      S
Zn11  N26   2.179 .      S
Zn11  N28   2.174 .      S
Zn11  N29   2.161 1_554  S
Zn11  N31   2.122 .      S
Zn12  N25   2.291 .      S
Zn12  N34   2.199 1_554  S
Zn12  N35   2.207 .      S
Zn12  N38   2.195 1_554  S
Zn13  N27   2.218 .      S
Zn13  N40   2.327 1_545  S
Zn13  N42   2.193 .      S
Zn13  N43   2.074 1_545  S
Zn14  N30   2.189 .      S
Zn14  N46   2.092 .      S
Zn14  N47   2.159 1_556  S
Zn14  N50   2.206 .      S
Zn15  N32   2.097 .      S
Zn15  N51   2.106 1_556  S
Zn15  N53   2.134 .      S
Zn15  N56   2.087 .      S
Zn16  N41   2.199 .      S
Zn16  N58   2.167 .      S
Zn16  N59   2.082 .      S
Zn16  N61   2.186 .      S
Zn17  N44   2.155 .      S
Zn17  N63   2.167 .      S
Zn17  N66   2.140 .      S
Zn17  N68   2.066 .      S
Zn18  N33   2.247 .      S
Zn18  N69   2.093 .      S
Zn18  N71   2.080 .      S
Zn18  N74   2.077 1_556  S
Zn19  N36   2.201 .      S
Zn19  N39   2.229 .      S
Zn19  N76   2.286 .      S
Zn19  N77   2.240 .      S
Zn20  N52   2.164 .      S
Zn20  N64   2.279 .      S
Zn20  N80   2.219 1_545  S
Zn20  N81   2.106 .      S
Zn21  N37   2.214 .      S
Zn21  N84   2.156 1_556  S
Zn21  N86   2.137 1_565  S
Zn21  N87   2.111 1_565  S
Zn22  N54   2.174 .      S
Zn22  N90   2.116 .      S
Zn22  N91   2.035 .      S
Zn22  N94   2.135 .      S
Zn23  N55   2.089 .      S
Zn23  N72   2.089 .      S
Zn23  N96   2.118 1_556  S
Zn23  N98   2.101 .      S
Zn24  N45   2.056 .      S
Zn24  N88   2.130 .      S
Zn24  N99   2.112 1_556  S
Zn24  N101  2.144 .      S
Zn25  N48   2.146 .      S
Zn25  N62   2.159 .      S
Zn25  N103  2.104 .      S
Zn25  N105  2.280 .      S
Zn26  N67   2.134 .      S
Zn26  N107  2.065 .      S
Zn26  N110  2.230 .      S
Zn26  N112  2.203 .      S
Zn27  N49   2.312 .      S
Zn27  N114  2.103 .      S
Zn27  N115  2.159 .      S
Zn27  N118  2.256 .      S
Zn28  N57   2.205 .      S
Zn28  N120  2.176 .      S
Zn28  N121  2.113 .      S
Zn28  N124  2.092 .      S
Zn29  N65   2.059 .      S
Zn29  N125  2.073 .      S
Zn29  N128  2.107 .      S
Zn29  N129  1.998 .      S
Zn30  N14   2.240 .      S
Zn30  N93   2.129 .      S
Zn30  N122  2.091 .      S
Zn30  N131  2.136 .      S
Zn31  N2    2.161 .      S
Zn31  N92   2.068 .      S
Zn31  N102  2.110 .      S
Zn31  N133  2.124 .      S
Zn32  N123  2.164 .      S
Zn32  N130  2.143 1_455  S
Zn32  N134  2.211 1_455  S
Zn32  N135  2.042 .      S
Zn33  N7    2.168 .      S
Zn33  N23   2.063 1_545  S
Zn33  N111  2.117 .      S
Zn33  N132  2.135 .      S
Zn34  N20   2.238 .      S
Zn34  N109  2.144 .      S
Zn34  N116  2.166 .      S
Zn34  N136  2.146 .      S
C1    C2    1.489 .      S
C1    H1    1.109 .      S
C1    H2    1.109 .      S
C1    H3    1.109 .      S
C3    H4    1.081 .      S
C4    H5    1.078 .      S
C6    S1    1.752 .      S
C8    H6    1.070 .      S
S1    O3    1.703 .      S
O3    H7    0.984 .      S
C9    C10   1.452 1_655  S
C9    H8    1.079 1_654  S
C9    H9    1.079 .      S
C9    H10   1.080 .      S
C10   C9    1.452 1_455  S
C11   H11   1.064 1_554  S
C12   H12   1.040 .      S
C14   S2    1.776 .      S
C16   H13   1.060 .      S
S2    O6    1.716 .      S
O6    H14   0.990 .      S
H8    C9    1.079 1_456  S
H11   C11   1.064 1_556  S
C17   C18   1.492 .      S
C17   H15   1.083 .      S
C17   H16   1.108 .      S
C17   H17   1.104 .      S
C19   H18   1.075 .      S
C20   H19   1.066 .      S
N5    Zn3   2.075 1_565  S
C22   S3    1.801 .      S
C24   H20   1.074 .      S
S3    O9    1.715 .      S
O9    H21   0.990 .      S
C25   C26   1.472 .      S
C25   H22   1.097 .      S
C25   H23   1.099 .      S
C25   H24   1.101 .      S
C27   H25   1.080 .      S
C28   H26   1.055 .      S
C30   S4    1.796 1_645  S
N8    Zn5   2.124 1_655  S
C32   H27   1.065 .      S
S4    C30   1.796 1_465  S
S4    O12   1.707 .      S
O12   H28   0.989 .      S
C33   C34   1.466 .      S
C33   H29   1.103 .      S
C33   H30   1.095 .      S
C33   H31   1.093 .      S
C35   H32   1.073 .      S
C36   H33   1.070 1_455  S
C38   S5    1.789 .      S
C40   H34   1.071 .      S
S5    O15   1.707 .      S
O15   H35   0.989 .      S
H33   C36   1.070 1_655  S
C41   C42   1.473 .      S
C41   H36   1.103 .      S
C41   H37   1.091 .      S
C41   H38   1.106 .      S
C43   H39   1.067 .      S
C44   H40   1.053 .      S
C46   S6    1.768 .      S
N12   Zn5   2.092 1_565  S
C48   H41   1.063 1_465  S
S6    O18   1.694 1_565  S
O18   S6    1.694 1_545  S
O18   H42   0.986 .      S
H41   C48   1.063 1_645  S
C49   C50   1.489 .      S
C49   H43   1.109 .      S
C49   H44   1.109 .      S
C49   H45   1.109 .      S
C51   H46   1.081 .      S
C52   H47   1.081 .      S
C54   S7    1.780 .      S
C56   H48   1.057 .      S
S7    O21   1.710 .      S
O21   H49   0.990 .      S
C57   C58   1.436 .      S
C57   H50   1.108 .      S
C57   H51   1.096 .      S
C57   H52   1.095 .      S
C59   H53   1.072 .      S
C60   H54   1.066 .      S
C62   S8    1.784 .      S
C64   H55   1.067 .      S
S8    O24   1.707 .      S
O24   H56   0.987 .      S
C65   C66   1.488 .      S
C65   H57   1.109 .      S
C65   H58   1.109 .      S
C65   H59   1.107 .      S
C67   H60   1.081 .      S
C68   H61   1.078 .      S
C70   S9    1.767 .      S
C72   H62   1.066 .      S
S9    O27   1.657 .      S
O27   H63   0.987 .      S
C73   C74   1.488 .      S
C73   H64   1.109 .      S
C73   H65   1.109 .      S
C73   H66   1.109 .      S
C75   H67   1.080 .      S
C76   H68   1.078 .      S
C78   S10   1.803 .      S
C80   H69   1.075 .      S
S10   O30   1.700 .      S
O30   H70   0.982 .      S
C81   C82   1.487 1_556  S
C81   H71   1.107 .      S
C81   H72   1.108 .      S
C81   H73   1.109 1_556  S
C82   C81   1.487 1_554  S
C83   H74   1.081 .      S
C84   H75   1.068 .      S
C86   S11   1.737 .      S
C88   H76   1.062 .      S
S11   O33   1.698 .      S
O33   H77   0.980 .      S
H73   C81   1.109 1_554  S
C89   C90   1.490 .      S
C89   H78   1.106 .      S
C89   H79   1.109 .      S
C89   H80   1.105 .      S
C91   H81   1.075 .      S
C92   H82   1.066 .      S
N23   Zn33  2.063 1_565  S
C94   S12   1.767 1_565  S
N24   Zn10  2.076 1_655  S
C96   H83   1.065 .      S
S12   C94   1.767 1_545  S
S12   O36   1.715 .      S
O36   H84   0.986 .      S
C97   C98   1.487 .      S
C97   H85   1.104 .      S
C97   H86   1.092 .      S
C97   H87   1.103 .      S
C99   H88   1.057 .      S
C100  H89   1.057 .      S
C102  S13   1.778 1_554  S
C104  H90   1.062 .      S
S13   C102  1.778 1_556  S
S13   O39   1.712 .      S
O39   H91   0.990 .      S
C105  C106  1.487 .      S
C105  H92   1.109 .      S
C105  H93   1.108 .      S
C105  H94   1.108 .      S
C107  H95   1.080 .      S
C108  H96   1.081 .      S
C110  S14   1.663 .      S
C112  H97   1.080 .      S
S14   O42   1.683 .      S
O42   H98   0.987 .      S
C113  C114  1.487 .      S
C113  H99   1.109 .      S
C113  H100  1.106 .      S
C113  H101  1.109 .      S
C115  H102  1.081 .      S
C116  H103  1.080 .      S
N29   Zn11  2.161 1_556  S
C118  S15   1.752 .      S
C120  H104  1.075 .      S
S15   O45   1.712 .      S
O45   H105  0.990 .      S
C121  C122  1.468 .      S
C121  H106  1.093 .      S
C121  H107  1.082 .      S
C121  H108  1.093 .      S
C123  H109  1.070 .      S
C124  H110  1.042 .      S
C126  S16   1.788 .      S
C128  H111  1.075 .      S
S16   O48   1.716 .      S
O48   H112  0.990 .      S
C129  C130  1.485 .      S
C129  H113  1.109 1_565  S
C129  H114  1.109 1_565  S
C129  H115  1.107 .      S
C131  H116  1.081 .      S
C132  H117  1.074 .      S
C134  S17   1.786 .      S
N34   Zn12  2.199 1_556  S
C136  H118  1.081 .      S
S17   O51   1.703 .      S
O51   H119  0.990 .      S
H113  C129  1.109 1_545  S
H114  C129  1.109 1_545  S
C137  C138  1.487 .      S
C137  H120  1.109 .      S
C137  H121  1.108 .      S
C137  H122  1.109 .      S
C139  H123  1.081 .      S
C140  H124  1.077 .      S
C142  S18   1.669 .      S
C144  H125  1.081 .      S
S18   O54   1.691 .      S
O54   H126  0.985 .      S
C145  C146  1.488 .      S
C145  H127  1.109 .      S
C145  H128  1.109 .      S
C145  H129  1.109 .      S
C147  H130  1.081 .      S
C148  H131  1.078 .      S
C150  S19   1.712 .      S
N38   Zn12  2.195 1_556  S
C152  H132  1.072 .      S
S19   O57   1.690 .      S
O57   H133  0.977 .      S
C153  C154  1.456 .      S
C153  H134  1.105 .      S
C153  H135  1.104 .      S
C153  H136  1.105 .      S
C155  H137  1.075 .      S
C156  H138  1.069 .      S
C158  S20   1.789 .      S
N40   Zn13  2.327 1_565  S
C160  H139  1.059 1_565  S
S20   O60   1.706 .      S
O60   H140  0.984 .      S
H139  C160  1.059 1_545  S
C161  C162  1.485 .      S
C161  H141  1.107 .      S
C161  H142  1.103 .      S
C161  H143  1.108 .      S
C163  H144  1.080 .      S
C164  H145  1.061 .      S
C166  S21   1.780 .      S
C168  H146  1.058 .      S
S21   O63   1.708 .      S
O63   H147  0.989 1_545  S
H147  O63   0.989 1_565  S
C169  C170  1.489 .      S
C169  H148  1.109 .      S
C169  H149  1.109 .      S
C169  H150  1.109 .      S
C171  H151  1.081 .      S
C172  H152  1.080 .      S
N43   Zn13  2.074 1_565  S
C174  S22   1.781 1_565  S
C176  H153  1.067 .      S
S22   C174  1.781 1_545  S
S22   O66   1.712 .      S
O66   H154  0.990 .      S
C177  C178  1.401 .      S
C177  H155  1.101 .      S
C177  H156  1.106 .      S
C177  H157  1.092 .      S
C179  H158  1.045 1_455  S
C180  H159  1.051 .      S
C182  S23   1.753 1_556  S
C184  H160  1.071 .      S
S23   C182  1.753 1_554  S
S23   O69   1.707 .      S
O69   H161  0.989 1_554  S
H158  C179  1.045 1_655  S
H161  O69   0.989 1_556  S
C185  C186  1.488 .      S
C185  H162  1.109 .      S
C185  H163  1.109 .      S
C185  H164  1.109 .      S
C187  H165  1.081 .      S
C188  H166  1.075 .      S
N47   Zn14  2.159 1_554  S
C190  S24   1.764 .      S
C192  H167  1.073 .      S
S24   O72   1.696 .      S
O72   H168  0.980 .      S
C193  C194  1.487 .      S
C193  H169  1.109 .      S
C193  H170  1.108 .      S
C193  H171  1.109 .      S
C195  H172  1.081 .      S
C196  H173  1.055 .      S
C198  S25   1.789 .      S
C200  H174  1.072 .      S
S25   O75   1.714 .      S
O75   H175  0.990 .      S
C201  C202  1.488 .      S
C201  H176  1.109 .      S
C201  H177  1.109 .      S
C201  H178  1.109 .      S
C203  H179  1.081 .      S
C204  H180  1.078 1_554  S
N51   Zn15  2.106 1_554  S
C206  S26   1.765 .      S
C208  H181  1.071 .      S
S26   O78   1.675 1_545  S
O78   S26   1.675 1_565  S
O78   H182  0.986 .      S
H180  C204  1.078 1_556  S
C209  C210  1.488 .      S
C209  H183  1.109 .      S
C209  H184  1.109 .      S
C209  H185  1.109 .      S
C211  H186  1.081 .      S
C212  H187  1.075 .      S
C214  S27   1.794 .      S
C216  H188  1.068 .      S
S27   O81   1.710 .      S
O81   H189  0.990 .      S
C217  C218  1.465 .      S
C217  H190  1.106 .      S
C217  H191  1.099 .      S
C217  H192  1.080 .      S
C219  H193  1.075 .      S
C220  H194  1.069 .      S
C222  S28   1.789 .      S
C224  H195  1.051 .      S
S28   O84   1.705 1_556  S
O84   S28   1.705 1_554  S
O84   H196  0.983 .      S
C225  C226  1.486 1_565  S
C225  H197  1.109 .      S
C225  H198  1.107 .      S
C225  H199  1.109 .      S
C226  C225  1.486 1_545  S
C227  H200  1.080 .      S
C228  H201  1.072 .      S
C230  S29   1.779 .      S
C232  H202  1.067 .      S
S29   O87   1.708 .      S
O87   H203  0.990 .      S
C233  C234  1.479 .      S
C233  H204  1.109 .      S
C233  H205  1.102 .      S
C233  H206  1.109 .      S
C235  H207  1.081 .      S
C236  H208  1.055 .      S
C238  S30   1.749 .      S
C240  H209  1.062 .      S
S30   O90   1.700 .      S
O90   H210  0.985 .      S
C241  C242  1.449 1_655  S
C241  H211  1.103 .      S
C241  H212  1.082 .      S
C241  H213  1.080 .      S
C242  C241  1.449 1_455  S
C243  H214  1.075 .      S
C244  H215  1.042 .      S
C246  S31   1.795 .      S
C248  H216  1.045 .      S
S31   O93   1.713 .      S
O93   H217  0.990 .      S
C249  C250  1.488 .      S
C249  H218  1.108 .      S
C249  H219  1.108 .      S
C249  H220  1.109 .      S
C251  H221  1.081 .      S
C252  H222  1.079 .      S
C254  S32   1.704 .      S
C256  H223  1.072 .      S
S32   O96   1.715 1_565  S
O96   S32   1.715 1_545  S
O96   H224  0.988 .      S
C257  C258  1.465 .      S
C257  H225  1.107 .      S
C257  H226  1.093 .      S
C257  H227  1.099 .      S
C259  H228  1.054 .      S
C260  H229  1.077 .      S
C262  S33   1.793 .      S
C264  H230  1.052 .      S
S33   O99   1.700 .      S
O99   H231  0.987 .      S
C265  C266  1.487 .      S
C265  H232  1.107 .      S
C265  H233  1.108 .      S
C265  H234  1.108 .      S
C267  H235  1.075 .      S
C268  H236  1.074 .      S
C270  S34   1.804 .      S
C272  H237  1.078 .      S
S34   O102  1.713 1_565  S
O102  S34   1.713 1_545  S
O102  H238  0.990 .      S
C273  C274  1.485 .      S
C273  H239  1.109 .      S
C273  H240  1.106 .      S
C273  H241  1.109 .      S
C275  H242  1.080 .      S
C276  H243  1.078 .      S
C278  S35   1.788 .      S
C280  H244  1.062 .      S
S35   O105  1.716 .      S
O105  H245  0.990 .      S
C281  C282  1.444 .      S
C281  H246  1.109 .      S
C281  H247  1.094 .      S
C281  H248  1.103 .      S
C283  H249  1.071 .      S
C284  H250  1.056 .      S
C286  S36   1.755 .      S
C288  H251  1.060 .      S
S36   O108  1.711 .      S
O108  H252  0.989 .      S
C289  C290  1.487 .      S
C289  H253  1.109 .      S
C289  H254  1.107 .      S
C289  H255  1.108 .      S
C291  H256  1.081 .      S
C292  H257  1.079 .      S
C294  S37   1.776 .      S
N74   Zn18  2.077 1_554  S
C296  H258  1.078 1_554  S
S37   O111  1.703 .      S
O111  H259  0.984 .      S
H258  C296  1.078 1_556  S
C297  C298  1.488 .      S
C297  H260  1.109 .      S
C297  H261  1.108 .      S
C297  H262  1.109 .      S
C299  H263  1.081 .      S
C300  H264  1.073 .      S
C302  S38   1.761 .      S
C304  H265  1.070 .      S
S38   O114  1.666 .      S
O114  H266  0.982 .      S
C305  C306  1.488 .      S
C305  H267  1.109 .      S
C305  H268  1.108 .      S
C305  H269  1.109 .      S
C307  H270  1.081 .      S
C308  H271  1.079 .      S
C310  S39   1.784 .      S
C312  H272  1.067 .      S
S39   O117  1.712 .      S
O117  H273  0.990 .      S
C313  C314  1.453 .      S
C313  H274  1.089 .      S
C313  H275  1.104 .      S
C313  H276  1.106 .      S
C315  H277  1.080 .      S
C316  H278  1.073 1_655  S
C318  S40   1.736 1_565  S
N80   Zn20  2.219 1_565  S
C320  H279  1.064 .      S
S40   C318  1.736 1_545  S
S40   O120  1.714 .      S
O120  H280  0.987 .      S
H278  C316  1.073 1_455  S
C321  C322  1.487 .      S
C321  H281  1.109 .      S
C321  H282  1.108 .      S
C321  H283  1.109 .      S
C323  H284  1.077 .      S
C324  H285  1.051 .      S
C326  S41   1.803 .      S
C328  H286  1.072 .      S
S41   O123  1.703 .      S
O123  H287  0.990 .      S
C329  C330  1.481 1_545  S
C329  H288  1.102 1_545  S
C329  H289  1.101 .      S
C329  H290  1.096 .      S
C330  C329  1.481 1_565  S
C331  H291  1.068 .      S
C332  H292  1.038 .      S
C334  S42   1.789 .      S
N84   Zn21  2.156 1_554  S
C336  H293  1.063 .      S
S42   O126  1.713 1_554  S
O126  S42   1.713 1_556  S
O126  H294  0.990 1_556  S
H288  C329  1.102 1_565  S
H294  O126  0.990 1_554  S
C337  C338  1.482 .      S
C337  H295  1.109 .      S
C337  H296  1.107 .      S
C337  H297  1.109 1_565  S
C339  H298  1.081 .      S
C340  H299  1.066 .      S
C342  S43   1.725 .      S
N86   Zn21  2.137 1_545  S
C344  H300  1.063 .      S
S43   O129  1.705 .      S
O129  H301  0.987 .      S
H297  C337  1.109 1_545  S
C345  C346  1.490 .      S
C345  H302  1.109 .      S
C345  H303  1.109 .      S
C345  H304  1.107 .      S
C347  H305  1.081 .      S
C348  H306  1.059 .      S
N87   Zn21  2.111 1_545  S
C350  S44   1.748 .      S
C352  H307  1.066 .      S
S44   O132  1.694 1_556  S
O132  S44   1.694 1_554  S
O132  H308  0.987 .      S
C353  C354  1.486 .      S
C353  H309  1.098 .      S
C353  H310  1.104 .      S
C353  H311  1.101 .      S
C355  H312  1.068 1_545  S
C356  H313  1.058 1_655  S
N89   Zn3   2.123 1_655  S
C358  S45   1.796 .      S
C360  H314  1.058 .      S
S45   O135  1.706 1_655  S
O135  S45   1.706 1_455  S
O135  H315  0.985 .      S
H312  C355  1.068 1_565  S
H313  C356  1.058 1_455  S
C361  C362  1.487 .      S
C361  H316  1.109 .      S
C361  H317  1.108 .      S
C361  H318  1.109 .      S
C363  H319  1.081 .      S
C364  H320  1.076 .      S
C366  S46   1.740 .      S
C368  H321  1.074 .      S
S46   O138  1.714 .      S
O138  H322  0.988 .      S
C369  C370  1.488 .      S
C369  H323  1.109 .      S
C369  H324  1.109 .      S
C369  H325  1.109 .      S
C371  H326  1.081 .      S
C372  H327  1.080 .      S
C374  S47   1.746 .      S
C376  H328  1.076 .      S
S47   O141  1.679 .      S
O141  H329  0.974 .      S
C377  C378  1.480 .      S
C377  H330  1.106 .      S
C377  H331  1.098 .      S
C377  H332  1.102 .      S
C379  H333  1.081 .      S
C380  H334  1.077 .      S
N95   Zn9   2.076 1_655  S
C382  S48   1.777 .      S
N96   Zn23  2.118 1_554  S
C384  H335  1.063 .      S
S48   O144  1.710 .      S
O144  H336  0.984 .      S
C385  C386  1.486 .      S
C385  H337  1.109 1_565  S
C385  H338  1.106 .      S
C385  H339  1.109 1_565  S
C387  H340  1.079 .      S
C388  H341  1.056 .      S
N97   Zn10  2.170 1_655  S
C390  S49   1.781 1_655  S
C392  H342  1.066 .      S
S49   C390  1.781 1_455  S
S49   O147  1.690 .      S
O147  H343  0.978 .      S
H337  C385  1.109 1_545  S
H339  C385  1.109 1_545  S
C393  C394  1.457 .      S
C393  H344  1.090 .      S
C393  H345  1.100 .      S
C393  H346  1.081 .      S
C395  H347  1.071 .      S
C396  H348  1.073 .      S
N99   Zn24  2.112 1_554  S
C398  S50   1.768 .      S
C400  H349  1.074 1_455  S
S50   O150  1.708 1_554  S
O150  S50   1.708 1_556  S
O150  H350  0.986 1_556  S
H349  C400  1.074 1_655  S
H350  O150  0.986 1_554  S
C401  C402  1.464 .      S
C401  H351  1.093 .      S
C401  H352  1.106 .      S
C401  H353  1.108 .      S
C403  H354  1.081 .      S
C404  H355  1.053 .      S
C406  S51   1.798 .      S
C408  H356  1.072 .      S
S51   O153  1.710 .      S
O153  H357  0.982 .      S
C409  C410  1.482 .      S
C409  H358  1.109 .      S
C409  H359  1.100 .      S
C409  H360  1.109 .      S
C411  H361  1.077 .      S
C412  H362  1.064 .      S
C414  S52   1.760 .      S
C416  H363  1.061 .      S
S52   O156  1.711 1_455  S
O156  S52   1.711 1_655  S
O156  H364  0.988 .      S
C417  C418  1.475 1_556  S
C417  H365  1.098 .      S
C417  H366  1.105 .      S
C417  H367  1.102 .      S
C418  C417  1.475 1_554  S
C419  H368  1.054 1_654  S
C420  H369  1.070 .      S
C422  S53   1.733 .      S
C424  H370  1.074 .      S
S53   O159  1.711 .      S
O159  H371  0.980 .      S
H368  C419  1.054 1_456  S
C425  C426  1.432 .      S
C425  H372  1.076 1_655  S
C425  H373  1.087 1_655  S
C425  H374  1.100 1_655  S
C427  H375  1.072 .      S
C428  H376  1.052 .      S
C430  S54   1.797 .      S
C432  H377  1.046 .      S
S54   O162  1.711 .      S
O162  H378  0.990 .      S
H372  C425  1.076 1_455  S
H373  C425  1.087 1_455  S
H374  C425  1.100 1_455  S
C433  C434  1.493 .      S
C433  H379  1.092 .      S
C433  H380  1.103 .      S
C433  H381  1.095 .      S
C435  H382  1.072 .      S
C436  H383  1.080 .      S
C438  S55   1.728 .      S
C440  H384  1.045 .      S
S55   O165  1.668 .      S
O165  H385  0.973 1_655  S
H385  O165  0.973 1_455  S
C441  C442  1.465 .      S
C441  H386  1.104 .      S
C441  H387  1.101 .      S
C441  H388  1.106 1_545  S
C443  H389  1.078 .      S
C444  H390  1.071 .      S
C446  S56   1.786 .      S
C448  H391  1.049 .      S
S56   O168  1.704 .      S
O168  H392  0.990 .      S
H388  C441  1.106 1_565  S
C449  C450  1.464 1_455  S
C449  H393  1.099 1_455  S
C449  H394  1.101 .      S
C449  H395  1.101 .      S
C450  C449  1.464 1_655  S
C451  H396  1.061 .      S
C452  H397  1.074 .      S
C454  S57   1.793 .      S
C456  H398  1.074 .      S
S57   O171  1.703 .      S
O171  H399  0.990 .      S
H393  C449  1.099 1_655  S
C457  C458  1.490 .      S
C457  H400  1.103 .      S
C457  H401  1.108 .      S
C457  H402  1.106 .      S
C459  H403  1.077 .      S
C460  H404  1.074 .      S
C462  S58   1.742 .      S
C464  H405  1.061 .      S
S58   O174  1.696 .      S
O174  H406  0.988 .      S
C465  C466  1.487 .      S
C465  H407  1.109 .      S
C465  H408  1.109 .      S
C465  H409  1.109 .      S
C467  H410  1.081 .      S
C468  H411  1.079 .      S
C470  S59   1.775 1_455  S
C472  H412  1.081 .      S
S59   C470  1.775 1_655  S
S59   O177  1.692 .      S
O177  H413  0.988 .      S
C473  C474  1.489 .      S
C473  H414  1.109 .      S
C473  H415  1.108 .      S
C473  H416  1.109 .      S
C475  H417  1.081 .      S
C476  H418  1.071 .      S
C478  S60   1.813 .      S
C480  H419  1.061 .      S
S60   O180  1.709 .      S
O180  H420  0.990 .      S
C481  C482  1.471 .      S
C481  H421  1.106 .      S
C481  H422  1.107 .      S
C481  H423  1.104 .      S
C483  H424  1.058 .      S
C484  H425  1.058 .      S
C486  S61   1.729 .      S
C488  H426  1.070 .      S
S61   O183  1.696 .      S
O183  H427  0.986 .      S
C489  C490  1.488 .      S
C489  H428  1.109 .      S
C489  H429  1.109 .      S
C489  H430  1.109 .      S
C491  H431  1.081 .      S
C492  H432  1.052 .      S
C494  S62   1.771 1_455  S
C496  H433  1.063 .      S
S62   C494  1.771 1_655  S
S62   O186  1.706 .      S
O186  H434  0.987 .      S
C497  C498  1.423 .      S
C497  H435  1.098 .      S
C497  H436  1.081 .      S
C497  H437  1.073 .      S
C499  H438  1.041 .      S
C500  H439  1.054 .      S
C502  S63   1.692 .      S
N126  Zn9   2.081 1_655  S
C504  H440  1.050 .      S
S63   O189  1.702 .      S
O189  H441  0.986 .      S
C505  C506  1.477 .      S
C505  H442  1.106 .      S
C505  H443  1.109 1_655  S
C505  H444  1.108 1_655  S
C507  H445  1.069 .      S
C508  H446  1.077 .      S
C510  S64   1.792 .      S
C512  H447  1.072 .      S
S64   O192  1.713 .      S
O192  H448  0.989 .      S
H443  C505  1.109 1_455  S
H444  C505  1.108 1_455  S
C513  C514  1.482 .      S
C513  H449  1.105 .      S
C513  H450  1.108 .      S
C513  H451  1.108 .      S
C515  H452  1.078 .      S
C516  H453  1.057 .      S
C518  S65   1.775 .      S
N130  Zn32  2.143 1_655  S
C520  H454  1.035 .      S
S65   O195  1.680 .      S
O195  H455  0.989 .      S
C521  C522  1.487 .      S
C521  H456  1.109 .      S
C521  H457  1.109 .      S
C521  H458  1.109 .      S
C523  H459  1.081 .      S
C524  H460  1.081 .      S
C526  S66   1.751 .      S
C528  H461  1.076 .      S
S66   O198  1.689 .      S
O198  H462  0.975 .      S
C529  C530  1.476 .      S
C529  H463  1.107 .      S
C529  H464  1.089 .      S
C529  H465  1.108 .      S
C531  H466  1.081 .      S
C532  H467  1.046 .      S
C534  S67   1.783 1_655  S
N134  Zn32  2.211 1_655  S
C536  H468  1.063 .      S
S67   C534  1.783 1_455  S
S67   O201  1.691 .      S
O201  H469  0.989 .      S
C537  C538  1.486 .      S
C537  H470  1.108 .      S
C537  H471  1.106 .      S
C537  H472  1.109 .      S
C539  H473  1.081 .      S
C540  H474  1.072 .      S
C542  S68   1.820 1_455  S
C544  H475  1.061 .      S
S68   C542  1.820 1_655  S
S68   O204  1.713 .      S
O204  H476  0.984 .      S
C2    C3    1.385 .      A
C2    C8    1.386 .      A
C3    C4    1.379 .      A
C4    C5    1.368 .      A
C5    N1    1.335 .      A
C5    C7    1.372 .      A
N1    C6    1.390 .      A
C6    N2    1.369 .      A
N2    C7    1.370 .      A
C7    C8    1.386 .      A
C10   C11   1.353 .      A
C10   C16   1.343 .      A
C11   C12   1.375 .      A
C12   C13   1.366 .      A
C13   N3    1.369 .      A
C13   C15   1.351 .      A
N3    C14   1.399 .      A
C14   N4    1.390 .      A
N4    C15   1.315 .      A
C15   C16   1.356 .      A
C18   C19   1.377 .      A
C18   C24   1.397 1_545  A
C19   C20   1.355 .      A
C20   C21   1.339 .      A
C21   N5    1.329 1_545  A
C21   C23   1.346 1_545  A
N5    C21   1.329 1_565  A
N5    C22   1.382 .      A
C22   N6    1.395 .      A
N6    C23   1.349 .      A
C23   C21   1.346 1_565  A
C23   C24   1.386 .      A
C24   C18   1.397 1_565  A
C26   C27   1.371 .      A
C26   C32   1.386 .      A
C27   C28   1.363 .      A
C28   C29   1.359 .      A
C29   N7    1.341 .      A
C29   C31   1.356 .      A
N7    C30   1.405 .      A
C30   N8    1.379 .      A
N8    C31   1.352 .      A
C31   C32   1.376 .      A
C34   C35   1.378 .      A
C34   C40   1.381 .      A
C35   C36   1.364 .      A
C36   C37   1.362 .      A
C37   N9    1.337 1_455  A
C37   C39   1.361 .      A
N9    C37   1.337 1_655  A
N9    C38   1.393 .      A
C38   N10   1.397 1_655  A
N10   C38   1.397 1_455  A
N10   C39   1.346 .      A
C39   C40   1.358 .      A
C42   C43   1.360 1_655  A
C42   C48   1.356 1_655  A
C43   C42   1.360 1_455  A
C43   C44   1.375 .      A
C44   C45   1.363 .      A
C45   N11   1.368 .      A
C45   C47   1.347 .      A
N11   C46   1.378 .      A
C46   N12   1.400 .      A
N12   C47   1.323 .      A
C47   C48   1.364 .      A
C48   C42   1.356 1_455  A
C50   C51   1.388 .      A
C50   C56   1.386 .      A
C51   C52   1.381 .      A
C52   C53   1.371 .      A
C53   N13   1.336 .      A
C53   C55   1.373 .      A
N13   C54   1.407 .      A
C54   N14   1.399 .      A
N14   C55   1.363 .      A
C55   C56   1.371 .      A
C58   C59   1.359 .      A
C58   C64   1.363 .      A
C59   C60   1.364 .      A
C60   C61   1.359 .      A
C61   N15   1.325 .      A
C61   C63   1.350 .      A
N15   C62   1.397 .      A
C62   N16   1.403 .      A
N16   C63   1.340 .      A
C63   C64   1.345 .      A
C66   C67   1.390 .      A
C66   C72   1.386 .      A
C67   C68   1.384 .      A
C68   C69   1.373 .      A
C69   N17   1.344 .      A
C69   C71   1.367 .      A
N17   C70   1.383 .      A
C70   N18   1.385 .      A
N18   C71   1.350 .      A
C71   C72   1.367 .      A
C74   C75   1.385 .      A
C74   C80   1.385 .      A
C75   C76   1.379 .      A
C76   C77   1.375 .      A
C77   N19   1.348 .      A
C77   C79   1.382 .      A
N19   C78   1.386 .      A
C78   N20   1.386 .      A
N20   C79   1.360 .      A
C79   C80   1.378 .      A
C82   C83   1.385 .      A
C82   C88   1.383 .      A
C83   C84   1.380 .      A
C84   C85   1.371 .      A
C85   N21   1.348 .      A
C85   C87   1.363 .      A
N21   C86   1.374 .      A
C86   N22   1.375 .      A
N22   C87   1.354 .      A
C87   C88   1.373 .      A
C90   C91   1.389 .      A
C90   C96   1.373 .      A
C91   C92   1.378 1_455  A
C92   C91   1.378 1_655  A
C92   C93   1.357 .      A
C93   N23   1.338 .      A
C93   C95   1.358 1_655  A
N23   C94   1.375 .      A
C94   N24   1.383 .      A
N24   C95   1.337 1_655  A
C95   C93   1.358 1_455  A
C95   N24   1.337 1_455  A
C95   C96   1.360 .      A
C98   C99   1.381 .      A
C98   C104  1.359 .      A
C99   C100  1.386 .      A
C100  C101  1.330 .      A
C101  N25   1.349 1_545  A
C101  C103  1.350 .      A
N25   C101  1.349 1_565  A
N25   C102  1.407 1_565  A
C102  N25   1.407 1_545  A
C102  N26   1.412 .      A
N26   C103  1.319 .      A
C103  C104  1.360 .      A
C106  C107  1.390 .      A
C106  C112  1.384 .      A
C107  C108  1.386 .      A
C108  C109  1.376 .      A
C109  N27   1.364 .      A
C109  C111  1.380 .      A
N27   C110  1.363 .      A
C110  N28   1.385 .      A
N28   C111  1.343 .      A
C111  C112  1.370 .      A
C114  C115  1.390 .      A
C114  C120  1.390 .      A
C115  C116  1.381 .      A
C116  C117  1.368 .      A
C117  N29   1.341 .      A
C117  C119  1.375 .      A
N29   C118  1.396 1_556  A
C118  N29   1.396 1_554  A
C118  N30   1.392 1_554  A
N30   C118  1.392 1_556  A
N30   C119  1.356 .      A
C119  C120  1.373 .      A
C122  C123  1.369 .      A
C122  C128  1.393 1_565  A
C123  C124  1.350 1_565  A
C124  C123  1.350 1_545  A
C124  C125  1.339 .      A
C125  N31   1.328 .      A
C125  C127  1.349 .      A
N31   C126  1.393 1_554  A
C126  N31   1.393 1_556  A
C126  N32   1.399 .      A
N32   C127  1.345 1_556  A
C127  N32   1.345 1_554  A
C127  C128  1.380 .      A
C128  C122  1.393 1_545  A
C130  C131  1.387 .      A
C130  C136  1.386 .      A
C131  C132  1.381 .      A
C132  C133  1.369 .      A
C133  N33   1.353 .      A
C133  C135  1.374 .      A
N33   C134  1.414 1_556  A
C134  N33   1.414 1_554  A
C134  N34   1.397 1_554  A
N34   C134  1.397 1_556  A
N34   C135  1.346 .      A
C135  C136  1.373 .      A
C138  C139  1.392 .      A
C138  C144  1.388 .      A
C139  C140  1.384 .      A
C140  C141  1.370 .      A
C141  N35   1.354 .      A
C141  C143  1.386 .      A
N35   C142  1.378 .      A
C142  N36   1.386 .      A
N36   C143  1.352 .      A
C143  C144  1.370 .      A
C146  C147  1.388 .      A
C146  C152  1.385 .      A
C147  C148  1.382 .      A
C148  C149  1.374 .      A
C149  N37   1.351 .      A
C149  C151  1.381 .      A
N37   C150  1.384 1_556  A
C150  N37   1.384 1_554  A
C150  N38   1.387 1_554  A
N38   C150  1.387 1_556  A
N38   C151  1.354 .      A
C151  C152  1.374 .      A
C154  C155  1.383 1_545  A
C154  C160  1.365 1_545  A
C155  C154  1.383 1_565  A
C155  C156  1.372 .      A
C156  C157  1.361 .      A
C157  N39   1.335 .      A
C157  C159  1.366 .      A
N39   C158  1.413 .      A
C158  N40   1.422 .      A
N40   C159  1.345 .      A
C159  C160  1.354 .      A
C160  C154  1.365 1_565  A
C162  C163  1.382 .      A
C162  C168  1.369 .      A
C163  C164  1.376 .      A
C164  C165  1.363 .      A
C165  N41   1.351 .      A
C165  C167  1.357 .      A
N41   C166  1.406 .      A
C166  N42   1.394 .      A
N42   C167  1.334 .      A
C167  C168  1.353 .      A
C170  C171  1.387 .      A
C170  C176  1.385 .      A
C171  C172  1.383 .      A
C172  C173  1.369 .      A
C173  N43   1.339 .      A
C173  C175  1.365 .      A
N43   C174  1.389 .      A
C174  N44   1.387 .      A
N44   C175  1.356 .      A
C175  C176  1.371 .      A
C178  C179  1.353 .      A
C178  C184  1.341 .      A
C179  C180  1.336 .      A
C180  C181  1.331 .      A
C181  N45   1.311 .      A
C181  C183  1.344 .      A
N45   C182  1.385 .      A
C182  N46   1.387 .      A
N46   C183  1.316 .      A
C183  C184  1.329 .      A
C186  C187  1.387 .      A
C186  C192  1.384 .      A
C187  C188  1.382 .      A
C188  C189  1.368 .      A
C189  N47   1.351 .      A
C189  C191  1.372 .      A
N47   C190  1.391 .      A
C190  N48   1.391 .      A
N48   C191  1.346 .      A
C191  C192  1.373 .      A
C194  C195  1.381 .      A
C194  C200  1.380 .      A
C195  C196  1.383 .      A
C196  C197  1.367 .      A
C197  N49   1.364 .      A
C197  C199  1.368 .      A
N49   C198  1.431 .      A
C198  N50   1.388 .      A
N50   C199  1.334 .      A
C199  C200  1.367 .      A
C202  C203  1.391 .      A
C202  C208  1.386 .      A
C203  C204  1.384 .      A
C204  C205  1.370 .      A
C205  N51   1.343 .      A
C205  C207  1.368 .      A
N51   C206  1.387 .      A
C206  N52   1.396 .      A
N52   C207  1.351 .      A
C207  C208  1.370 .      A
C210  C211  1.389 .      A
C210  C216  1.386 .      A
C211  C212  1.382 .      A
C212  C213  1.368 .      A
C213  N53   1.342 .      A
C213  C215  1.368 .      A
N53   C214  1.397 .      A
C214  N54   1.391 .      A
N54   C215  1.357 .      A
C215  C216  1.375 .      A
C218  C219  1.388 1_545  A
C218  C224  1.356 .      A
C219  C218  1.388 1_565  A
C219  C220  1.374 .      A
C220  C221  1.359 .      A
C221  N55   1.333 .      A
C221  C223  1.353 1_565  A
N55   C222  1.396 .      A
C222  N56   1.385 1_565  A
N56   C222  1.385 1_545  A
N56   C223  1.326 .      A
C223  C221  1.353 1_545  A
C223  C224  1.342 .      A
C226  C227  1.382 .      A
C226  C232  1.387 .      A
C227  C228  1.381 .      A
C228  C229  1.369 .      A
C229  N57   1.346 .      A
C229  C231  1.369 .      A
N57   C230  1.399 .      A
C230  N58   1.396 .      A
N58   C231  1.350 .      A
C231  C232  1.370 .      A
C234  C235  1.377 .      A
C234  C240  1.379 .      A
C235  C236  1.374 1_565  A
C236  C235  1.374 1_545  A
C236  C237  1.370 .      A
C237  N59   1.347 .      A
C237  C239  1.363 .      A
N59   C238  1.375 .      A
C238  N60   1.361 .      A
N60   C239  1.345 .      A
C239  C240  1.369 1_545  A
C240  C239  1.369 1_565  A
C242  C243  1.378 .      A
C242  C248  1.339 .      A
C243  C244  1.377 .      A
C244  C245  1.337 .      A
C245  N61   1.341 .      A
C245  C247  1.323 .      A
N61   C246  1.405 .      A
C246  N62   1.401 .      A
N62   C247  1.304 .      A
C247  C248  1.314 .      A
C250  C251  1.389 .      A
C250  C256  1.386 .      A
C251  C252  1.382 .      A
C252  C253  1.371 .      A
C253  N63   1.341 1_545  A
C253  C255  1.375 .      A
N63   C253  1.341 1_565  A
N63   C254  1.397 .      A
C254  N64   1.376 1_565  A
N64   C254  1.376 1_545  A
N64   C255  1.362 .      A
C255  C256  1.377 .      A
C258  C259  1.362 .      A
C258  C264  1.368 .      A
C259  C260  1.367 .      A
C260  C261  1.351 .      A
C261  N65   1.323 .      A
C261  C263  1.349 .      A
N65   C262  1.383 .      A
C262  N66   1.403 .      A
N66   C263  1.342 .      A
C263  C264  1.352 .      A
C266  C267  1.394 .      A
C266  C272  1.371 .      A
C267  C268  1.387 .      A
C268  C269  1.367 .      A
C269  N67   1.349 .      A
C269  C271  1.360 .      A
N67   C270  1.394 .      A
C270  N68   1.377 .      A
N68   C271  1.338 .      A
C271  C272  1.367 .      A
C274  C275  1.379 .      A
C274  C280  1.392 .      A
C275  C276  1.371 .      A
C276  C277  1.372 .      A
C277  N69   1.340 .      A
C277  C279  1.366 .      A
N69   C278  1.390 .      A
C278  N70   1.396 .      A
N70   C279  1.364 .      A
C279  C280  1.379 .      A
C282  C283  1.371 .      A
C282  C288  1.372 .      A
C283  C284  1.360 .      A
C284  C285  1.340 1_554  A
C285  C284  1.340 1_556  A
C285  N71   1.315 .      A
C285  C287  1.341 .      A
N71   C286  1.394 .      A
C286  N72   1.375 .      A
N72   C287  1.335 .      A
C287  C288  1.335 1_556  A
C288  C287  1.335 1_554  A
C290  C291  1.392 .      A
C290  C296  1.387 .      A
C291  C292  1.384 .      A
C292  C293  1.373 .      A
C293  N73   1.349 .      A
C293  C295  1.363 .      A
N73   C294  1.389 .      A
C294  N74   1.380 .      A
N74   C295  1.344 .      A
C295  C296  1.373 .      A
C298  C299  1.388 .      A
C298  C304  1.385 .      A
C299  C300  1.382 .      A
C300  C301  1.372 .      A
C301  N75   1.348 .      A
C301  C303  1.382 .      A
N75   C302  1.406 .      A
C302  N76   1.411 .      A
N76   C303  1.355 .      A
C303  C304  1.370 .      A
C306  C307  1.389 .      A
C306  C312  1.388 .      A
C307  C308  1.381 .      A
C308  C309  1.373 .      A
C309  N77   1.348 .      A
C309  C311  1.376 .      A
N77   C310  1.410 .      A
C310  N78   1.407 .      A
N78   C311  1.354 .      A
C311  C312  1.372 .      A
C314  C315  1.392 .      A
C314  C320  1.364 .      A
C315  C316  1.378 .      A
C316  C317  1.364 .      A
C317  N79   1.342 1_655  A
C317  C319  1.370 .      A
N79   C317  1.342 1_455  A
N79   C318  1.403 1_455  A
C318  N79   1.403 1_655  A
C318  N80   1.396 .      A
N80   C319  1.337 .      A
C319  C320  1.337 .      A
C322  C323  1.375 .      A
C322  C328  1.381 .      A
C323  C324  1.381 .      A
C324  C325  1.343 .      A
C325  N81   1.352 .      A
C325  C327  1.339 .      A
N81   C326  1.393 .      A
C326  N82   1.370 .      A
N82   C327  1.328 .      A
C327  C328  1.373 .      A
C330  C331  1.360 .      A
C330  C336  1.396 1_565  A
C331  C332  1.352 .      A
C332  C333  1.326 .      A
C333  N83   1.320 .      A
C333  C335  1.343 .      A
N83   C334  1.402 .      A
C334  N84   1.399 .      A
N84   C335  1.353 .      A
C335  C336  1.370 1_565  A
C336  C330  1.396 1_545  A
C336  C335  1.370 1_545  A
C338  C339  1.385 .      A
C338  C344  1.385 .      A
C339  C340  1.378 1_565  A
C340  C339  1.378 1_545  A
C340  C341  1.358 .      A
C341  N85   1.336 .      A
C341  C343  1.363 1_545  A
N85   C342  1.377 .      A
C342  N86   1.386 .      A
N86   C343  1.356 1_545  A
C343  C341  1.363 1_565  A
C343  N86   1.356 1_565  A
C343  C344  1.370 .      A
C346  C347  1.379 .      A
C346  C352  1.384 .      A
C347  C348  1.376 .      A
C348  C349  1.372 .      A
C349  N87   1.347 .      A
C349  C351  1.368 .      A
N87   C350  1.392 .      A
C350  N88   1.367 .      A
N88   C351  1.365 .      A
C351  C352  1.390 .      A
C354  C355  1.380 .      A
C354  C360  1.371 .      A
C355  C356  1.382 .      A
C356  C357  1.351 .      A
C357  N89   1.346 .      A
C357  C359  1.353 .      A
N89   C358  1.379 .      A
C358  N90   1.406 .      A
N90   C359  1.333 .      A
C359  C360  1.366 .      A
C362  C363  1.388 .      A
C362  C368  1.385 .      A
C363  C364  1.382 .      A
C364  C365  1.372 .      A
C365  N91   1.344 .      A
C365  C367  1.363 .      A
N91   C366  1.364 .      A
C366  N92   1.368 .      A
N92   C367  1.352 .      A
C367  C368  1.370 .      A
C370  C371  1.392 .      A
C370  C376  1.386 .      A
C371  C372  1.385 .      A
C372  C373  1.371 .      A
C373  N93   1.346 .      A
C373  C375  1.373 .      A
N93   C374  1.377 .      A
C374  N94   1.390 .      A
N94   C375  1.350 .      A
C375  C376  1.371 .      A
C378  C379  1.381 1_556  A
C378  C384  1.401 1_455  A
C379  C378  1.381 1_554  A
C379  C380  1.369 .      A
C380  C381  1.375 .      A
C381  N95   1.333 1_455  A
C381  C383  1.359 1_455  A
N95   C381  1.333 1_655  A
N95   C382  1.393 .      A
C382  N96   1.382 .      A
N96   C383  1.357 .      A
C383  C381  1.359 1_655  A
C383  C384  1.372 1_554  A
C384  C378  1.401 1_655  A
C384  C383  1.372 1_556  A
C386  C387  1.380 .      A
C386  C392  1.376 .      A
C387  C388  1.382 .      A
C388  C389  1.375 .      A
C389  N97   1.366 .      A
C389  C391  1.356 .      A
N97   C390  1.376 .      A
C390  N98   1.402 .      A
N98   C391  1.335 .      A
C391  C392  1.371 .      A
C394  C395  1.380 .      A
C394  C400  1.352 .      A
C395  C396  1.376 .      A
C396  C397  1.358 .      A
C397  N99   1.332 .      A
C397  C399  1.359 .      A
N99   C398  1.395 1_455  A
C398  N99   1.395 1_655  A
C398  N100  1.376 .      A
N100  C399  1.327 1_655  A
C399  N100  1.327 1_455  A
C399  C400  1.342 .      A
C402  C403  1.379 .      A
C402  C408  1.389 .      A
C403  C404  1.363 .      A
C404  C405  1.344 .      A
C405  N101  1.329 .      A
C405  C407  1.347 .      A
N101  C406  1.397 1_455  A
C406  N101  1.397 1_655  A
C406  N102  1.389 .      A
N102  C407  1.345 1_655  A
C407  N102  1.345 1_455  A
C407  C408  1.369 .      A
C410  C411  1.378 .      A
C410  C416  1.384 .      A
C411  C412  1.378 .      A
C412  C413  1.373 .      A
C413  N103  1.348 .      A
C413  C415  1.365 .      A
N103  C414  1.374 .      A
C414  N104  1.396 .      A
N104  C415  1.347 .      A
C415  C416  1.362 .      A
C418  C419  1.376 .      A
C418  C424  1.356 .      A
C419  C420  1.374 1_655  A
C420  C419  1.374 1_455  A
C420  C421  1.364 1_455  A
C421  C420  1.364 1_655  A
C421  N105  1.359 1_655  A
C421  C423  1.377 .      A
N105  C421  1.359 1_455  A
N105  C422  1.398 1_455  A
C422  N105  1.398 1_655  A
C422  N106  1.385 .      A
N106  C423  1.325 .      A
C423  C424  1.361 .      A
C426  C427  1.346 .      A
C426  C432  1.391 .      A
C427  C428  1.327 .      A
C428  C429  1.365 .      A
C429  N107  1.316 .      A
C429  C431  1.347 .      A
N107  C430  1.399 .      A
C430  N108  1.395 .      A
N108  C431  1.357 .      A
C431  C432  1.354 .      A
C434  C435  1.394 1_655  A
C434  C440  1.370 .      A
C435  C434  1.394 1_455  A
C435  C436  1.374 .      A
C436  C437  1.361 1_455  A
C437  C436  1.361 1_655  A
C437  N109  1.335 1_655  A
C437  C439  1.371 .      A
N109  C437  1.335 1_455  A
N109  C438  1.381 1_455  A
C438  N109  1.381 1_655  A
C438  N110  1.400 .      A
N110  C439  1.349 .      A
C439  C440  1.352 .      A
C442  C443  1.382 .      A
C442  C448  1.363 1_545  A
C443  C444  1.376 .      A
C444  C445  1.369 .      A
C445  N111  1.343 .      A
C445  C447  1.351 1_545  A
N111  C446  1.381 1_545  A
C446  N111  1.381 1_565  A
C446  N112  1.401 .      A
N112  C447  1.338 .      A
C447  C445  1.351 1_565  A
C447  C448  1.342 .      A
C448  C442  1.363 1_565  A
C450  C451  1.376 .      A
C450  C456  1.374 1_655  A
C451  C452  1.373 .      A
C452  C453  1.352 .      A
C453  N113  1.336 .      A
C453  C455  1.360 .      A
N113  C454  1.384 .      A
C454  N114  1.395 1_655  A
N114  C454  1.395 1_455  A
N114  C455  1.332 1_455  A
C455  N114  1.332 1_655  A
C455  C456  1.369 1_655  A
C456  C450  1.374 1_455  A
C456  C455  1.369 1_455  A
C458  C459  1.378 .      A
C458  C464  1.374 .      A
C459  C460  1.392 .      A
C460  C461  1.354 .      A
C461  N115  1.345 .      A
C461  C463  1.359 .      A
N115  C462  1.393 .      A
C462  N116  1.388 .      A
N116  C463  1.339 .      A
C463  C464  1.363 .      A
C466  C467  1.391 .      A
C466  C472  1.386 .      A
C467  C468  1.384 .      A
C468  C469  1.373 .      A
C469  N117  1.350 .      A
C469  C471  1.378 .      A
N117  C470  1.380 .      A
C470  N118  1.418 .      A
N118  C471  1.356 .      A
C471  C472  1.375 .      A
C474  C475  1.384 .      A
C474  C480  1.382 .      A
C475  C476  1.378 .      A
C476  C477  1.368 .      A
C477  N119  1.343 .      A
C477  C479  1.371 .      A
N119  C478  1.392 .      A
C478  N120  1.392 .      A
N120  C479  1.349 .      A
C479  C480  1.371 .      A
C482  C483  1.387 .      A
C482  C488  1.352 .      A
C483  C484  1.378 1_655  A
C484  C483  1.378 1_455  A
C484  C485  1.341 1_455  A
C485  C484  1.341 1_655  A
C485  N121  1.347 1_655  A
C485  C487  1.358 .      A
N121  C485  1.347 1_455  A
N121  C486  1.378 1_455  A
C486  N121  1.378 1_655  A
C486  N122  1.391 .      A
N122  C487  1.317 .      A
C487  C488  1.347 .      A
C490  C491  1.374 .      A
C490  C496  1.374 .      A
C491  C492  1.380 .      A
C492  C493  1.388 .      A
C493  N123  1.371 .      A
C493  C495  1.361 .      A
N123  C494  1.374 .      A
C494  N124  1.391 .      A
N124  C495  1.342 .      A
C495  C496  1.377 .      A
C498  C499  1.363 .      A
C498  C504  1.316 .      A
C499  C500  1.356 .      A
C500  C501  1.351 .      A
C501  N125  1.337 .      A
C501  C503  1.344 .      A
N125  C502  1.377 .      A
C502  N126  1.373 .      A
N126  C503  1.302 .      A
C503  C504  1.310 .      A
C506  C507  1.382 .      A
C506  C512  1.381 .      A
C507  C508  1.372 .      A
C508  C509  1.368 .      A
C509  N127  1.334 .      A
C509  C511  1.357 .      A
N127  C510  1.381 .      A
C510  N128  1.397 .      A
N128  C511  1.351 .      A
C511  C512  1.369 .      A
C514  C515  1.366 .      A
C514  C520  1.378 .      A
C515  C516  1.372 1_455  A
C516  C515  1.372 1_655  A
C516  C517  1.371 .      A
C517  N129  1.336 .      A
C517  C519  1.347 .      A
N129  C518  1.363 .      A
C518  N130  1.398 .      A
N130  C519  1.359 .      A
C519  C520  1.361 1_655  A
C520  C519  1.361 1_455  A
C522  C523  1.393 .      A
C522  C528  1.387 .      A
C523  C524  1.385 .      A
C524  C525  1.372 .      A
C525  N131  1.351 .      A
C525  C527  1.372 .      A
N131  C526  1.391 .      A
C526  N132  1.373 .      A
N132  C527  1.347 .      A
C527  C528  1.369 .      A
C530  C531  1.365 .      A
C530  C536  1.403 .      A
C531  C532  1.355 .      A
C532  C533  1.352 .      A
C533  N133  1.325 .      A
C533  C535  1.349 .      A
N133  C534  1.398 .      A
C534  N134  1.395 .      A
N134  C535  1.355 .      A
C535  C536  1.357 .      A
C538  C539  1.380 .      A
C538  C544  1.386 .      A
C539  C540  1.378 .      A
C540  C541  1.370 .      A
C541  N135  1.341 .      A
C541  C543  1.350 .      A
N135  C542  1.373 .      A
C542  N136  1.404 .      A
N136  C543  1.350 .      A
C543  C544  1.366 .      A
S1    O1    1.515 .      D
S1    O2    1.533 .      D
S2    O4    1.526 .      D
S2    O5    1.532 .      D
S3    O7    1.535 .      D
S3    O8    1.533 .      D
S4    O10   1.528 .      D
S4    O11   1.532 1_565  D
O11   S4    1.532 1_545  D
S5    O13   1.536 .      D
S5    O14   1.529 .      D
S6    O16   1.528 .      D
S6    O17   1.533 .      D
S7    O19   1.533 .      D
S7    O20   1.530 .      D
S8    O22   1.536 .      D
S8    O23   1.536 .      D
S9    O25   1.527 .      D
S9    O26   1.515 .      D
S10   O28   1.521 .      D
S10   O29   1.535 .      D
S11   O31   1.530 .      D
S11   O32   1.521 .      D
S12   O34   1.518 .      D
S12   O35   1.528 .      D
S13   O37   1.533 .      D
S13   O38   1.536 1_545  D
O38   S13   1.536 1_565  D
S14   O40   1.516 1_545  D
S14   O41   1.509 1_545  D
O40   S14   1.516 1_565  D
O41   S14   1.509 1_565  D
S15   O43   1.528 .      D
S15   O44   1.530 .      D
S16   O46   1.536 .      D
S16   O47   1.535 .      D
S17   O49   1.532 .      D
S17   O50   1.529 .      D
S18   O52   1.530 .      D
S18   O53   1.530 .      D
S19   O55   1.532 .      D
S19   O56   1.518 1_565  D
O56   S19   1.518 1_545  D
S20   O58   1.534 .      D
S20   O59   1.536 .      D
S21   O61   1.535 .      D
S21   O62   1.536 .      D
S22   O64   1.529 .      D
S22   O65   1.514 1_545  D
O65   S22   1.514 1_565  D
S23   O67   1.526 .      D
S23   O68   1.526 .      D
S24   O70   1.527 .      D
S24   O71   1.531 .      D
S25   O73   1.535 .      D
S25   O74   1.530 .      D
S26   O76   1.521 1_545  D
S26   O77   1.520 1_545  D
O76   S26   1.521 1_565  D
O77   S26   1.520 1_565  D
S27   O79   1.530 .      D
S27   O80   1.535 .      D
S28   O82   1.532 .      D
S28   O83   1.531 1_565  D
O83   S28   1.531 1_545  D
S29   O85   1.529 .      D
S29   O86   1.533 .      D
S30   O88   1.521 .      D
S30   O89   1.535 .      D
S31   O91   1.530 .      D
S31   O92   1.535 .      D
S32   O94   1.533 .      D
S32   O95   1.512 .      D
S33   O97   1.527 .      D
S33   O98   1.525 .      D
S34   O100  1.536 .      D
S34   O101  1.535 .      D
S35   O103  1.532 .      D
S35   O104  1.528 .      D
S36   O106  1.512 .      D
S36   O107  1.526 .      D
S37   O109  1.529 .      D
S37   O110  1.523 1_554  D
O110  S37   1.523 1_556  D
S38   O112  1.532 .      D
S38   O113  1.529 .      D
S39   O115  1.519 .      D
S39   O116  1.529 .      D
S40   O118  1.517 1_655  D
S40   O119  1.526 .      D
O118  S40   1.517 1_455  D
S41   O121  1.532 .      D
S41   O122  1.530 .      D
S42   O124  1.534 1_554  D
S42   O125  1.535 .      D
O124  S42   1.534 1_556  D
S43   O127  1.533 1_545  D
S43   O128  1.524 .      D
O127  S43   1.533 1_565  D
S44   O130  1.521 .      D
S44   O131  1.522 .      D
S45   O133  1.533 1_655  D
S45   O134  1.532 .      D
O133  S45   1.533 1_455  D
S46   O136  1.522 .      D
S46   O137  1.527 .      D
S47   O139  1.522 .      D
S47   O140  1.530 .      D
S48   O142  1.518 .      D
S48   O143  1.528 .      D
S49   O145  1.517 .      D
S49   O146  1.529 .      D
S50   O148  1.518 1_554  D
S50   O149  1.522 .      D
O148  S50   1.518 1_556  D
S51   O151  1.525 .      D
S51   O152  1.529 .      D
S52   O154  1.508 .      D
S52   O155  1.531 .      D
S53   O157  1.521 .      D
S53   O158  1.532 .      D
S54   O160  1.536 .      D
S54   O161  1.534 .      D
S55   O163  1.523 .      D
S55   O164  1.530 .      D
S56   O166  1.532 1_565  D
S56   O167  1.528 .      D
O166  S56   1.532 1_545  D
S57   O169  1.530 .      D
S57   O170  1.506 1_655  D
O170  S57   1.506 1_455  D
S58   O172  1.531 .      D
S58   O173  1.516 .      D
S59   O175  1.504 .      D
S59   O176  1.505 .      D
S60   O178  1.533 .      D
S60   O179  1.533 .      D
S61   O181  1.531 1_655  D
S61   O182  1.522 .      D
O181  S61   1.531 1_455  D
S62   O184  1.521 .      D
S62   O185  1.521 .      D
S63   O187  1.530 .      D
S63   O188  1.522 .      D
S64   O190  1.535 .      D
S64   O191  1.533 .      D
S65   O193  1.521 .      D
S65   O194  1.524 .      D
S66   O196  1.514 .      D
S66   O197  1.529 .      D
S67   O199  1.531 .      D
S67   O200  1.528 .      D
S68   O202  1.510 .      D
S68   O203  1.517 .      D
