data_str_m1_o12435_ATS
_audit_creation_date              2015-10-01T06:31:53-0700
_symmetry_space_group_name_H-M    P1
_symmetry_Int_Tables_number       1
_space_group_crystal_system       triclinic
loop_
_symmetry_equiv_pos_as_xyz
  x,y,z
_cell_length_a                    9.97903491
_cell_length_b                    23.5853248
_cell_length_c                    24.2964514
_cell_angle_alpha                 116.428055
_cell_angle_beta                  95.6305013
_cell_angle_gamma                 79.1350631
_cell_volume                      5028.32629632

loop_
_atom_site_label
_atom_site_type_symbol
_atom_site_description
_atom_site_fract_x
_atom_site_fract_y
_atom_site_fract_z
_atom_type_partial_charge
Zn1   Zn    Zn3+2 0.930976 0.154108 0.070392 0.000000
Zn2   Zn    Zn3+2 0.385988 0.989805 0.742267 0.000000
Zn3   Zn    Zn3+2 0.024833 0.577547 0.535984 0.000000
Zn4   Zn    Zn3+2 0.989013 0.536978 0.028996 0.000000
Zn5   Zn    Zn3+2 0.757597 0.718774 0.906005 0.000000
Zn6   Zn    Zn3+2 0.509220 0.421916 0.906502 0.000000
Zn7   Zn    Zn3+2 0.824637 0.150204 0.819966 0.000000
Zn8   Zn    Zn3+2 0.273627 0.570349 0.271701 0.000000
Zn9   Zn    Zn3+2 0.490585 0.993897 0.993254 0.000000
Zn10  Zn    Zn3+2 0.273011 0.610078 0.789621 0.000000
Zn11  Zn    Zn3+2 0.456070 0.716531 0.527694 0.000000
Zn12  Zn    Zn3+2 0.842485 0.430529 0.279349 0.000000
Br1   Br    Br    0.908608 0.484706 0.709141 0.000000
C1    C     C_R   0.911353 0.513711 0.795997 0.000000
C2    C     C_R   0.959272 0.470854 0.820906 0.000000
C3    C     C_R   0.965886 0.491841 0.883975 0.000000
C4    C     C_R   0.923509 0.556097 0.920741 0.000000
N1    N     N_R   0.923262 0.587709 0.982466 0.000000
C5    C     C_R   0.855999 0.648050 0.993297 0.000000
N2    N     N_R   0.822776 0.655143 0.940142 0.000000
C6    C     C_R   0.865970 0.596194 0.896088 0.000000
C7    C     C_R   0.863457 0.577201 0.833993 0.000000
H1    H     H_    0.992333 0.420799 0.790881 0.000000
H2    H     H_    0.997787 0.457379 0.902091 0.000000
H3    H     H_    0.826766 0.684362 0.038628 0.000000
H4    H     H_    0.828556 0.611049 0.815635 0.000000
Br2   Br    Br    0.558262 0.357983 0.119632 0.000000
C8    C     C_R   0.644624 0.408478 0.095564 0.000000
C9    C     C_R   0.757046 0.435501 0.128143 0.000000
C10   C     C_R   0.821733 0.470815 0.109134 0.000000
C11   C     C_R   0.775432 0.474421 0.055399 0.000000
N3    N     N_R   0.830510 0.497946 0.023111 0.000000
C12   C     C_R   0.748008 0.485111 0.972201 0.000000
N4    N     N_R   0.646360 0.453774 0.971320 0.000000
C13   C     C_R   0.666071 0.447650 0.023955 0.000000
C14   C     C_R   0.596698 0.415735 0.043539 0.000000
H5    H     H_    0.795239 0.428199 0.168097 0.000000
H6    H     H_    0.909419 0.491672 0.133949 0.000000
H7    H     H_    0.763009 0.497267 0.935642 0.000000
H8    H     H_    0.510722 0.395104 0.018059 0.000000
Br3   Br    Br    0.067976 0.301793 0.061580 0.000000
C15   C     C_R   0.157147 0.335664 0.019723 0.000000
C16   C     C_R   0.281865 0.304231 0.992851 0.000000
C17   C     C_R   0.350757 0.327258 0.961890 0.000000
C18   C     C_R   0.292050 0.384858 0.961907 0.000000
N5    N     N_R   0.340363 0.422035 0.941669 0.000000
C19   C     C_R   0.238565 0.473632 0.955730 0.000000
N6    N     N_R   0.135042 0.470989 0.985806 0.000000
C20   C     C_R   0.169554 0.415034 0.988653 0.000000
C21   C     C_R   0.099439 0.392068 0.017553 0.000000
H9    H     H_    0.324143 0.262626 0.998902 0.000000
H10   H     H_    0.448906 0.302460 0.941436 0.000000
H11   H     H_    0.237193 0.513226 0.945312 0.000000
H12   H     H_    0.004185 0.417684 0.038804 0.000000
Br4   Br    Br    0.092938 0.811796 0.137683 0.000000
C22   C     C_R   0.115664 0.744683 0.162850 0.000000
C23   C     C_R   0.168470 0.755245 0.221138 0.000000
C24   C     C_R   0.196182 0.705728 0.238652 0.000000
C25   C     C_R   0.173755 0.645914 0.195828 0.000000
N7    N     N_R   0.199952 0.589829 0.200416 0.000000
C26   C     C_R   0.137405 0.549440 0.148580 0.000000
N8    N     N_R   0.075724 0.578313 0.112355 0.000000
C27   C     C_R   0.105121 0.638105 0.142195 0.000000
C28   C     C_R   0.078697 0.685930 0.123282 0.000000
H13   H     H_    0.189464 0.802409 0.252876 0.000000
H14   H     H_    0.228786 0.715199 0.285069 0.000000
H15   H     H_    0.136556 0.499789 0.137564 0.000000
H16   H     H_    0.034970 0.677483 0.078474 0.000000
Br5   Br    Br    0.721598 0.984603 0.227889 0.000000
C29   C     C_R   0.714027 0.925927 0.143147 0.000000
C30   C     C_R   0.786252 0.863948 0.122869 0.000000
C31   C     C_R   0.782787 0.820906 0.061351 0.000000
C32   C     C_R   0.701311 0.840721 0.022415 0.000000
N9    N     N_R   0.682584 0.807725 0.961605 0.000000
C33   C     C_R   0.603278 0.851970 0.945160 0.000000
N10   N     N_R   0.572233 0.910744 0.993805 0.000000
C34   C     C_R   0.634020 0.901782 0.041779 0.000000
C35   C     C_R   0.638852 0.945720 0.102020 0.000000
H17   H     H_    0.846002 0.849591 0.155421 0.000000
H18   H     H_    0.845141 0.774359 0.044296 0.000000
H19   H     H_    0.573668 0.842347 0.898238 0.000000
H20   H     H_    0.584343 0.993550 0.117146 0.000000
Br6   Br    Br    0.862072 0.597598 0.625820 0.000000
C36   C     C_R   0.724931 0.610659 0.680242 0.000000
C37   C     C_R   0.613991 0.579200 0.656825 0.000000
C38   C     C_R   0.504459 0.592851 0.693125 0.000000
C39   C     C_R   0.513997 0.635521 0.753426 0.000000
N11   N     N_R   0.428033 0.648874 0.797757 0.000000
C40   C     C_R   0.496679 0.680550 0.850744 0.000000
N12   N     N_R   0.622366 0.687453 0.840563 0.000000
C41   C     C_R   0.629475 0.660130 0.778609 0.000000
C42   C     C_R   0.736745 0.650013 0.742309 0.000000
H21   H     H_    0.614710 0.542590 0.610481 0.000000
H22   H     H_    0.418478 0.568161 0.674844 0.000000
H23   H     H_    0.462058 0.693571 0.896027 0.000000
H24   H     H_    0.828943 0.669378 0.760722 0.000000
Br7   Br    Br    0.768807 0.821024 0.718271 0.000000
C43   C     C_R   0.898118 0.794259 0.768693 0.000000
C44   C     C_R   0.035558 0.778023 0.753598 0.000000
C45   C     C_R   0.125020 0.741213 0.776475 0.000000
C46   C     C_R   0.073776 0.724518 0.816214 0.000000
N13   N     N_R   0.129017 0.677203 0.831699 0.000000
C47   C     C_R   0.034358 0.675740 0.866730 0.000000
N14   N     N_R   0.919240 0.718450 0.870963 0.000000
C48   C     C_R   0.945632 0.748243 0.838254 0.000000
C49   C     C_R   0.852798 0.782458 0.814198 0.000000
H25   H     H_    0.071713 0.789714 0.720351 0.000000
H26   H     H_    0.229146 0.723397 0.760985 0.000000
H27   H     H_    0.046954 0.640886 0.884775 0.000000
H28   H     H_    0.745787 0.792973 0.824884 0.000000
Br8   Br    Br    0.476162 0.310143 0.625024 0.000000
C50   C     C_R   0.560939 0.283518 0.685315 0.000000
C51   C     C_R   0.648798 0.225325 0.666885 0.000000
C52   C     C_R   0.710372 0.204798 0.709878 0.000000
C53   C     C_R   0.684791 0.244247 0.770722 0.000000
N15   N     N_R   0.730836 0.233729 0.819916 0.000000
C54   C     C_R   0.675499 0.289146 0.868305 0.000000
N16   N     N_R   0.596801 0.332737 0.850459 0.000000
C55   C     C_R   0.603229 0.302424 0.788823 0.000000
C56   C     C_R   0.536041 0.322377 0.747100 0.000000
H29   H     H_    0.668354 0.195612 0.618562 0.000000
H30   H     H_    0.779508 0.160469 0.695871 0.000000
H31   H     H_    0.689791 0.297115 0.915732 0.000000
H32   H     H_    0.462717 0.365471 0.761910 0.000000
Br9   Br    Br    0.263280 0.762432 0.051450 0.000000
C57   C     C_R   0.323731 0.674632 0.997748 0.000000
C58   C     C_R   0.382991 0.632429 0.021977 0.000000
C59   C     C_R   0.427955 0.568738 0.983556 0.000000
C60   C     C_R   0.414125 0.548958 0.920963 0.000000
N17   N     N_R   0.447316 0.489229 0.875869 0.000000
C61   C     C_R   0.405402 0.496939 0.823562 0.000000
N18   N     N_R   0.340086 0.557954 0.835733 0.000000
C62   C     C_R   0.349985 0.589397 0.897407 0.000000
C63   C     C_R   0.305386 0.653195 0.934940 0.000000
H33   H     H_    0.392826 0.649279 0.071240 0.000000
H34   H     H_    0.466205 0.536055 0.003263 0.000000
H35   H     H_    0.428679 0.460763 0.777808 0.000000
H36   H     H_    0.258187 0.686781 0.917526 0.000000
Br10  Br    Br    0.309008 0.167377 0.899851 0.000000
C64   C     C_R   0.485025 0.177286 0.937972 0.000000
C65   C     C_R   0.507238 0.182483 0.997454 0.000000
C66   C     C_R   0.634258 0.189969 0.025476 0.000000
C67   C     C_R   0.739471 0.183378 0.989793 0.000000
N19   N     N_R   0.874196 0.170939 0.000008 0.000000
C68   C     C_R   0.930765 0.159032 0.946262 0.000000
N20   N     N_R   0.834124 0.164040 0.904104 0.000000
C69   C     C_R   0.716387 0.179301 0.932782 0.000000
C70   C     C_R   0.588862 0.181357 0.907085 0.000000
H37   H     H_    0.424019 0.182133 0.022600 0.000000
H38   H     H_    0.648407 0.200067 0.073148 0.000000
H39   H     H_    0.038141 0.142279 0.936354 0.000000
H40   H     H_    0.572781 0.179469 0.861679 0.000000
Br11  Br    Br    0.902020 0.007789 0.547440 0.000000
C71   C     C_R   0.780789 0.013205 0.605948 0.000000
C72   C     C_R   0.667999 0.981930 0.585338 0.000000
C73   C     C_R   0.578976 0.984243 0.626761 0.000000
C74   C     C_R   0.604432 0.019903 0.688013 0.000000
N21   N     N_R   0.536121 0.027333 0.736190 0.000000
C75   C     C_R   0.604857 0.065749 0.785825 0.000000
N22   N     N_R   0.710631 0.084482 0.770122 0.000000
C76   C     C_R   0.710881 0.052824 0.708238 0.000000
C77   C     C_R   0.805031 0.048255 0.668287 0.000000
H41   H     H_    0.651137 0.954654 0.536586 0.000000
H42   H     H_    0.493608 0.958698 0.611232 0.000000
H43   H     H_    0.580434 0.076383 0.831914 0.000000
H44   H     H_    0.896557 0.069565 0.684618 0.000000
Br12  Br    Br    0.367832 0.196491 0.661052 0.000000
C78   C     C_R   0.250028 0.174357 0.702992 0.000000
C79   C     C_R   0.123504 0.212351 0.722521 0.000000
C80   C     C_R   0.035588 0.196446 0.752117 0.000000
C81   C     C_R   0.078739 0.142672 0.761573 0.000000
N23   N     N_R   0.010238 0.117781 0.787919 0.000000
C82   C     C_R   0.098434 0.064630 0.785360 0.000000
N24   N     N_R   0.218853 0.055934 0.758049 0.000000
C83   C     C_R   0.202917 0.105887 0.743513 0.000000
C84   C     C_R   0.291007 0.120317 0.713289 0.000000
H45   H     H_    0.093182 0.254309 0.714079 0.000000
H46   H     H_    0.936863 0.225387 0.767170 0.000000
H47   H     H_    0.075153 0.032816 0.802906 0.000000
H48   H     H_    0.387523 0.090493 0.696623 0.000000
Br13  Br    Br    0.582565 0.750929 0.242885 0.000000
C85   C     C_R   0.544063 0.732386 0.307830 0.000000
C86   C     C_R   0.588967 0.767841 0.367633 0.000000
C87   C     C_R   0.552917 0.757734 0.415883 0.000000
C88   C     C_R   0.465799 0.714596 0.402636 0.000000
N25   N     N_R   0.417905 0.696395 0.441000 0.000000
C89   C     C_R   0.338658 0.651986 0.403846 0.000000
N26   N     N_R   0.336740 0.641900 0.343995 0.000000
C90   C     C_R   0.419638 0.681067 0.344446 0.000000
C91   C     C_R   0.464593 0.685763 0.295302 0.000000
H49   H     H_    0.652200 0.803618 0.376517 0.000000
H50   H     H_    0.588906 0.784092 0.462318 0.000000
H51   H     H_    0.290588 0.624417 0.419430 0.000000
H52   H     H_    0.432602 0.656896 0.248783 0.000000
Br14  Br    Br    0.838599 0.732832 0.242416 0.000000
C92   C     C_R   0.859092 0.655576 0.251719 0.000000
C93   C     C_R   0.754989 0.618882 0.234647 0.000000
C94   C     C_R   0.772478 0.561802 0.240232 0.000000
C95   C     C_R   0.895955 0.542682 0.262639 0.000000
N27   N     N_R   0.942401 0.488252 0.268887 0.000000
C96   C     C_R   0.077629 0.490852 0.283374 0.000000
N28   N     N_R   0.114307 0.545190 0.287043 0.000000
C97   C     C_R   0.997994 0.577229 0.275795 0.000000
C98   C     C_R   0.982541 0.634482 0.272641 0.000000
H53   H     H_    0.660655 0.634197 0.215552 0.000000
H54   H     H_    0.695702 0.531694 0.222028 0.000000
H55   H     H_    0.148252 0.452962 0.289108 0.000000
H56   H     H_    0.063355 0.662797 0.287324 0.000000
Br15  Br    Br    0.499050 0.218330 0.156490 0.000000
C99   C     C_R   0.474947 0.308948 0.185954 0.000000
C100  C     C_R   0.348341 0.340877 0.177424 0.000000
C101  C     C_R   0.325047 0.406846 0.199346 0.000000
C102  C     C_R   0.431880 0.438554 0.228194 0.000000
N29   N     N_R   0.430440 0.502009 0.255637 0.000000
C103  C     C_R   0.559480 0.508181 0.279631 0.000000
N30   N     N_R   0.642386 0.450505 0.265407 0.000000
C104  C     C_R   0.557444 0.407622 0.234962 0.000000
C105  C     C_R   0.581706 0.342304 0.215562 0.000000
H57   H     H_    0.266898 0.313924 0.154192 0.000000
H58   H     H_    0.226872 0.432258 0.193430 0.000000
H59   H     H_    0.591821 0.554020 0.307647 0.000000
H60   H     H_    0.678439 0.317899 0.224056 0.000000
Br16  Br    Br    0.965747 0.968319 0.175146 0.000000
C106  C     C_R   0.077747 0.983916 0.125796 0.000000
C107  C     C_R   0.203159 0.944863 0.106117 0.000000
C108  C     C_R   0.287413 0.956383 0.071497 0.000000
C109  C     C_R   0.241495 0.006686 0.056848 0.000000
N31   N     N_R   0.306437 0.027889 0.025682 0.000000
C110  C     C_R   0.217104 0.079508 0.025580 0.000000
N32   N     N_R   0.099728 0.090813 0.055935 0.000000
C111  C     C_R   0.118316 0.044162 0.075000 0.000000
C112  C     C_R   0.034235 0.034584 0.110577 0.000000
H61   H     H_    0.235883 0.905709 0.118628 0.000000
H62   H     H_    0.385515 0.926818 0.056935 0.000000
H63   H     H_    0.237549 0.108454 0.004151 0.000000
H64   H     H_    0.939442 0.066035 0.127956 0.000000
Br17  Br    Br    0.657488 0.230047 0.310479 0.000000
C113  C     C_R   0.635147 0.174852 0.225515 0.000000
C114  C     C_R   0.522878 0.143018 0.205787 0.000000
C115  C     C_R   0.503988 0.102892 0.144134 0.000000
C116  C     C_R   0.602760 0.093869 0.104102 0.000000
N33   N     N_R   0.609671 0.056294 0.043011 0.000000
C117  C     C_R   0.722083 0.069503 0.026261 0.000000
N34   N     N_R   0.785513 0.112570 0.074845 0.000000
C118  C     C_R   0.709400 0.126670 0.123175 0.000000
C119  C     C_R   0.728589 0.168063 0.183550 0.000000
H65   H     H_    0.449589 0.149861 0.238939 0.000000
H66   H     H_    0.416185 0.078658 0.128528 0.000000
H67   H     H_    0.755021 0.050043 0.979422 0.000000
H68   H     H_    0.814606 0.193453 0.198096 0.000000
Br18  Br    Br    0.019756 0.907031 0.886858 0.000000
C120  C     C_R   0.838323 0.926780 0.860258 0.000000
C121  C     C_R   0.815310 0.925456 0.802343 0.000000
C122  C     C_R   0.683706 0.937824 0.781331 0.000000
C123  C     C_R   0.578471 0.954023 0.820713 0.000000
N35   N     N_R   0.445056 0.973628 0.813199 0.000000
C124  C     C_R   0.390402 0.990014 0.868612 0.000000
N36   N     N_R   0.486129 0.980398 0.909096 0.000000
C125  C     C_R   0.602160 0.957568 0.877676 0.000000
C126  C     C_R   0.730188 0.942721 0.898769 0.000000
H69   H     H_    0.900645 0.912653 0.772583 0.000000
H70   H     H_    0.665937 0.933486 0.735251 0.000000
H71   H     H_    0.285437 0.011855 0.880386 0.000000
H72   H     H_    0.746274 0.944358 0.944080 0.000000
Br19  Br    Br    0.234950 0.326560 0.658219 0.000000
C127  C     C_R   0.206603 0.397009 0.637497 0.000000
C128  C     C_R   0.173666 0.386997 0.577267 0.000000
C129  C     C_R   0.142148 0.438257 0.562252 0.000000
C130  C     C_R   0.142896 0.498954 0.608888 0.000000
N37   N     N_R   0.107320 0.556252 0.606868 0.000000
C131  C     C_R   0.145547 0.598403 0.664357 0.000000
N38   N     N_R   0.199444 0.569529 0.701824 0.000000
C132  C     C_R   0.191450 0.507451 0.666089 0.000000
C133  C     C_R   0.218647 0.457890 0.682528 0.000000
H73   H     H_    0.169692 0.338864 0.542025 0.000000
H74   H     H_    0.119770 0.429776 0.515303 0.000000
H75   H     H_    0.135124 0.649103 0.677963 0.000000
H76   H     H_    0.241105 0.466657 0.729555 0.000000
Br20  Br    Br    0.132323 0.885076 0.422026 0.000000
C134  C     C_R   0.201669 0.895336 0.501287 0.000000
C135  C     C_R   0.193603 0.956486 0.549650 0.000000
C136  C     C_R   0.242823 0.964933 0.607604 0.000000
C137  C     C_R   0.302140 0.911352 0.615000 0.000000
N39   N     N_R   0.367939 0.909237 0.665226 0.000000
C138  C     C_R   0.419565 0.845220 0.645572 0.000000
N40   N     N_R   0.388751 0.808538 0.584886 0.000000
C139  C     C_R   0.314079 0.851702 0.567362 0.000000
C140  C     C_R   0.262931 0.841954 0.509801 0.000000
H77   H     H_    0.151103 0.997888 0.541694 0.000000
H78   H     H_    0.238910 0.012206 0.644994 0.000000
H79   H     H_    0.485381 0.826309 0.673659 0.000000
H80   H     H_    0.270783 0.794825 0.472009 0.000000
Br21  Br    Br    0.459082 0.375132 0.458510 0.000000
C141  C     C_R   0.431610 0.465488 0.484386 0.000000
C142  C     C_R   0.541226 0.498490 0.504613 0.000000
C143  C     C_R   0.523397 0.564254 0.524326 0.000000
C144  C     C_R   0.395966 0.595015 0.519738 0.000000
N41   N     N_R   0.352479 0.657806 0.535246 0.000000
C145  C     C_R   0.213897 0.662515 0.532041 0.000000
N42   N     N_R   0.173130 0.605013 0.515818 0.000000
C146  C     C_R   0.288895 0.563640 0.505663 0.000000
C147  C     C_R   0.301703 0.499030 0.487090 0.000000
H81   H     H_    0.639884 0.473144 0.508241 0.000000
H82   H     H_    0.600393 0.591047 0.551243 0.000000
H83   H     H_    0.145133 0.706308 0.538956 0.000000
H84   H     H_    0.213692 0.475284 0.472960 0.000000
Br22  Br    Br    0.799396 0.928153 0.651056 0.000000
C148  C     C_R   0.818838 0.838666 0.627671 0.000000
C149  C     C_R   0.944990 0.806901 0.636489 0.000000
C150  C     C_R   0.966922 0.741118 0.616607 0.000000
C151  C     C_R   0.861343 0.709194 0.586436 0.000000
N43   N     N_R   0.867684 0.645801 0.553238 0.000000
C152  C     C_R   0.743491 0.639958 0.524220 0.000000
N44   N     N_R   0.656037 0.696904 0.542813 0.000000
C153  C     C_R   0.735968 0.740045 0.579326 0.000000
C154  C     C_R   0.711478 0.805448 0.599326 0.000000
H85   H     H_    0.027716 0.833899 0.656720 0.000000
H86   H     H_    0.064626 0.715347 0.622478 0.000000
H87   H     H_    0.720119 0.595229 0.487888 0.000000
H88   H     H_    0.617426 0.829560 0.588334 0.000000
Br23  Br    Br    0.247952 0.283416 0.383000 0.000000
C155  C     C_R   0.153095 0.265437 0.306530 0.000000
C156  C     C_R   0.166547 0.202805 0.260620 0.000000
C157  C     C_R   0.099895 0.188892 0.204481 0.000000
C158  C     C_R   0.018980 0.238553 0.196390 0.000000
N45   N     N_R   0.941648 0.235761 0.146949 0.000000
C159  C     C_R   0.877134 0.297972 0.165115 0.000000
N46   N     N_R   0.911899 0.338356 0.224010 0.000000
C160  C     C_R   0.002413 0.299483 0.241890 0.000000
C161  C     C_R   0.070114 0.314756 0.297435 0.000000
H89   H     H_    0.229071 0.164597 0.268924 0.000000
H90   H     H_    0.109748 0.140501 0.168996 0.000000
H91   H     H_    0.802522 0.313082 0.136903 0.000000
H92   H     H_    0.060876 0.363223 0.332938 0.000000
Br24  Br    Br    0.792226 0.360134 0.549957 0.000000
C162  C     C_R   0.823642 0.385569 0.488672 0.000000
C163  C     C_R   0.783948 0.350411 0.427966 0.000000
C164  C     C_R   0.799784 0.369795 0.383207 0.000000
C165  C     C_R   0.860843 0.422835 0.400700 0.000000
N47   N     N_R   0.883794 0.451103 0.366042 0.000000
C166  C     C_R   0.946942 0.501080 0.405680 0.000000
N48   N     N_R   0.962312 0.505156 0.463692 0.000000
C167  C     C_R   0.904977 0.455853 0.459446 0.000000
C168  C     C_R   0.880657 0.440422 0.505426 0.000000
H93   H     H_    0.737320 0.308503 0.415957 0.000000
H94   H     H_    0.765941 0.343941 0.336289 0.000000
H95   H     H_    0.977333 0.535224 0.392940 0.000000
H96   H     H_    0.902425 0.470352 0.553065 0.000000

loop_
_geom_bond_atom_site_label_1
_geom_bond_atom_site_label_2
_geom_bond_distance
_geom_bond_site_symmetry_2
_ccdc_geom_bond_type
Zn1   N19   1.932 .      S
Zn1   N32   1.972 1_655  S
Zn1   N34   1.934 .      S
Zn1   N45   2.007 .      S
Zn2   N21   1.926 1_565  S
Zn2   N24   1.993 1_565  S
Zn2   N35   1.940 .      S
Zn2   N39   2.011 .      S
Zn3   N37   2.057 .      S
Zn3   N42   1.907 .      S
Zn3   N43   1.950 1_455  S
Zn3   N48   1.976 1_455  S
Zn4   N1    1.976 1_554  S
Zn4   N3    1.938 .      S
Zn4   N6    1.907 1_654  S
Zn4   N8    2.004 1_655  S
Zn5   N2    1.999 .      S
Zn5   N9    1.967 .      S
Zn5   N12   1.950 .      S
Zn5   N14   1.894 .      S
Zn6   N4    1.957 .      S
Zn6   N5    1.962 .      S
Zn6   N16   2.008 .      S
Zn6   N17   2.012 .      S
Zn7   N15   2.016 .      S
Zn7   N20   1.917 .      S
Zn7   N22   1.972 .      S
Zn7   N23   1.960 1_655  S
Zn8   N7    2.021 .      S
Zn8   N26   1.968 .      S
Zn8   N28   1.920 .      S
Zn8   N29   1.951 .      S
Zn9   N10   1.982 .      S
Zn9   N31   1.951 1_566  S
Zn9   N33   1.958 1_566  S
Zn9   N36   1.922 .      S
Zn10  N11   1.893 .      S
Zn10  N13   1.899 .      S
Zn10  N18   1.996 .      S
Zn10  N38   2.036 .      S
Zn11  N25   1.956 .      S
Zn11  N40   2.010 .      S
Zn11  N41   1.955 .      S
Zn11  N44   1.998 .      S
Zn12  N27   1.945 .      S
Zn12  N30   1.995 .      S
Zn12  N46   2.007 .      S
Zn12  N47   1.959 .      S
Br1   C1    1.906 .      S
C2    H1    1.081 .      S
C3    H2    1.072 .      S
N1    Zn4   1.976 1_556  S
C5    H3    1.077 1_556  S
C7    H4    1.067 .      S
H3    C5    1.077 1_554  S
Br2   C8    1.900 .      S
C9    H5    1.081 .      S
C10   H6    1.080 .      S
C12   H7    1.078 .      S
C14   H8    1.068 .      S
Br3   C15   1.906 .      S
C16   H9    1.060 .      S
C17   H10   1.081 .      S
C19   H11   1.068 .      S
N6    Zn4   1.907 1_456  S
C21   H12   1.066 .      S
Br4   C22   1.905 .      S
C23   H13   1.081 .      S
C24   H14   1.076 .      S
C26   H15   1.080 .      S
N8    Zn4   2.004 1_455  S
C28   H16   1.078 .      S
Br5   C29   1.906 .      S
C30   H17   1.080 .      S
C31   H18   1.073 .      S
C33   H19   1.080 .      S
C35   H20   1.069 .      S
Br6   C36   1.884 .      S
C37   H21   1.071 .      S
C38   H22   1.075 .      S
C40   H23   1.076 .      S
C42   H24   1.073 .      S
Br7   C43   1.907 .      S
C44   H25   1.073 .      S
C45   H26   1.081 .      S
C47   H27   1.075 .      S
C49   H28   1.080 .      S
Br8   C50   1.906 .      S
C51   H29   1.081 .      S
C52   H30   1.069 .      S
C54   H31   1.081 .      S
C56   H32   1.069 .      S
Br9   C57   1.906 1_554  S
C57   Br9   1.906 1_556  S
C58   H33   1.081 .      S
C59   H34   1.073 1_556  S
C61   H35   1.072 .      S
C63   H36   1.071 .      S
H34   C59   1.073 1_554  S
Br10  C64   1.908 .      S
C65   H37   1.081 1_556  S
C66   H38   1.074 .      S
C68   H39   1.081 1_655  S
C70   H40   1.081 .      S
H37   C65   1.081 1_554  S
H39   C68   1.081 1_455  S
Br11  C71   1.902 .      S
C72   H41   1.081 .      S
C73   H42   1.077 .      S
N21   Zn2   1.926 1_545  S
C75   H43   1.076 .      S
C77   H44   1.081 .      S
Br12  C78   1.906 .      S
C79   H45   1.081 .      S
C80   H46   1.079 1_455  S
N23   Zn7   1.960 1_455  S
C82   H47   1.081 .      S
N24   Zn2   1.993 1_545  S
C84   H48   1.074 .      S
H46   C80   1.079 1_655  S
Br13  C85   1.904 .      S
C86   H49   1.081 .      S
C87   H50   1.081 .      S
C89   H51   1.081 .      S
C91   H52   1.081 .      S
Br14  C92   1.905 .      S
C93   H53   1.080 .      S
C94   H54   1.070 .      S
C96   H55   1.081 .      S
C98   H56   1.076 1_655  S
H56   C98   1.076 1_455  S
Br15  C99   1.902 .      S
C100  H57   1.081 .      S
C101  H58   1.080 .      S
C103  H59   1.082 .      S
C105  H60   1.078 .      S
Br16  C106  1.906 1_655  S
C106  Br16  1.906 1_455  S
C107  H61   1.081 .      S
C108  H62   1.077 .      S
N31   Zn9   1.951 1_544  S
C110  H63   1.081 .      S
N32   Zn1   1.972 1_455  S
C112  H64   1.076 1_455  S
H64   C112  1.076 1_655  S
Br17  C113  1.906 .      S
C114  H65   1.079 .      S
C115  H66   1.081 .      S
N33   Zn9   1.958 1_544  S
C117  H67   1.080 1_554  S
C119  H68   1.080 .      S
H67   C117  1.080 1_556  S
Br18  C120  1.906 1_455  S
C120  Br18  1.906 1_655  S
C121  H69   1.081 .      S
C122  H70   1.078 .      S
C124  H71   1.081 1_565  S
C126  H72   1.081 .      S
H71   C124  1.081 1_545  S
Br19  C127  1.906 .      S
C128  H73   1.081 .      S
C129  H74   1.075 .      S
C131  H75   1.076 .      S
C133  H76   1.075 .      S
Br20  C134  1.906 .      S
C135  H77   1.080 .      S
C136  H78   1.077 1_565  S
C138  H79   1.081 .      S
C140  H80   1.076 .      S
H78   C136  1.077 1_545  S
Br21  C141  1.906 .      S
C142  H81   1.069 .      S
C143  H82   1.065 .      S
C145  H83   1.080 .      S
C147  H84   1.076 .      S
Br22  C148  1.901 .      S
C149  H85   1.081 1_655  S
C150  H86   1.080 1_655  S
N43   Zn3   1.950 1_655  S
C152  H87   1.082 .      S
C154  H88   1.077 .      S
H85   C149  1.081 1_455  S
H86   C150  1.080 1_455  S
Br23  C155  1.906 .      S
C156  H89   1.080 .      S
C157  H90   1.074 .      S
C159  H91   1.081 .      S
C161  H92   1.076 .      S
Br24  C162  1.906 .      S
C163  H93   1.081 .      S
C164  H94   1.081 .      S
C166  H95   1.081 .      S
N48   Zn3   1.976 1_655  S
C168  H96   1.080 .      S
C1    C2    1.386 .      A
C1    C7    1.382 .      A
C2    C3    1.384 .      A
C3    C4    1.379 .      A
C4    N1    1.345 .      A
C4    C6    1.347 .      A
N1    C5    1.373 .      A
C5    N2    1.376 .      A
N2    C6    1.343 .      A
C6    C7    1.368 .      A
C8    C9    1.392 .      A
C8    C14   1.378 .      A
C9    C10   1.388 .      A
C10   C11   1.375 .      A
C11   N3    1.346 .      A
C11   C13   1.357 .      A
N3    C12   1.364 1_554  A
C12   N3    1.364 1_556  A
C12   N4    1.356 .      A
N4    C13   1.341 1_556  A
C13   N4    1.341 1_554  A
C13   C14   1.361 .      A
C15   C16   1.380 1_554  A
C15   C21   1.368 .      A
C16   C15   1.380 1_556  A
C16   C17   1.393 .      A
C17   C18   1.374 .      A
C18   N5    1.354 .      A
C18   C20   1.356 .      A
N5    C19   1.364 .      A
C19   N6    1.348 .      A
N6    C20   1.331 .      A
C20   C21   1.362 1_556  A
C21   C20   1.362 1_554  A
C22   C23   1.391 .      A
C22   C28   1.385 .      A
C23   C24   1.385 .      A
C24   C25   1.375 .      A
C25   N7    1.351 .      A
C25   C27   1.364 .      A
N7    C26   1.373 .      A
C26   N8    1.373 .      A
N8    C27   1.343 .      A
C27   C28   1.371 .      A
C29   C30   1.389 .      A
C29   C35   1.384 .      A
C30   C31   1.385 .      A
C31   C32   1.369 .      A
C32   N9    1.342 1_554  A
C32   C34   1.357 .      A
N9    C32   1.342 1_556  A
N9    C33   1.368 .      A
C33   N10   1.366 .      A
N10   C34   1.346 1_556  A
C34   N10   1.346 1_554  A
C34   C35   1.369 .      A
C36   C37   1.382 .      A
C36   C42   1.382 .      A
C37   C38   1.371 .      A
C38   C39   1.366 .      A
C39   N11   1.331 .      A
C39   C41   1.355 .      A
N11   C40   1.360 .      A
C40   N12   1.354 .      A
N12   C41   1.351 .      A
C41   C42   1.372 .      A
C43   C44   1.392 1_655  A
C43   C49   1.387 .      A
C44   C43   1.392 1_455  A
C44   C45   1.378 .      A
C45   C46   1.364 .      A
C46   N13   1.339 .      A
C46   C48   1.354 1_455  A
N13   C47   1.347 .      A
C47   N14   1.356 1_455  A
N14   C47   1.356 1_655  A
N14   C48   1.343 .      A
C48   C46   1.354 1_655  A
C48   C49   1.372 .      A
C50   C51   1.389 .      A
C50   C56   1.385 .      A
C51   C52   1.384 .      A
C52   C53   1.370 .      A
C53   N15   1.347 .      A
C53   C55   1.360 .      A
N15   C54   1.372 .      A
C54   N16   1.374 .      A
N16   C55   1.344 .      A
C55   C56   1.368 .      A
C57   C58   1.385 1_556  A
C57   C63   1.382 .      A
C58   C57   1.385 1_554  A
C58   C59   1.382 1_554  A
C59   C58   1.382 1_556  A
C59   C60   1.379 .      A
C60   N17   1.348 .      A
C60   C62   1.353 .      A
N17   C61   1.377 .      A
C61   N18   1.374 .      A
N18   C62   1.347 .      A
C62   C63   1.378 .      A
C64   C65   1.394 .      A
C64   C70   1.379 .      A
C65   C66   1.382 1_556  A
C66   C65   1.382 1_554  A
C66   C67   1.369 1_554  A
C67   C66   1.369 1_556  A
C67   N19   1.344 1_556  A
C67   C69   1.345 .      A
N19   C67   1.344 1_554  A
N19   C68   1.364 1_554  A
C68   N19   1.364 1_556  A
C68   N20   1.365 .      A
N20   C69   1.332 .      A
C69   C70   1.364 .      A
C71   C72   1.391 1_545  A
C71   C77   1.387 .      A
C72   C71   1.391 1_565  A
C72   C73   1.383 .      A
C73   C74   1.371 1_565  A
C74   C73   1.371 1_545  A
C74   N21   1.340 .      A
C74   C76   1.357 .      A
N21   C75   1.358 .      A
C75   N22   1.364 .      A
N22   C76   1.349 .      A
C76   C77   1.373 .      A
C78   C79   1.391 .      A
C78   C84   1.386 .      A
C79   C80   1.384 .      A
C80   C81   1.371 .      A
C81   N23   1.339 .      A
C81   C83   1.358 .      A
N23   C82   1.369 .      A
C82   N24   1.367 .      A
N24   C83   1.352 .      A
C83   C84   1.375 .      A
C85   C86   1.394 .      A
C85   C91   1.384 .      A
C86   C87   1.387 .      A
C87   C88   1.372 .      A
C88   N25   1.343 .      A
C88   C90   1.360 .      A
N25   C89   1.367 .      A
C89   N26   1.364 .      A
N26   C90   1.347 .      A
C90   C91   1.371 .      A
C92   C93   1.391 .      A
C92   C98   1.376 .      A
C93   C94   1.389 .      A
C94   C95   1.377 .      A
C95   N27   1.350 .      A
C95   C97   1.349 .      A
N27   C96   1.367 1_655  A
C96   N27   1.367 1_455  A
C96   N28   1.361 .      A
N28   C97   1.336 1_455  A
C97   N28   1.336 1_655  A
C97   C98   1.365 .      A
C99   C100  1.391 .      A
C99   C105  1.390 .      A
C100  C101  1.382 .      A
C101  C102  1.369 .      A
C102  N29   1.338 .      A
C102  C104  1.361 .      A
N29   C103  1.366 .      A
C103  N30   1.367 .      A
N30   C104  1.350 .      A
C104  C105  1.375 .      A
C106  C107  1.391 .      A
C106  C112  1.385 1_565  A
C107  C108  1.384 .      A
C108  C109  1.372 1_565  A
C109  C108  1.372 1_545  A
C109  N31   1.341 .      A
C109  C111  1.355 .      A
N31   C110  1.367 .      A
C110  N32   1.365 .      A
N32   C111  1.349 .      A
C111  C112  1.375 .      A
C112  C106  1.385 1_545  A
C113  C114  1.393 .      A
C113  C119  1.386 .      A
C114  C115  1.387 .      A
C115  C116  1.374 .      A
C116  N33   1.349 .      A
C116  C118  1.357 .      A
N33   C117  1.362 .      A
C117  N34   1.362 .      A
N34   C118  1.341 .      A
C118  C119  1.372 .      A
C120  C121  1.391 .      A
C120  C126  1.383 .      A
C121  C122  1.388 .      A
C122  C123  1.373 .      A
C123  N35   1.347 .      A
C123  C125  1.349 .      A
N35   C124  1.364 .      A
C124  N36   1.365 .      A
N36   C125  1.336 .      A
C125  C126  1.371 .      A
C127  C128  1.390 .      A
C127  C133  1.384 .      A
C128  C129  1.386 .      A
C129  C130  1.375 .      A
C130  N37   1.353 .      A
C130  C132  1.365 .      A
N37   C131  1.374 .      A
C131  N38   1.378 .      A
N38   C132  1.343 .      A
C132  C133  1.369 .      A
C134  C135  1.391 .      A
C134  C140  1.385 .      A
C135  C136  1.384 .      A
C136  C137  1.371 .      A
C137  N39   1.344 .      A
C137  C139  1.359 .      A
N39   C138  1.373 .      A
C138  N40   1.376 .      A
N40   C139  1.346 .      A
C139  C140  1.374 .      A
C141  C142  1.385 .      A
C141  C147  1.376 .      A
C142  C143  1.385 .      A
C143  C144  1.361 .      A
C144  N41   1.348 .      A
C144  C146  1.344 .      A
N41   C145  1.364 .      A
C145  N42   1.364 .      A
N42   C146  1.328 .      A
C146  C147  1.367 .      A
C148  C149  1.388 .      A
C148  C154  1.388 .      A
C149  C150  1.383 .      A
C150  C151  1.368 .      A
C151  N43   1.338 .      A
C151  C153  1.360 .      A
N43   C152  1.363 .      A
C152  N44   1.366 .      A
N44   C153  1.350 .      A
C153  C154  1.375 .      A
C155  C156  1.390 .      A
C155  C161  1.385 .      A
C156  C157  1.384 .      A
C157  C158  1.371 .      A
C158  N45   1.345 1_455  A
C158  C160  1.359 .      A
N45   C158  1.345 1_655  A
N45   C159  1.373 .      A
C159  N46   1.374 .      A
N46   C160  1.346 1_655  A
C160  N46   1.346 1_455  A
C160  C161  1.374 .      A
C162  C163  1.393 .      A
C162  C168  1.388 .      A
C163  C164  1.386 .      A
C164  C165  1.371 .      A
C165  N47   1.342 .      A
C165  C167  1.362 .      A
N47   C166  1.365 .      A
C166  N48   1.365 .      A
N48   C167  1.350 .      A
C167  C168  1.374 .      A
