data_str_m1_o12038_SFO
_audit_creation_date              2015-10-01T06:42:50-0700
_symmetry_space_group_name_H-M    P1
_symmetry_Int_Tables_number       1
_space_group_crystal_system       triclinic
loop_
_symmetry_equiv_pos_as_xyz
  x,y,z
_cell_length_a                    15.1933602
_cell_length_b                    28.7899873
_cell_length_c                    26.9372615
_cell_angle_alpha                 115.075456
_cell_angle_beta                  95.1682068
_cell_angle_gamma                 86.5582871
_cell_volume                      10625.774174

loop_
_atom_site_label
_atom_site_type_symbol
_atom_site_description
_atom_site_fract_x
_atom_site_fract_y
_atom_site_fract_z
_atom_type_partial_charge
Zn1   Zn    Zn3+2 0.621447 0.303219 0.291203 0.000000
Zn2   Zn    Zn3+2 0.589851 0.654625 0.135668 0.000000
Zn3   Zn    Zn3+2 0.039549 0.213375 0.326488 0.000000
Zn4   Zn    Zn3+2 0.328086 0.915028 0.136898 0.000000
Zn5   Zn    Zn3+2 0.075113 0.994467 0.341394 0.000000
Zn6   Zn    Zn3+2 0.657228 0.903164 0.300739 0.000000
Zn7   Zn    Zn3+2 0.396807 0.324412 0.496915 0.000000
Zn8   Zn    Zn3+2 0.869557 0.355856 0.943193 0.000000
Zn9   Zn    Zn3+2 0.515610 0.248168 0.774243 0.000000
Zn10  Zn    Zn3+2 0.284312 0.267606 0.974560 0.000000
Zn11  Zn    Zn3+2 0.605870 0.420462 0.133548 0.000000
Zn12  Zn    Zn3+2 0.843692 0.573930 0.931355 0.000000
Zn13  Zn    Zn3+2 0.427027 0.095618 0.502432 0.000000
Zn14  Zn    Zn3+2 0.297697 0.151724 0.136239 0.000000
Zn15  Zn    Zn3+2 0.265465 0.666508 0.965570 0.000000
Zn16  Zn    Zn3+2 0.494062 0.482552 0.764085 0.000000
N1    N     N_2   0.886045 0.126059 0.059852 0.000000
C1    C     C_R   0.886994 0.162548 0.115029 0.000000
C2    C     C_R   0.846317 0.209296 0.128676 0.000000
C3    C     C_R   0.830105 0.241345 0.182429 0.000000
C4    C     C_R   0.867959 0.229588 0.223569 0.000000
C5    C     C_R   0.921226 0.186744 0.209222 0.000000
C6    C     C_R   0.919603 0.150296 0.156512 0.000000
C7    C     C_R   0.847665 0.255465 0.281134 0.000000
N2    N     N_R   0.760519 0.270724 0.298096 0.000000
C8    C     C_R   0.769531 0.265921 0.344953 0.000000
C9    C     C_R   0.703534 0.252353 0.365064 0.000000
C10   C     C_R   0.723488 0.246794 0.412384 0.000000
N3    N     N_2   0.656390 0.233202 0.434570 0.000000
C11   C     C_R   0.806824 0.257687 0.439433 0.000000
C12   C     C_R   0.876286 0.258704 0.410754 0.000000
C13   C     C_R   0.854679 0.258240 0.360596 0.000000
N4    N     N_R   0.907769 0.248541 0.320414 0.000000
H1    H     H_    0.907373 0.139804 0.033681 0.000000
H2    H     H_    0.912378 0.090791 0.054638 0.000000
H3    H     H_    0.826369 0.219928 0.096803 0.000000
H4    H     H_    0.794785 0.276944 0.191723 0.000000
H5    H     H_    0.955699 0.178015 0.240122 0.000000
H6    H     H_    0.937772 0.111568 0.148834 0.000000
H7    H     H_    0.639080 0.244983 0.343338 0.000000
H8    H     H_    0.668592 0.197977 0.434598 0.000000
H9    H     H_    0.594581 0.236706 0.417694 0.000000
H10   H     H_    0.819014 0.260441 0.480587 0.000000
H11   H     H_    0.943274 0.262295 0.427791 0.000000
N5    N     N_2   0.866301 0.393728 0.554222 0.000000
C14   C     C_R   0.786277 0.381638 0.521197 0.000000
C15   C     C_R   0.780788 0.380658 0.469675 0.000000
C16   C     C_R   0.704552 0.365628 0.436065 0.000000
C17   C     C_R   0.634435 0.348380 0.452659 0.000000
C18   C     C_R   0.635930 0.357320 0.506748 0.000000
C19   C     C_R   0.711918 0.372566 0.540829 0.000000
C20   C     C_R   0.556182 0.326816 0.414486 0.000000
N6    N     N_R   0.553107 0.335447 0.367608 0.000000
C21   C     C_R   0.479550 0.365420 0.374642 0.000000
C22   C     C_R   0.481155 0.413264 0.375042 0.000000
C23   C     C_R   0.423488 0.451869 0.406400 0.000000
N7    N     N_2   0.436599 0.503149 0.416660 0.000000
C24   C     C_R   0.361771 0.441805 0.434826 0.000000
C25   C     C_R   0.365447 0.395470 0.437957 0.000000
C26   C     C_R   0.429858 0.360465 0.412254 0.000000
N8    N     N_R   0.474274 0.333377 0.436757 0.000000
H12   H     H_    0.921551 0.386617 0.532416 0.000000
H13   H     H_    0.870609 0.381700 0.585291 0.000000
H14   H     H_    0.836682 0.390448 0.454850 0.000000
H15   H     H_    0.703379 0.365299 0.395888 0.000000
H16   H     H_    0.576006 0.353855 0.522721 0.000000
H17   H     H_    0.712951 0.377676 0.582933 0.000000
H18   H     H_    0.537064 0.422662 0.360001 0.000000
H19   H     H_    0.396333 0.529027 0.444952 0.000000
H20   H     H_    0.502264 0.512180 0.425535 0.000000
H21   H     H_    0.319153 0.472110 0.460926 0.000000
H22   H     H_    0.336053 0.392742 0.470878 0.000000
N9    N     N_2   0.004569 0.781987 0.192611 0.000000
C27   C     C_R   0.914802 0.780391 0.198606 0.000000
C28   C     C_R   0.879938 0.735521 0.192990 0.000000
C29   C     C_R   0.791045 0.732969 0.195729 0.000000
C30   C     C_R   0.737482 0.775654 0.204143 0.000000
C31   C     C_R   0.772630 0.820021 0.208959 0.000000
C32   C     C_R   0.861411 0.822665 0.206126 0.000000
C33   C     C_R   0.649559 0.777828 0.221249 0.000000
N10   N     N_R   0.609123 0.731495 0.210646 0.000000
C34   C     C_R   0.579081 0.743856 0.260919 0.000000
C35   C     C_R   0.545263 0.711705 0.280094 0.000000
C36   C     C_R   0.526799 0.731269 0.334825 0.000000
N11   N     N_2   0.493056 0.698949 0.355463 0.000000
C37   C     C_R   0.539739 0.782641 0.369212 0.000000
C38   C     C_R   0.571300 0.814980 0.349370 0.000000
C39   C     C_R   0.592382 0.794924 0.295782 0.000000
N12   N     N_R   0.631947 0.819291 0.271071 0.000000
H23   H     H_    0.032643 0.746834 0.169791 0.000000
H24   H     H_    0.018782 0.811282 0.182701 0.000000
H25   H     H_    0.922515 0.702707 0.187379 0.000000
H26   H     H_    0.765197 0.697935 0.193078 0.000000
H27   H     H_    0.730652 0.853261 0.217464 0.000000
H28   H     H_    0.888781 0.858035 0.210242 0.000000
H29   H     H_    0.537822 0.671565 0.254726 0.000000
H30   H     H_    0.460924 0.718122 0.390887 0.000000
H31   H     H_    0.461236 0.667596 0.325832 0.000000
H32   H     H_    0.523600 0.797948 0.411595 0.000000
H33   H     H_    0.576944 0.854989 0.375062 0.000000
N13   N     N_2   0.940074 0.196999 0.570238 0.000000
C40   C     C_R   0.976945 0.176386 0.519197 0.000000
C41   C     C_R   0.983406 0.124624 0.491125 0.000000
C42   C     C_R   0.009983 0.104009 0.438901 0.000000
C43   C     C_R   0.039352 0.134963 0.416592 0.000000
C44   C     C_R   0.035101 0.186869 0.445357 0.000000
C45   C     C_R   0.996645 0.207530 0.494473 0.000000
C46   C     C_R   0.047045 0.112795 0.358074 0.000000
N14   N     N_R   0.038493 0.060448 0.330653 0.000000
C47   C     C_R   0.000167 0.054340 0.282555 0.000000
C48   C     C_R   0.972832 0.008754 0.242324 0.000000
C49   C     C_R   0.916466 0.011028 0.200993 0.000000
N15   N     N_2   0.888849 0.965876 0.157179 0.000000
C50   C     C_R   0.879486 0.057377 0.205771 0.000000
C51   C     C_R   0.906914 0.102609 0.248715 0.000000
C52   C     C_R   0.979828 0.100516 0.281594 0.000000
N16   N     N_R   0.017607 0.139270 0.326630 0.000000
H34   H     H_    0.904388 0.171982 0.578238 0.000000
H35   H     H_    0.912196 0.232417 0.578586 0.000000
H36   H     H_    0.957330 0.100461 0.507539 0.000000
H37   H     H_    0.001907 0.063416 0.415454 0.000000
H38   H     H_    0.054556 0.211019 0.427282 0.000000
H39   H     H_    0.983205 0.248366 0.513475 0.000000
H40   H     H_    0.990614 0.972745 0.244291 0.000000
H41   H     H_    0.876847 0.970191 0.121201 0.000000
H42   H     H_    0.927199 0.934564 0.154943 0.000000
H43   H     H_    0.824543 0.057006 0.177849 0.000000
H44   H     H_    0.865732 0.136714 0.259217 0.000000
N17   N     N_2   0.448383 0.132709 0.253358 0.000000
C53   C     C_R   0.392778 0.162982 0.294090 0.000000
C54   C     C_R   0.305460 0.151123 0.289065 0.000000
C55   C     C_R   0.250392 0.179845 0.329768 0.000000
C56   C     C_R   0.282972 0.221570 0.374536 0.000000
C57   C     C_R   0.371661 0.230704 0.380457 0.000000
C58   C     C_R   0.426372 0.202674 0.340096 0.000000
C59   C     C_R   0.224393 0.261289 0.410014 0.000000
N18   N     N_R   0.134227 0.264608 0.394019 0.000000
C60   C     C_R   0.115517 0.314193 0.427911 0.000000
C61   C     C_R   0.043452 0.343702 0.422871 0.000000
C62   C     C_R   0.044715 0.396264 0.455002 0.000000
N19   N     N_2   0.982140 0.429179 0.443478 0.000000
C63   C     C_R   0.111717 0.417470 0.495716 0.000000
C64   C     C_R   0.183536 0.387714 0.500613 0.000000
C65   C     C_R   0.187299 0.337229 0.463639 0.000000
N20   N     N_R   0.259404 0.305650 0.453361 0.000000
H45   H     H_    0.507370 0.149418 0.256412 0.000000
H46   H     H_    0.415736 0.117238 0.215229 0.000000
H47   H     H_    0.282058 0.117773 0.253966 0.000000
H48   H     H_    0.182478 0.169620 0.326289 0.000000
H49   H     H_    0.399079 0.259722 0.416641 0.000000
H50   H     H_    0.494505 0.212681 0.344259 0.000000
H51   H     H_    0.990791 0.327591 0.391846 0.000000
H52   H     H_    0.965065 0.461854 0.476947 0.000000
H53   H     H_    0.933940 0.411622 0.412845 0.000000
H54   H     H_    0.111449 0.458344 0.520834 0.000000
H55   H     H_    0.238280 0.405010 0.529611 0.000000
N21   N     N_2   0.419427 0.118236 0.383747 0.000000
C66   C     C_R   0.364735 0.084668 0.342529 0.000000
C67   C     C_R   0.394246 0.051878 0.292489 0.000000
C68   C     C_R   0.337556 0.017122 0.254441 0.000000
C69   C     C_R   0.255897 0.012653 0.269547 0.000000
C70   C     C_R   0.231289 0.045351 0.319992 0.000000
C71   C     C_R   0.281846 0.083364 0.355044 0.000000
C72   C     C_R   0.206767 0.966380 0.241862 0.000000
N22   N     N_R   0.239365 0.925345 0.197416 0.000000
C73   C     C_R   0.209113 0.886048 0.204605 0.000000
C74   C     C_R   0.241899 0.837465 0.183551 0.000000
C75   C     C_R   0.213637 0.804696 0.203458 0.000000
N23   N     N_2   0.239718 0.753509 0.180047 0.000000
C76   C     C_R   0.163922 0.821961 0.248402 0.000000
C77   C     C_R   0.129423 0.870753 0.268047 0.000000
C78   C     C_R   0.154486 0.902366 0.246545 0.000000
N24   N     N_R   0.148848 0.953373 0.270819 0.000000
H56   H     H_    0.386451 0.152336 0.402390 0.000000
H57   H     H_    0.431254 0.102258 0.411280 0.000000
H58   H     H_    0.460533 0.053332 0.282673 0.000000
H59   H     H_    0.360911 0.991107 0.215977 0.000000
H60   H     H_    0.179370 0.037489 0.336916 0.000000
H61   H     H_    0.260407 0.107721 0.395384 0.000000
H62   H     H_    0.292280 0.826277 0.154881 0.000000
H63   H     H_    0.251424 0.740553 0.210109 0.000000
H64   H     H_    0.287354 0.745843 0.152691 0.000000
H65   H     H_    0.146887 0.796362 0.265859 0.000000
H66   H     H_    0.089327 0.884467 0.301670 0.000000
N25   N     N_2   0.349684 0.783544 0.309407 0.000000
C79   C     C_R   0.386130 0.815052 0.288613 0.000000
C80   C     C_R   0.401834 0.865811 0.321778 0.000000
C81   C     C_R   0.428338 0.898109 0.300755 0.000000
C82   C     C_R   0.445416 0.878342 0.246620 0.000000
C83   C     C_R   0.442533 0.826476 0.215547 0.000000
C84   C     C_R   0.411553 0.794815 0.235867 0.000000
C85   C     C_R   0.488894 0.907855 0.224746 0.000000
N26   N     N_R   0.579821 0.912319 0.233892 0.000000
C86   C     C_R   0.600893 0.918537 0.189259 0.000000
C87   C     C_R   0.683095 0.918521 0.171251 0.000000
C88   C     C_R   0.686334 0.912757 0.117376 0.000000
N27   N     N_2   0.766497 0.899627 0.091947 0.000000
C89   C     C_R   0.609302 0.908571 0.084257 0.000000
C90   C     C_R   0.528627 0.913676 0.104835 0.000000
C91   C     C_R   0.526208 0.918133 0.156653 0.000000
N28   N     N_R   0.453626 0.912718 0.177809 0.000000
H67   H     H_    0.355971 0.796497 0.351402 0.000000
H68   H     H_    0.358213 0.744755 0.286600 0.000000
H69   H     H_    0.400138 0.879491 0.364885 0.000000
H70   H     H_    0.438722 0.938086 0.326979 0.000000
H71   H     H_    0.466908 0.810750 0.175425 0.000000
H72   H     H_    0.410467 0.754098 0.210908 0.000000
H73   H     H_    0.743084 0.919198 0.196243 0.000000
H74   H     H_    0.759705 0.884189 0.049713 0.000000
H75   H     H_    0.808906 0.879451 0.107758 0.000000
H76   H     H_    0.612243 0.899656 0.041227 0.000000
H77   H     H_    0.468919 0.909734 0.079655 0.000000
N29   N     N_2   0.797200 0.157648 0.459071 0.000000
C92   C     C_R   0.794773 0.107025 0.421181 0.000000
C93   C     C_R   0.812022 0.095717 0.368224 0.000000
C94   C     C_R   0.825572 0.045914 0.332947 0.000000
C95   C     C_R   0.824411 0.008645 0.351254 0.000000
C96   C     C_R   0.802671 0.019794 0.403609 0.000000
C97   C     C_R   0.786353 0.069364 0.438751 0.000000
C98   C     C_R   0.859436 0.958386 0.320819 0.000000
N30   N     N_R   0.949070 0.951576 0.335602 0.000000
C99   C     C_R   0.942737 0.910502 0.347313 0.000000
C100  C     C_R   0.001139 0.895903 0.380665 0.000000
C101  C     C_R   0.977301 0.857160 0.394302 0.000000
N31   N     N_2   0.032188 0.843662 0.431451 0.000000
C102  C     C_R   0.896696 0.833538 0.374288 0.000000
C103  C     C_R   0.836313 0.850690 0.344006 0.000000
C104  C     C_R   0.859339 0.890146 0.332321 0.000000
N32   N     N_R   0.803667 0.918383 0.313497 0.000000
H78   H     H_    0.810886 0.160363 0.497898 0.000000
H79   H     H_    0.840489 0.176165 0.447489 0.000000
H80   H     H_    0.816088 0.125744 0.354517 0.000000
H81   H     H_    0.832509 0.035840 0.290696 0.000000
H82   H     H_    0.804067 0.990239 0.418390 0.000000
H83   H     H_    0.773936 0.078501 0.480799 0.000000
H84   H     H_    0.061675 0.916042 0.398141 0.000000
H85   H     H_    0.025835 0.806625 0.426789 0.000000
H86   H     H_    0.094963 0.857631 0.439730 0.000000
H87   H     H_    0.878136 0.803829 0.385588 0.000000
H88   H     H_    0.771268 0.835200 0.332939 0.000000
N33   N     N_2   0.474281 0.433640 0.020391 0.000000
C105  C     C_R   0.524104 0.406159 0.975720 0.000000
C106  C     C_R   0.488619 0.365719 0.931297 0.000000
C107  C     C_R   0.540150 0.338512 0.889263 0.000000
C108  C     C_R   0.628239 0.347947 0.893005 0.000000
C109  C     C_R   0.662156 0.390464 0.935715 0.000000
C110  C     C_R   0.609465 0.419464 0.977057 0.000000
C111  C     C_R   0.685924 0.306714 0.859925 0.000000
N34   N     N_R   0.650420 0.261811 0.818074 0.000000
C112  C     C_R   0.722740 0.230752 0.806499 0.000000
C113  C     C_R   0.727580 0.181568 0.766450 0.000000
C114  C     C_R   0.806748 0.154535 0.763513 0.000000
N35   N     N_2   0.814079 0.103324 0.724089 0.000000
C115  C     C_R   0.878512 0.177281 0.800096 0.000000
C116  C     C_R   0.874254 0.228056 0.838373 0.000000
C117  C     C_R   0.795735 0.254786 0.840495 0.000000
N36   N     N_R   0.776134 0.303853 0.875659 0.000000
H89   H     H_    0.416635 0.416633 0.019565 0.000000
H90   H     H_    0.512133 0.448363 0.056885 0.000000
H91   H     H_    0.422844 0.353399 0.929979 0.000000
H92   H     H_    0.511992 0.307428 0.855682 0.000000
H93   H     H_    0.730117 0.399495 0.938781 0.000000
H94   H     H_    0.634798 0.451908 0.011645 0.000000
H95   H     H_    0.670956 0.164322 0.738673 0.000000
H96   H     H_    0.877928 0.090700 0.714940 0.000000
H97   H     H_    0.768296 0.093879 0.690977 0.000000
H98   H     H_    0.938531 0.154906 0.798588 0.000000
H99   H     H_    0.930497 0.245269 0.866184 0.000000
N37   N     N_2   0.973936 0.284597 0.161864 0.000000
C118  C     C_R   0.996792 0.289427 0.115474 0.000000
C119  C     C_R   0.003848 0.337265 0.117360 0.000000
C120  C     C_R   0.028184 0.342401 0.072616 0.000000
C121  C     C_R   0.039711 0.299503 0.025057 0.000000
C122  C     C_R   0.029660 0.251606 0.022458 0.000000
C123  C     C_R   0.011429 0.246303 0.068499 0.000000
C124  C     C_R   0.064288 0.305119 0.977799 0.000000
N38   N     N_R   0.005150 0.323914 0.947145 0.000000
C125  C     C_R   0.061089 0.327118 0.913154 0.000000
C126  C     C_R   0.040609 0.332371 0.866277 0.000000
C127  C     C_R   0.110072 0.335861 0.838742 0.000000
N39   N     N_2   0.093481 0.336769 0.787908 0.000000
C128  C     C_R   0.196308 0.337905 0.860145 0.000000
C129  C     C_R   0.215051 0.328210 0.905502 0.000000
C130  C     C_R   0.146257 0.317498 0.926753 0.000000
N40   N     N_R   0.152336 0.298609 0.963984 0.000000
H100  H     H_    0.961317 0.318199 0.195117 0.000000
H101  H     H_    0.004470 0.254139 0.167306 0.000000
H102  H     H_    0.994700 0.370702 0.154552 0.000000
H103  H     H_    0.040224 0.379909 0.075495 0.000000
H104  H     H_    0.032018 0.218741 0.983869 0.000000
H105  H     H_    0.005126 0.208662 0.067058 0.000000
H106  H     H_    0.973940 0.327876 0.849372 0.000000
H107  H     H_    0.093735 0.300448 0.756657 0.000000
H108  H     H_    0.131085 0.363232 0.784186 0.000000
H109  H     H_    0.249556 0.342390 0.838801 0.000000
H110  H     H_    0.281138 0.327225 0.922953 0.000000
N41   N     N_2   0.886051 0.603830 0.215869 0.000000
C131  C     C_R   0.855895 0.556788 0.174451 0.000000
C132  C     C_R   0.886571 0.511707 0.175866 0.000000
C133  C     C_R   0.860196 0.465572 0.134191 0.000000
C134  C     C_R   0.798254 0.463648 0.092788 0.000000
C135  C     C_R   0.768716 0.509223 0.091114 0.000000
C136  C     C_R   0.799373 0.555425 0.130825 0.000000
C137  C     C_R   0.761527 0.413149 0.056788 0.000000
N42   N     N_R   0.811706 0.374978 0.017552 0.000000
C138  C     C_R   0.799600 0.334089 0.026921 0.000000
C139  C     C_R   0.834160 0.285954 0.999177 0.000000
C140  C     C_R   0.806117 0.247775 0.011413 0.000000
N43   N     N_2   0.840804 0.197440 0.985076 0.000000
C141  C     C_R   0.738464 0.258334 0.046427 0.000000
C142  C     C_R   0.708439 0.307926 0.076117 0.000000
C143  C     C_R   0.740738 0.345028 0.065402 0.000000
N44   N     N_R   0.709862 0.393408 0.082445 0.000000
H111  H     H_    0.943153 0.601835 0.238594 0.000000
H112  H     H_    0.876252 0.635057 0.206800 0.000000
H113  H     H_    0.935108 0.512972 0.208081 0.000000
H114  H     H_    0.889494 0.430163 0.133083 0.000000
H115  H     H_    0.723413 0.509584 0.058837 0.000000
H116  H     H_    0.777360 0.590769 0.128424 0.000000
H117  H     H_    0.877879 0.277658 0.967024 0.000000
H118  H     H_    0.802237 0.169264 0.984963 0.000000
H119  H     H_    0.871366 0.189760 0.949758 0.000000
H120  H     H_    0.707521 0.226836 0.048886 0.000000
H121  H     H_    0.653508 0.317488 0.101191 0.000000
N45   N     N_2   0.006663 0.382166 0.713414 0.000000
C144  C     C_R   0.959568 0.401552 0.760646 0.000000
C145  C     C_R   0.955150 0.452929 0.790933 0.000000
C146  C     C_R   0.914569 0.471573 0.838902 0.000000
C147  C     C_R   0.875582 0.439283 0.855833 0.000000
C148  C     C_R   0.874325 0.388273 0.823629 0.000000
C149  C     C_R   0.922807 0.369284 0.778588 0.000000
C150  C     C_R   0.864053 0.457919 0.913361 0.000000
N46   N     N_R   0.873838 0.509379 0.944785 0.000000
C151  C     C_R   0.898900 0.511568 0.994352 0.000000
C152  C     C_R   0.923295 0.553990 0.040462 0.000000
C153  C     C_R   0.967776 0.545962 0.083117 0.000000
N47   N     N_2   0.004470 0.587841 0.128462 0.000000
C154  C     C_R   0.985362 0.496521 0.078526 0.000000
C155  C     C_R   0.951568 0.454828 0.033417 0.000000
C156  C     C_R   0.906348 0.463733 0.992400 0.000000
N48   N     N_R   0.879889 0.428090 0.942611 0.000000
H122  H     H_    0.055224 0.406167 0.715196 0.000000
H123  H     H_    0.025093 0.344478 0.701596 0.000000
H124  H     H_    0.988867 0.478430 0.779338 0.000000
H125  H     H_    0.920263 0.511838 0.864300 0.000000
H126  H     H_    0.844675 0.362731 0.836815 0.000000
H127  H     H_    0.931980 0.328285 0.757743 0.000000
H128  H     H_    0.918269 0.591819 0.041313 0.000000
H129  H     H_    0.030073 0.580463 0.161090 0.000000
H130  H     H_    0.971903 0.622209 0.136181 0.000000
H131  H     H_    0.025807 0.490260 0.110340 0.000000
H132  H     H_    0.964588 0.416365 0.029037 0.000000
N49   N     N_2   0.855205 0.310941 0.661027 0.000000
C157  C     C_R   0.787765 0.327623 0.697595 0.000000
C158  C     C_R   0.758876 0.295937 0.718802 0.000000
C159  C     C_R   0.682340 0.309248 0.745812 0.000000
C160  C     C_R   0.641209 0.356481 0.758874 0.000000
C161  C     C_R   0.679565 0.390362 0.744559 0.000000
C162  C     C_R   0.750065 0.375559 0.712077 0.000000
C163  C     C_R   0.547403 0.364944 0.771565 0.000000
N50   N     N_R   0.496286 0.324937 0.770157 0.000000
C164  C     C_R   0.415013 0.344383 0.766136 0.000000
C165  C     C_R   0.342400 0.316245 0.745321 0.000000
C166  C     C_R   0.269422 0.338607 0.730251 0.000000
N51   N     N_2   0.201099 0.307928 0.697331 0.000000
C167  C     C_R   0.266805 0.389777 0.740531 0.000000
C168  C     C_R   0.343721 0.415775 0.754544 0.000000
C169  C     C_R   0.416316 0.392436 0.767488 0.000000
N52   N     N_R   0.497866 0.408553 0.772054 0.000000
H133  H     H_    0.900216 0.285166 0.666596 0.000000
H134  H     H_    0.875831 0.337090 0.648129 0.000000
H135  H     H_    0.785868 0.257302 0.705771 0.000000
H136  H     H_    0.644642 0.278425 0.743419 0.000000
H137  H     H_    0.644194 0.424658 0.749995 0.000000
H138  H     H_    0.773956 0.400358 0.695875 0.000000
H139  H     H_    0.348738 0.276129 0.731086 0.000000
H140  H     H_    0.168032 0.325713 0.675218 0.000000
H141  H     H_    0.219270 0.270052 0.676645 0.000000
H142  H     H_    0.207298 0.407754 0.731377 0.000000
H143  H     H_    0.347253 0.452310 0.752893 0.000000
N53   N     N_2   0.540165 0.360657 0.639023 0.000000
C170  C     C_R   0.518146 0.314182 0.638502 0.000000
C171  C     C_R   0.585246 0.282909 0.642111 0.000000
C172  C     C_R   0.571274 0.236938 0.641534 0.000000
C173  C     C_R   0.488114 0.219895 0.631623 0.000000
C174  C     C_R   0.417524 0.251734 0.630925 0.000000
C175  C     C_R   0.432476 0.299745 0.634471 0.000000
C176  C     C_R   0.477600 0.174435 0.637996 0.000000
N54   N     N_R   0.484734 0.177860 0.691291 0.000000
C177  C     C_R   0.456879 0.129723 0.680211 0.000000
C178  C     C_R   0.422096 0.112787 0.715044 0.000000
C179  C     C_R   0.389448 0.063655 0.694675 0.000000
N55   N     N_2   0.349411 0.047247 0.729525 0.000000
C180  C     C_R   0.388844 0.031983 0.639320 0.000000
C181  C     C_R   0.413033 0.050896 0.603671 0.000000
C182  C     C_R   0.443943 0.099794 0.624293 0.000000
N56   N     N_R   0.454910 0.126562 0.594831 0.000000
H144  H     H_    0.600717 0.359381 0.624428 0.000000
H145  H     H_    0.541159 0.388200 0.678264 0.000000
H146  H     H_    0.650052 0.293656 0.641469 0.000000
H147  H     H_    0.625972 0.212929 0.646130 0.000000
H148  H     H_    0.351383 0.239681 0.629687 0.000000
H149  H     H_    0.378155 0.325019 0.633601 0.000000
H150  H     H_    0.407465 0.138502 0.755239 0.000000
H151  H     H_    0.348701 0.008064 0.716150 0.000000
H152  H     H_    0.364610 0.068210 0.770742 0.000000
H153  H     H_    0.361533 0.994136 0.623228 0.000000
H154  H     H_    0.402746 0.028690 0.560562 0.000000
N57   N     N_2   0.058951 0.172711 0.694057 0.000000
C183  C     C_R   0.132234 0.189687 0.732690 0.000000
C184  C     C_R   0.213969 0.192646 0.716356 0.000000
C185  C     C_R   0.284380 0.210825 0.754863 0.000000
C186  C     C_R   0.274517 0.228446 0.810217 0.000000
C187  C     C_R   0.195077 0.218493 0.824692 0.000000
C188  C     C_R   0.123827 0.201373 0.786977 0.000000
C189  C     C_R   0.351500 0.245776 0.851566 0.000000
N58   N     N_R   0.434457 0.233748 0.830088 0.000000
C190  C     C_R   0.464689 0.199102 0.849581 0.000000
C191  C     C_R   0.527934 0.161380 0.827312 0.000000
C192  C     C_R   0.525549 0.117212 0.835979 0.000000
N59   N     N_2   0.583421 0.075474 0.809250 0.000000
C193  C     C_R   0.463420 0.112900 0.868667 0.000000
C194  C     C_R   0.404606 0.153027 0.894218 0.000000
C195  C     C_R   0.408293 0.196421 0.885159 0.000000
N60   N     N_R   0.345288 0.233262 0.895786 0.000000
H155  H     H_    0.064499 0.177704 0.658869 0.000000
H156  H     H_    0.998781 0.183251 0.710905 0.000000
H157  H     H_    0.223757 0.180427 0.673373 0.000000
H158  H     H_    0.348015 0.209401 0.740687 0.000000
H159  H     H_    0.186368 0.224628 0.865848 0.000000
H160  H     H_    0.061786 0.196882 0.800524 0.000000
H161  H     H_    0.569610 0.162929 0.797880 0.000000
H162  H     H_    0.593783 0.050649 0.827762 0.000000
H163  H     H_    0.638776 0.085134 0.796672 0.000000
H164  H     H_    0.460434 0.077967 0.874180 0.000000
H165  H     H_    0.354870 0.149133 0.918243 0.000000
N61   N     N_2   0.682346 0.169871 0.905943 0.000000
C196  C     C_R   0.628731 0.211139 0.939115 0.000000
C197  C     C_R   0.640752 0.259815 0.944894 0.000000
C198  C     C_R   0.593345 0.300551 0.980984 0.000000
C199  C     C_R   0.523530 0.292680 0.004709 0.000000
C200  C     C_R   0.504424 0.243145 0.991624 0.000000
C201  C     C_R   0.562993 0.203382 0.965750 0.000000
C202  C     C_R   0.463152 0.333347 0.038886 0.000000
N62   N     N_R   0.487699 0.377739 0.086575 0.000000
C203  C     C_R   0.407247 0.394814 0.106502 0.000000
C204  C     C_R   0.388546 0.432873 0.156644 0.000000
C205  C     C_R   0.301379 0.437908 0.171597 0.000000
N63   N     N_2   0.279582 0.467145 0.226119 0.000000
C206  C     C_R   0.234637 0.411277 0.133742 0.000000
C207  C     C_R   0.254697 0.372949 0.084388 0.000000
C208  C     C_R   0.340956 0.364589 0.072556 0.000000
N64   N     N_R   0.372557 0.325050 0.029735 0.000000
H166  H     H_    0.686540 0.138305 0.914735 0.000000
H167  H     H_    0.736498 0.179209 0.892041 0.000000
H168  H     H_    0.695759 0.266501 0.927302 0.000000
H169  H     H_    0.613971 0.338212 0.992170 0.000000
H170  H     H_    0.441798 0.235485 0.000818 0.000000
H171  H     H_    0.552312 0.165355 0.962112 0.000000
H172  H     H_    0.441121 0.455724 0.183751 0.000000
H173  H     H_    0.213112 0.473989 0.231465 0.000000
H174  H     H_    0.320315 0.496632 0.249067 0.000000
H175  H     H_    0.166946 0.417129 0.144715 0.000000
H176  H     H_    0.204563 0.348158 0.058057 0.000000
N65   N     N_2   0.639244 0.260340 0.143345 0.000000
C209  C     C_R   0.555029 0.250578 0.116941 0.000000
C210  C     C_R   0.489060 0.287279 0.133834 0.000000
C211  C     C_R   0.403299 0.274176 0.116033 0.000000
C212  C     C_R   0.386225 0.224480 0.080810 0.000000
C213  C     C_R   0.452729 0.189141 0.059734 0.000000
C214  C     C_R   0.538165 0.202815 0.076760 0.000000
C215  C     C_R   0.300024 0.209086 0.057167 0.000000
N66   N     N_R   0.267895 0.215330 0.010395 0.000000
C216  C     C_R   0.207310 0.178834 0.988927 0.000000
C217  C     C_R   0.163995 0.162662 0.937771 0.000000
C218  C     C_R   0.103380 0.124253 0.922210 0.000000
N67   N     N_2   0.058110 0.106192 0.869732 0.000000
C219  C     C_R   0.085852 0.104408 0.958884 0.000000
C220  C     C_R   0.133011 0.120019 0.009444 0.000000
C221  C     C_R   0.198732 0.155053 0.022800 0.000000
N68   N     N_R   0.260402 0.171664 0.066441 0.000000
H177  H     H_    0.637056 0.277915 0.184995 0.000000
H178  H     H_    0.677007 0.227422 0.130056 0.000000
H179  H     H_    0.504367 0.326048 0.160757 0.000000
H180  H     H_    0.350176 0.302238 0.129945 0.000000
H181  H     H_    0.437742 0.151388 0.028082 0.000000
H182  H     H_    0.591084 0.175600 0.059029 0.000000
H183  H     H_    0.177859 0.179123 0.910489 0.000000
H184  H     H_    0.998525 0.089814 0.867130 0.000000
H185  H     H_    0.058613 0.130775 0.851055 0.000000
H186  H     H_    0.036680 0.075357 0.947552 0.000000
H187  H     H_    0.119218 0.103009 0.035720 0.000000
N69   N     N_2   0.523008 0.598770 0.389544 0.000000
C222  C     C_R   0.539714 0.547427 0.352886 0.000000
C223  C     C_R   0.622185 0.525500 0.353559 0.000000
C224  C     C_R   0.637428 0.474876 0.319014 0.000000
C225  C     C_R   0.570605 0.445034 0.282689 0.000000
C226  C     C_R   0.487503 0.466614 0.284701 0.000000
C227  C     C_R   0.472024 0.517656 0.319255 0.000000
C228  C     C_R   0.592633 0.393359 0.240447 0.000000
N70   N     N_R   0.639465 0.397577 0.200572 0.000000
C229  C     C_R   0.722050 0.383990 0.214058 0.000000
C230  C     C_R   0.798124 0.405082 0.210359 0.000000
C231  C     C_R   0.869852 0.409221 0.247881 0.000000
N71   N     N_2   0.940528 0.441288 0.254307 0.000000
C232  C     C_R   0.866723 0.388266 0.285161 0.000000
C233  C     C_R   0.790861 0.366255 0.287797 0.000000
C234  C     C_R   0.719754 0.363921 0.251659 0.000000
N72   N     N_R   0.636521 0.361488 0.262462 0.000000
H188  H     H_    0.577592 0.621536 0.401714 0.000000
H189  H     H_    0.465190 0.614659 0.380022 0.000000
H190  H     H_    0.675517 0.547797 0.381062 0.000000
H191  H     H_    0.703900 0.460160 0.320138 0.000000
H192  H     H_    0.435267 0.443062 0.259048 0.000000
H193  H     H_    0.406252 0.534303 0.321947 0.000000
H194  H     H_    0.794144 0.426603 0.186704 0.000000
H195  H     H_    0.993174 0.438847 0.279942 0.000000
H196  H     H_    0.956784 0.442482 0.218936 0.000000
H197  H     H_    0.920170 0.393863 0.316237 0.000000
H198  H     H_    0.783334 0.360309 0.323902 0.000000
N73   N     N_2   0.202233 0.554926 0.198633 0.000000
C235  C     C_R   0.290243 0.549993 0.184048 0.000000
C236  C     C_R   0.358256 0.569604 0.223866 0.000000
C237  C     C_R   0.443396 0.565572 0.208822 0.000000
C238  C     C_R   0.460963 0.545131 0.153884 0.000000
C239  C     C_R   0.392506 0.527351 0.114712 0.000000
C240  C     C_R   0.308747 0.527232 0.129661 0.000000
C241  C     C_R   0.553246 0.540083 0.140691 0.000000
N74   N     N_R   0.594966 0.587517 0.158441 0.000000
C242  C     C_R   0.652236 0.585169 0.198726 0.000000
C243  C     C_R   0.697058 0.624954 0.239977 0.000000
C244  C     C_R   0.741055 0.616258 0.282764 0.000000
N75   N     N_2   0.783957 0.656865 0.327219 0.000000
C245  C     C_R   0.744783 0.567390 0.281331 0.000000
C246  C     C_R   0.702706 0.527250 0.238134 0.000000
C247  C     C_R   0.656040 0.536922 0.197575 0.000000
N76   N     N_R   0.600459 0.504986 0.157269 0.000000
H199  H     H_    0.195674 0.564371 0.239499 0.000000
H200  H     H_    0.161387 0.527008 0.170884 0.000000
H201  H     H_    0.345396 0.587844 0.266872 0.000000
H202  H     H_    0.495891 0.579754 0.240845 0.000000
H203  H     H_    0.403326 0.513738 0.072413 0.000000
H204  H     H_    0.258314 0.509446 0.098086 0.000000
H205  H     H_    0.696378 0.662213 0.240005 0.000000
H206  H     H_    0.833542 0.645275 0.348417 0.000000
H207  H     H_    0.798244 0.687139 0.318760 0.000000
H208  H     H_    0.779861 0.560538 0.314420 0.000000
H209  H     H_    0.701375 0.490420 0.238434 0.000000
N77   N     N_2   0.140395 0.445787 0.011601 0.000000
C248  C     C_R   0.119552 0.486172 0.995790 0.000000
C249  C     C_R   0.130033 0.535924 0.033387 0.000000
C250  C     C_R   0.100849 0.574389 0.018864 0.000000
C251  C     C_R   0.087308 0.565512 0.965336 0.000000
C252  C     C_R   0.081553 0.515952 0.926382 0.000000
C253  C     C_R   0.089634 0.476235 0.942392 0.000000
C254  C     C_R   0.060322 0.607771 0.951667 0.000000
N78   N     N_R   0.119887 0.643786 0.951289 0.000000
C255  C     C_R   0.064000 0.669589 0.929317 0.000000
C256  C     C_R   0.084273 0.710103 0.918609 0.000000
C257  C     C_R   0.019838 0.729379 0.892146 0.000000
N79   N     N_2   0.039369 0.770135 0.879337 0.000000
C258  C     C_R   0.936893 0.707747 0.876741 0.000000
C259  C     C_R   0.916480 0.667909 0.889213 0.000000
C260  C     C_R   0.979685 0.650342 0.917231 0.000000
N80   N     N_R   0.972022 0.612147 0.933201 0.000000
H210  H     H_    0.148831 0.456000 0.053105 0.000000
H211  H     H_    0.104504 0.413823 0.989466 0.000000
H212  H     H_    0.145270 0.545054 0.076110 0.000000
H213  H     H_    0.080068 0.610664 0.049494 0.000000
H214  H     H_    0.070580 0.508466 0.883684 0.000000
H215  H     H_    0.081927 0.437380 0.911984 0.000000
H216  H     H_    0.148878 0.726285 0.930122 0.000000
H217  H     H_    0.984809 0.790920 0.873945 0.000000
H218  H     H_    0.092789 0.791126 0.902280 0.000000
H219  H     H_    0.887586 0.721958 0.854735 0.000000
H220  H     H_    0.853074 0.650507 0.876437 0.000000
N81   N     N_2   0.639471 0.731678 0.815330 0.000000
C261  C     C_R   0.632943 0.689763 0.828789 0.000000
C262  C     C_R   0.575665 0.650924 0.798307 0.000000
C263  C     C_R   0.572321 0.608970 0.810243 0.000000
C264  C     C_R   0.626291 0.604636 0.852389 0.000000
C265  C     C_R   0.678922 0.645337 0.884561 0.000000
C266  C     C_R   0.682724 0.687616 0.873112 0.000000
C267  C     C_R   0.657935 0.553458 0.846358 0.000000
N82   N     N_R   0.629001 0.515924 0.795072 0.000000
C268  C     C_R   0.703871 0.509459 0.768474 0.000000
C269  C     C_R   0.711161 0.490944 0.713029 0.000000
C270  C     C_R   0.784070 0.504449 0.694986 0.000000
N83   N     N_2   0.784880 0.495859 0.639577 0.000000
C271  C     C_R   0.852583 0.530781 0.732033 0.000000
C272  C     C_R   0.848613 0.544367 0.787397 0.000000
C273  C     C_R   0.774014 0.532809 0.804712 0.000000
N84   N     N_R   0.750014 0.553241 0.856579 0.000000
H221  H     H_    0.697458 0.751235 0.830260 0.000000
H222  H     H_    0.618997 0.724165 0.775252 0.000000
H223  H     H_    0.535031 0.652262 0.763842 0.000000
H224  H     H_    0.531489 0.578247 0.783327 0.000000
H225  H     H_    0.721815 0.642540 0.916682 0.000000
H226  H     H_    0.726682 0.718326 0.898219 0.000000
H227  H     H_    0.661026 0.467410 0.684494 0.000000
H228  H     H_    0.845691 0.496527 0.626043 0.000000
H229  H     H_    0.738966 0.470841 0.613075 0.000000
H230  H     H_    0.908512 0.542083 0.717967 0.000000
H231  H     H_    0.900907 0.565998 0.816196 0.000000
N85   N     N_2   0.474664 0.453699 0.893924 0.000000
C274  C     C_R   0.535062 0.489651 0.929140 0.000000
C275  C     C_R   0.521088 0.517752 0.983788 0.000000
C276  C     C_R   0.581657 0.551649 0.018304 0.000000
C277  C     C_R   0.658645 0.556114 0.998624 0.000000
C278  C     C_R   0.673969 0.525289 0.945177 0.000000
C279  C     C_R   0.613641 0.491766 0.910413 0.000000
C280  C     C_R   0.713849 0.599710 0.029406 0.000000
N86   N     N_R   0.683274 0.640270 0.075456 0.000000
C281  C     C_R   0.715919 0.679853 0.070128 0.000000
C282  C     C_R   0.678647 0.727157 0.088998 0.000000
C283  C     C_R   0.705038 0.759914 0.068823 0.000000
N87   N     N_2   0.670175 0.809120 0.088252 0.000000
C284  C     C_R   0.759603 0.744179 0.026271 0.000000
C285  C     C_R   0.797292 0.696208 0.007803 0.000000
C286  C     C_R   0.771149 0.664212 0.028493 0.000000
N88   N     N_R   0.772989 0.613460 0.001823 0.000000
H232  H     H_    0.431050 0.445188 0.914936 0.000000
H233  H     H_    0.507506 0.421598 0.868923 0.000000
H234  H     H_    0.464124 0.512723 0.000871 0.000000
H235  H     H_    0.566953 0.574676 0.059851 0.000000
H236  H     H_    0.730021 0.529396 0.928092 0.000000
H237  H     H_    0.627700 0.468117 0.868322 0.000000
H238  H     H_    0.624579 0.736704 0.114976 0.000000
H239  H     H_    0.657406 0.818062 0.055344 0.000000
H240  H     H_    0.620361 0.815567 0.113979 0.000000
H241  H     H_    0.775881 0.770039 0.008960 0.000000
H242  H     H_    0.839170 0.682927 0.974767 0.000000
N89   N     N_2   0.319923 0.849493 0.465576 0.000000
C287  C     C_R   0.313931 0.889572 0.448352 0.000000
C288  C     C_R   0.250971 0.889013 0.407989 0.000000
C289  C     C_R   0.244189 0.928988 0.392257 0.000000
C290  C     C_R   0.299621 0.970128 0.416040 0.000000
C291  C     C_R   0.366227 0.968182 0.453459 0.000000
C292  C     C_R   0.373221 0.928740 0.470062 0.000000
C293  C     C_R   0.263197 0.020507 0.421887 0.000000
N90   N     N_R   0.170912 0.018955 0.415210 0.000000
C294  C     C_R   0.152153 0.040696 0.468242 0.000000
C295  C     C_R   0.082343 0.028892 0.489548 0.000000
C296  C     C_R   0.082702 0.046834 0.546097 0.000000
N91   N     N_2   0.012619 0.035162 0.569527 0.000000
C297  C     C_R   0.152473 0.075707 0.579760 0.000000
C298  C     C_R   0.223895 0.085566 0.557516 0.000000
C299  C     C_R   0.224104 0.066003 0.501365 0.000000
N92   N     N_R   0.294686 0.059783 0.471494 0.000000
H243  H     H_    0.262572 0.829557 0.457917 0.000000
H244  H     H_    0.352017 0.859006 0.503783 0.000000
H245  H     H_    0.206703 0.857342 0.388297 0.000000
H246  H     H_    0.191321 0.929215 0.363638 0.000000
H247  H     H_    0.408708 0.999704 0.473904 0.000000
H248  H     H_    0.424264 0.929426 0.501021 0.000000
H249  H     H_    0.029921 0.005095 0.462822 0.000000
H250  H     H_    0.005445 0.059877 0.609938 0.000000
H251  H     H_    0.955155 0.025534 0.544482 0.000000
H252  H     H_    0.153073 0.088933 0.623747 0.000000
H253  H     H_    0.278425 0.106853 0.583827 0.000000
N93   N     N_2   0.661551 0.113453 0.265417 0.000000
C300  C     C_R   0.633416 0.088075 0.295604 0.000000
C301  C     C_R   0.647534 0.036690 0.278746 0.000000
C302  C     C_R   0.626957 0.013693 0.311609 0.000000
C303  C     C_R   0.586041 0.039797 0.359652 0.000000
C304  C     C_R   0.589335 0.091981 0.379952 0.000000
C305  C     C_R   0.602749 0.115399 0.346115 0.000000
C306  C     C_R   0.561594 0.011844 0.392002 0.000000
N94   N     N_R   0.601442 0.962859 0.378042 0.000000
C307  C     C_R   0.612463 0.962248 0.427975 0.000000
C308  C     C_R   0.667896 0.929842 0.442513 0.000000
C309  C     C_R   0.678144 0.938228 0.497237 0.000000
N95   N     N_2   0.733445 0.905108 0.513266 0.000000
C310  C     C_R   0.636324 0.980100 0.536601 0.000000
C311  C     C_R   0.584729 0.014069 0.521792 0.000000
C312  C     C_R   0.572400 0.004471 0.467295 0.000000
N96   N     N_R   0.530789 0.035944 0.446253 0.000000
H254  H     H_    0.713937 0.095384 0.242636 0.000000
H255  H     H_    0.668967 0.152177 0.288018 0.000000
H256  H     H_    0.682836 0.015413 0.242770 0.000000
H257  H     H_    0.656158 0.977293 0.303192 0.000000
H258  H     H_    0.575158 0.115044 0.420921 0.000000
H259  H     H_    0.590497 0.155388 0.359290 0.000000
H260  H     H_    0.703881 0.899212 0.412141 0.000000
H261  H     H_    0.756622 0.921064 0.553939 0.000000
H262  H     H_    0.779207 0.884493 0.485645 0.000000
H263  H     H_    0.646654 0.987574 0.579534 0.000000
H264  H     H_    0.560446 0.048965 0.552695 0.000000
N97   N     N_2   0.063922 0.269466 0.606035 0.000000
C313  C     C_R   0.138874 0.253002 0.575584 0.000000
C314  C     C_R   0.174560 0.285016 0.557799 0.000000
C315  C     C_R   0.256582 0.273659 0.538393 0.000000
C316  C     C_R   0.291494 0.224903 0.521810 0.000000
C317  C     C_R   0.250836 0.190741 0.534849 0.000000
C318  C     C_R   0.177163 0.205602 0.564480 0.000000
C319  C     C_R   0.380626 0.213378 0.503574 0.000000
N98   N     N_R   0.434217 0.252000 0.505681 0.000000
C320  C     C_R   0.515068 0.230789 0.510768 0.000000
C321  C     C_R   0.593938 0.254011 0.529056 0.000000
C322  C     C_R   0.666193 0.226896 0.539385 0.000000
N99   N     N_2   0.746474 0.251273 0.560701 0.000000
C323  C     C_R   0.657443 0.178596 0.536853 0.000000
C324  C     C_R   0.577569 0.156366 0.521553 0.000000
C325  C     C_R   0.508964 0.182610 0.507681 0.000000
N100  N     N_R   0.426005 0.168740 0.500887 0.000000
H265  H     H_    0.040014 0.305529 0.612332 0.000000
H266  H     H_    0.061121 0.257099 0.636521 0.000000
H267  H     H_    0.143180 0.321445 0.564760 0.000000
H268  H     H_    0.294361 0.304319 0.539514 0.000000
H269  H     H_    0.283375 0.155129 0.528319 0.000000
H270  H     H_    0.149207 0.180342 0.578786 0.000000
H271  H     H_    0.599029 0.293166 0.540325 0.000000
H272  H     H_    0.773793 0.239841 0.589998 0.000000
H273  H     H_    0.743262 0.290143 0.572112 0.000000
H274  H     H_    0.710575 0.159806 0.551345 0.000000
H275  H     H_    0.569396 0.120597 0.523733 0.000000
N101  N     N_2   0.217437 0.410670 0.349840 0.000000
C326  C     C_R   0.274602 0.369601 0.320097 0.000000
C327  C     C_R   0.330363 0.374708 0.285588 0.000000
C328  C     C_R   0.386476 0.334715 0.256476 0.000000
C329  C     C_R   0.380953 0.287370 0.257314 0.000000
C330  C     C_R   0.323456 0.282443 0.291082 0.000000
C331  C     C_R   0.273243 0.323591 0.323978 0.000000
C332  C     C_R   0.438804 0.243706 0.225873 0.000000
N102  N     N_R   0.530544 0.245890 0.235980 0.000000
C333  C     C_R   0.555195 0.198952 0.199249 0.000000
C334  C     C_R   0.638380 0.178826 0.188727 0.000000
C335  C     C_R   0.647562 0.136336 0.139673 0.000000
N103  N     N_2   0.731718 0.118068 0.123276 0.000000
C336  C     C_R   0.575277 0.113663 0.104788 0.000000
C337  C     C_R   0.491949 0.127959 0.121725 0.000000
C338  C     C_R   0.484037 0.171800 0.168179 0.000000
N104  N     N_R   0.408245 0.197138 0.184029 0.000000
H276  H     H_    0.201960 0.436117 0.332519 0.000000
H277  H     H_    0.166749 0.400977 0.366251 0.000000
H278  H     H_    0.331093 0.410748 0.282791 0.000000
H279  H     H_    0.433759 0.341090 0.233159 0.000000
H280  H     H_    0.314661 0.245635 0.289819 0.000000
H281  H     H_    0.229031 0.318876 0.350390 0.000000
H282  H     H_    0.695010 0.198097 0.214096 0.000000
H283  H     H_    0.733280 0.087497 0.085531 0.000000
H284  H     H_    0.769848 0.114679 0.154773 0.000000
H285  H     H_    0.583843 0.086502 0.063103 0.000000
H286  H     H_    0.435042 0.110990 0.094348 0.000000
N105  N     N_2   0.031322 0.964426 0.077087 0.000000
C339  C     C_R   0.062420 0.013291 0.113058 0.000000
C340  C     C_R   0.099113 0.022583 0.164919 0.000000
C341  C     C_R   0.126347 0.071173 0.201019 0.000000
C342  C     C_R   0.121981 0.109629 0.183473 0.000000
C343  C     C_R   0.094558 0.098277 0.129758 0.000000
C344  C     C_R   0.062011 0.051002 0.095004 0.000000
C345  C     C_R   0.152482 0.161809 0.215741 0.000000
N106  N     N_R   0.200679 0.181516 0.188851 0.000000
C346  C     C_R   0.173897 0.230756 0.208649 0.000000
C347  C     C_R   0.193445 0.266740 0.191061 0.000000
C348  C     C_R   0.155784 0.315176 0.216719 0.000000
N107  N     N_2   0.174389 0.353268 0.199975 0.000000
C349  C     C_R   0.100380 0.326412 0.258986 0.000000
C350  C     C_R   0.081035 0.289073 0.275449 0.000000
C351  C     C_R   0.119088 0.241454 0.249321 0.000000
N108  N     N_R   0.105958 0.199396 0.257013 0.000000
H287  H     H_    0.027621 0.939177 0.094483 0.000000
H288  H     H_    0.981555 0.964249 0.048445 0.000000
H289  H     H_    0.103627 0.991737 0.177362 0.000000
H290  H     H_    0.150650 0.078901 0.242399 0.000000
H291  H     H_    0.088526 0.129123 0.117104 0.000000
H292  H     H_    0.037205 0.043383 0.053536 0.000000
H293  H     H_    0.237047 0.257780 0.158798 0.000000
H294  H     H_    0.131830 0.384600 0.213010 0.000000
H295  H     H_    0.188733 0.338062 0.159525 0.000000
H296  H     H_    0.070837 0.364222 0.278612 0.000000
H297  H     H_    0.036238 0.297098 0.306747 0.000000
N109  N     N_2   0.705268 0.991871 0.060525 0.000000
C352  C     C_R   0.620351 0.004677 0.080454 0.000000
C353  C     C_R   0.547273 0.993781 0.043883 0.000000
C354  C     C_R   0.464340 0.003386 0.062933 0.000000
C355  C     C_R   0.451992 0.022703 0.118691 0.000000
C356  C     C_R   0.525391 0.031864 0.155292 0.000000
C357  C     C_R   0.609276 0.023616 0.136131 0.000000
C358  C     C_R   0.360002 0.031373 0.134510 0.000000
N110  N     N_R   0.315667 0.985155 0.119973 0.000000
C359  C     C_R   0.255358 0.987303 0.081122 0.000000
C360  C     C_R   0.210489 0.946629 0.041353 0.000000
C361  C     C_R   0.176076 0.950815 0.994042 0.000000
N111  N     N_2   0.131336 0.909374 0.951844 0.000000
C362  C     C_R   0.193092 0.993832 0.986086 0.000000
C363  C     C_R   0.236960 0.034522 0.027419 0.000000
C364  C     C_R   0.257839 0.033222 0.077209 0.000000
N112  N     N_R   0.312702 0.066104 0.116863 0.000000
H298  H     H_    0.709715 0.990674 0.022104 0.000000
H299  H     H_    0.756549 0.008373 0.089146 0.000000
H300  H     H_    0.554634 0.977786 0.000181 0.000000
H301  H     H_    0.408985 0.994586 0.032838 0.000000
H302  H     H_    0.517713 0.043901 0.198262 0.000000
H303  H     H_    0.666722 0.029496 0.164202 0.000000
H304  H     H_    0.206550 0.911321 0.045226 0.000000
H305  H     H_    0.092037 0.919364 0.924562 0.000000
H306  H     H_    0.103153 0.885624 0.965375 0.000000
H307  H     H_    0.175194 0.994933 0.946829 0.000000
H308  H     H_    0.263257 0.064079 0.019070 0.000000
N113  N     N_2   0.556655 0.783844 0.949365 0.000000
C365  C     C_R   0.526813 0.752835 0.972957 0.000000
C366  C     C_R   0.513610 0.701485 0.942006 0.000000
C367  C     C_R   0.494759 0.670279 0.966385 0.000000
C368  C     C_R   0.479897 0.691590 0.021064 0.000000
C369  C     C_R   0.479275 0.743707 0.049668 0.000000
C370  C     C_R   0.504107 0.774215 0.026215 0.000000
C371  C     C_R   0.435135 0.663385 0.043948 0.000000
N114  N     N_R   0.344832 0.656502 0.031663 0.000000
C372  C     C_R   0.323069 0.646801 0.073810 0.000000
C373  C     C_R   0.241075 0.647009 0.089967 0.000000
C374  C     C_R   0.232282 0.645444 0.139945 0.000000
N115  N     N_2   0.148406 0.652202 0.160469 0.000000
C375  C     C_R   0.306335 0.648023 0.174643 0.000000
C376  C     C_R   0.388917 0.648229 0.158081 0.000000
C377  C     C_R   0.395521 0.646845 0.107607 0.000000
N116  N     N_R   0.468764 0.656415 0.090253 0.000000
H309  H     H_    0.543641 0.770228 0.907604 0.000000
H310  H     H_    0.546838 0.822579 0.971664 0.000000
H311  H     H_    0.513660 0.686147 0.898377 0.000000
H312  H     H_    0.487741 0.629713 0.942264 0.000000
H313  H     H_    0.455561 0.760559 0.089976 0.000000
H314  H     H_    0.502633 0.815040 0.049388 0.000000
H315  H     H_    0.186442 0.655652 0.067955 0.000000
H316  H     H_    0.149293 0.666116 0.202548 0.000000
H317  H     H_    0.103018 0.669640 0.142887 0.000000
H318  H     H_    0.299163 0.654484 0.216591 0.000000
H319  H     H_    0.446464 0.653197 0.185325 0.000000
N117  N     N_2   0.919381 0.779081 0.082874 0.000000
C378  C     C_R   0.007623 0.783372 0.075924 0.000000
C379  C     C_R   0.039318 0.830283 0.085889 0.000000
C380  C     C_R   0.127090 0.835037 0.081841 0.000000
C381  C     C_R   0.182274 0.792296 0.067099 0.000000
C382  C     C_R   0.149513 0.745889 0.056664 0.000000
C383  C     C_R   0.062606 0.741086 0.062101 0.000000
C384  C     C_R   0.268475 0.792520 0.048884 0.000000
N118  N     N_R   0.305928 0.839921 0.060437 0.000000
C385  C     C_R   0.332061 0.829888 0.009883 0.000000
C386  C     C_R   0.359983 0.864145 0.991445 0.000000
C387  C     C_R   0.374641 0.846786 0.936325 0.000000
N119  N     N_2   0.399746 0.881387 0.915900 0.000000
C388  C     C_R   0.366162 0.795296 0.901249 0.000000
C389  C     C_R   0.341962 0.760958 0.920693 0.000000
C390  C     C_R   0.320949 0.778943 0.974014 0.000000
N120  N     N_R   0.285443 0.752338 0.997966 0.000000
H320  H     H_    0.889356 0.813224 0.106462 0.000000
H321  H     H_    0.909019 0.748504 0.091592 0.000000
H322  H     H_    0.995248 0.863131 0.096458 0.000000
H323  H     H_    0.150672 0.871971 0.089123 0.000000
H324  H     H_    0.192439 0.713159 0.041879 0.000000
H325  H     H_    0.037497 0.704106 0.054242 0.000000
H326  H     H_    0.366229 0.904134 0.017978 0.000000
H327  H     H_    0.430907 0.864365 0.879857 0.000000
H328  H     H_    0.427861 0.914231 0.945297 0.000000
H329  H     H_    0.380926 0.781410 0.858740 0.000000
H330  H     H_    0.343176 0.721025 0.895300 0.000000
N121  N     N_2   0.278974 0.435166 0.949462 0.000000
C391  C     C_R   0.277170 0.474115 0.931590 0.000000
C392  C     C_R   0.307596 0.521221 0.966880 0.000000
C393  C     C_R   0.345841 0.548840 0.944751 0.000000
C394  C     C_R   0.337726 0.534402 0.890041 0.000000
C395  C     C_R   0.278556 0.497751 0.858315 0.000000
C396  C     C_R   0.256353 0.463323 0.877274 0.000000
C397  C     C_R   0.369358 0.567666 0.869358 0.000000
N122  N     N_R   0.325002 0.615309 0.885884 0.000000
C398  C     C_R   0.315916 0.619367 0.837447 0.000000
C399  C     C_R   0.258384 0.651220 0.823227 0.000000
C400  C     C_R   0.257078 0.648536 0.770630 0.000000
N123  N     N_2   0.201401 0.682225 0.755704 0.000000
C401  C     C_R   0.310792 0.612960 0.732670 0.000000
C402  C     C_R   0.362320 0.578130 0.746047 0.000000
C403  C     C_R   0.362280 0.580770 0.797953 0.000000
N124  N     N_R   0.400583 0.546777 0.816392 0.000000
H331  H     H_    0.300591 0.447673 0.990083 0.000000
H332  H     H_    0.314879 0.404552 0.924122 0.000000
H333  H     H_    0.317821 0.531778 0.010314 0.000000
H334  H     H_    0.392048 0.577396 0.968199 0.000000
H335  H     H_    0.253942 0.494656 0.818316 0.000000
H336  H     H_    0.221944 0.429133 0.850467 0.000000
H337  H     H_    0.216198 0.678246 0.852443 0.000000
H338  H     H_    0.187067 0.669611 0.714045 0.000000
H339  H     H_    0.148833 0.697280 0.779734 0.000000
H340  H     H_    0.310606 0.611221 0.691775 0.000000
H341  H     H_    0.401166 0.549503 0.716402 0.000000
N125  N     N_2   0.037639 0.488845 0.640338 0.000000
C404  C     C_R   0.126231 0.471161 0.638627 0.000000
C405  C     C_R   0.192507 0.501476 0.638502 0.000000
C406  C     C_R   0.278763 0.483700 0.636490 0.000000
C407  C     C_R   0.300558 0.436520 0.637128 0.000000
C408  C     C_R   0.233789 0.405639 0.634633 0.000000
C409  C     C_R   0.146854 0.422835 0.635497 0.000000
C410  C     C_R   0.393452 0.419013 0.633188 0.000000
N126  N     N_R   0.420225 0.398426 0.578750 0.000000
C411  C     C_R   0.478252 0.435547 0.584933 0.000000
C412  C     C_R   0.510592 0.446818 0.545201 0.000000
C413  C     C_R   0.559369 0.490401 0.560083 0.000000
N127  N     N_2   0.593692 0.501237 0.519320 0.000000
C414  C     C_R   0.572817 0.524036 0.614635 0.000000
C415  C     C_R   0.540256 0.513269 0.654488 0.000000
C416  C     C_R   0.495829 0.468474 0.639280 0.000000
N128  N     N_R   0.451716 0.455702 0.672535 0.000000
H342  H     H_    0.025365 0.517019 0.626460 0.000000
H343  H     H_    0.992460 0.460120 0.626767 0.000000
H344  H     H_    0.177214 0.538746 0.638798 0.000000
H345  H     H_    0.328714 0.506769 0.632652 0.000000
H346  H     H_    0.249775 0.368300 0.632884 0.000000
H347  H     H_    0.094759 0.398042 0.633165 0.000000
H348  H     H_    0.499870 0.423006 0.503160 0.000000
H349  H     H_    0.644917 0.526473 0.533603 0.000000
H350  H     H_    0.602696 0.469530 0.483113 0.000000
H351  H     H_    0.608658 0.558883 0.626350 0.000000
H352  H     H_    0.549836 0.539910 0.696634 0.000000

loop_
_geom_bond_atom_site_label_1
_geom_bond_atom_site_label_2
_geom_bond_distance
_geom_bond_site_symmetry_2
_ccdc_geom_bond_type
Zn1   N2    2.283 .      S
Zn1   N6    2.197 .      S
Zn1   N72   2.155 .      S
Zn1   N102  2.160 .      S
Zn2   N10   2.290 .      S
Zn2   N74   2.257 .      S
Zn2   N86   2.143 .      S
Zn2   N116  2.126 .      S
Zn3   N4    2.213 1_455  S
Zn3   N16   2.181 .      S
Zn3   N18   2.250 .      S
Zn3   N108  2.082 .      S
Zn4   N22   2.121 .      S
Zn4   N28   2.127 .      S
Zn4   N110  2.245 .      S
Zn4   N118  2.284 .      S
Zn5   N14   2.076 1_565  S
Zn5   N24   2.142 .      S
Zn5   N30   2.299 1_455  S
Zn5   N90   2.232 1_565  S
Zn6   N12   2.244 .      S
Zn6   N26   2.163 .      S
Zn6   N32   2.261 .      S
Zn6   N94   2.262 .      S
Zn7   N8    2.194 .      S
Zn7   N20   2.277 .      S
Zn7   N98   2.231 .      S
Zn7   N126  2.344 .      S
Zn8   N36   2.247 .      S
Zn8   N38   2.217 1_655  S
Zn8   N42   2.101 1_556  S
Zn8   N48   2.102 .      S
Zn9   N34   2.239 .      S
Zn9   N50   2.260 .      S
Zn9   N54   2.324 .      S
Zn9   N58   2.209 .      S
Zn10  N40   2.190 .      S
Zn10  N60   2.192 .      S
Zn10  N64   2.137 1_556  S
Zn10  N66   2.140 1_556  S
Zn11  N44   2.082 .      S
Zn11  N62   2.208 .      S
Zn11  N70   2.181 .      S
Zn11  N76   2.237 .      S
Zn12  N46   2.057 .      S
Zn12  N80   2.282 .      S
Zn12  N84   2.237 .      S
Zn12  N88   2.108 1_556  S
Zn13  N56   2.268 .      S
Zn13  N92   2.241 .      S
Zn13  N96   2.372 .      S
Zn13  N100  2.122 .      S
Zn14  N68   2.207 .      S
Zn14  N104  2.153 .      S
Zn14  N106  2.028 .      S
Zn14  N112  2.294 .      S
Zn15  N78   2.297 .      S
Zn15  N114  2.171 1_556  S
Zn15  N120  2.275 .      S
Zn15  N122  2.260 .      S
Zn16  N52   2.227 .      S
Zn16  N82   2.252 .      S
Zn16  N124  2.293 .      S
Zn16  N128  2.292 .      S
N1    C1    1.410 .      S
N1    H1    1.025 .      S
N1    H2    1.025 .      S
C2    H3    1.043 .      S
C3    H4    1.069 .      S
C4    C7    1.461 .      S
C5    H5    1.055 .      S
C6    H6    1.068 .      S
C9    H7    1.078 .      S
C10   N3    1.380 .      S
N3    H8    1.020 .      S
N3    H9    1.024 .      S
C11   H10   1.077 .      S
C12   H11   1.070 .      S
N4    Zn3   2.213 1_655  S
N5    C14   1.409 .      S
N5    H12   1.029 .      S
N5    H13   1.028 .      S
C15   H14   1.070 .      S
C16   H15   1.077 .      S
C17   C20   1.478 .      S
C18   H16   1.069 .      S
C19   H17   1.079 .      S
C22   H18   1.068 .      S
C23   N7    1.405 .      S
N7    H19   1.029 .      S
N7    H20   1.027 .      S
C24   H21   1.081 .      S
C25   H22   1.061 .      S
N9    C27   1.393 1_455  S
N9    H23   1.026 .      S
N9    H24   1.026 .      S
C27   N9    1.393 1_655  S
C28   H25   1.076 .      S
C29   H26   1.076 .      S
C30   C33   1.441 .      S
C31   H27   1.069 .      S
C32   H28   1.081 .      S
C35   H29   1.071 .      S
C36   N11   1.409 .      S
N11   H30   1.029 .      S
N11   H31   1.028 .      S
C37   H32   1.081 .      S
C38   H33   1.067 .      S
N13   C40   1.401 .      S
N13   H34   1.029 .      S
N13   H35   1.020 .      S
C41   H36   1.078 .      S
C42   H37   1.076 .      S
C43   C46   1.441 .      S
C44   H38   1.070 .      S
C45   H39   1.080 .      S
N14   Zn5   2.076 1_545  S
C48   H40   1.077 1_545  S
C49   N15   1.391 1_545  S
N15   C49   1.391 1_565  S
N15   H41   1.027 .      S
N15   H42   1.026 .      S
C50   H43   1.069 .      S
C51   H44   1.076 .      S
H40   C48   1.077 1_565  S
N17   C53   1.395 .      S
N17   H45   1.023 .      S
N17   H46   1.023 .      S
C54   H47   1.074 .      S
C55   H48   1.075 .      S
C56   C59   1.455 .      S
C57   H49   1.049 .      S
C58   H50   1.075 .      S
C61   H51   1.072 1_455  S
C62   N19   1.409 1_455  S
N19   C62   1.409 1_655  S
N19   H52   1.029 .      S
N19   H53   1.027 .      S
C63   H54   1.081 .      S
C64   H55   1.074 .      S
H51   C61   1.072 1_655  S
N21   C66   1.370 .      S
N21   H56   1.018 .      S
N21   H57   1.024 .      S
C67   H58   1.072 .      S
C68   H59   1.066 1_545  S
C69   C72   1.437 1_545  S
C70   H60   1.027 .      S
C71   H61   1.081 .      S
C72   C69   1.437 1_565  S
C74   H62   1.073 .      S
C75   N23   1.383 .      S
N23   H63   1.024 .      S
N23   H64   1.027 .      S
C76   H65   1.082 .      S
C77   H66   1.056 .      S
H59   C68   1.066 1_565  S
N25   C79   1.411 .      S
N25   H67   1.027 .      S
N25   H68   1.028 .      S
C80   H69   1.059 .      S
C81   H70   1.078 .      S
C82   C85   1.438 .      S
C83   H71   1.071 .      S
C84   H72   1.076 .      S
C87   H73   1.079 .      S
C88   N27   1.404 .      S
N27   H74   1.029 .      S
N27   H75   1.024 .      S
C89   H76   1.080 .      S
C90   H77   1.064 .      S
N29   C92   1.381 .      S
N29   H78   1.018 .      S
N29   H79   1.017 .      S
C93   H80   1.081 .      S
C94   H81   1.062 .      S
C95   C98   1.425 1_545  S
C96   H82   1.080 1_545  S
C97   H83   1.081 .      S
C98   C95   1.425 1_565  S
N30   Zn5   2.299 1_655  S
C100  H84   1.076 .      S
C101  N31   1.410 1_655  S
N31   C101  1.410 1_455  S
N31   H85   1.029 .      S
N31   H86   1.026 .      S
C102  H87   1.081 .      S
C103  H88   1.073 .      S
H82   C96   1.080 1_565  S
N33   C105  1.390 1_554  S
N33   H89   1.023 .      S
N33   H90   1.025 .      S
C105  N33   1.390 1_556  S
C106  H91   1.073 .      S
C107  H92   1.045 .      S
C108  C111  1.446 .      S
C109  H93   1.067 .      S
C110  H94   1.063 1_556  S
C113  H95   1.080 .      S
C114  N35   1.410 .      S
N35   H96   1.029 .      S
N35   H97   1.029 .      S
C115  H98   1.078 .      S
C116  H99   1.076 .      S
H94   C110  1.063 1_554  S
N37   C118  1.390 .      S
N37   H100  1.024 .      S
N37   H101  1.026 1_655  S
C119  H102  1.068 1_455  S
C120  H103  1.075 .      S
C121  C124  1.433 1_554  S
C122  H104  1.071 1_554  S
C123  H105  1.078 .      S
C124  C121  1.433 1_556  S
N38   Zn8   2.217 1_455  S
C126  H106  1.064 1_455  S
C127  N39   1.381 .      S
N39   H107  1.028 .      S
N39   H108  1.022 .      S
C128  H109  1.078 .      S
C129  H110  1.074 .      S
H101  N37   1.026 1_455  S
H102  C119  1.068 1_655  S
H104  C122  1.071 1_556  S
H106  C126  1.064 1_655  S
N41   C131  1.411 .      S
N41   H111  1.029 .      S
N41   H112  1.026 .      S
C132  H113  1.077 .      S
C133  H114  1.077 .      S
C134  C137  1.473 .      S
C135  H115  1.062 .      S
C136  H116  1.078 .      S
N42   Zn8   2.101 1_554  S
C139  H117  1.076 .      S
C140  N43   1.409 1_554  S
N43   C140  1.409 1_556  S
N43   H118  1.028 .      S
N43   H119  1.029 .      S
C141  H120  1.075 .      S
C142  H121  1.070 .      S
N45   C144  1.399 1_455  S
N45   H122  1.025 .      S
N45   H123  1.022 .      S
C144  N45   1.399 1_655  S
C145  H124  1.080 .      S
C146  H125  1.072 .      S
C147  C150  1.433 .      S
C148  H126  1.077 .      S
C149  H127  1.077 .      S
C152  H128  1.078 .      S
C153  N47   1.402 1_655  S
N47   C153  1.402 1_455  S
N47   H129  1.027 .      S
N47   H130  1.026 1_455  S
C154  H131  1.080 1_655  S
C155  H132  1.071 .      S
H130  N47   1.026 1_655  S
H131  C154  1.080 1_455  S
N49   C157  1.404 .      S
N49   H133  1.028 .      S
N49   H134  1.027 .      S
C158  H135  1.081 .      S
C159  H136  1.061 .      S
C160  C163  1.477 .      S
C161  H137  1.055 .      S
C162  H138  1.075 .      S
C165  H139  1.053 .      S
C166  N51   1.387 .      S
N51   H140  1.021 .      S
N51   H141  1.026 .      S
C167  H142  1.076 .      S
C168  H143  1.076 .      S
N53   C170  1.393 .      S
N53   H144  1.025 .      S
N53   H145  1.017 .      S
C171  H146  1.053 .      S
C172  H147  1.081 .      S
C173  C176  1.410 .      S
C174  H148  1.076 .      S
C175  H149  1.072 .      S
C178  H150  1.055 .      S
C179  N55   1.410 .      S
N55   H151  1.029 .      S
N55   H152  1.026 .      S
C180  H153  1.081 1_545  S
C181  H154  1.064 .      S
H153  C180  1.081 1_565  S
N57   C183  1.410 .      S
N57   H155  1.028 .      S
N57   H156  1.029 1_455  S
C184  H157  1.080 .      S
C185  H158  1.063 .      S
C186  C189  1.491 .      S
C187  H159  1.066 .      S
C188  H160  1.075 .      S
C191  H161  1.075 .      S
C192  N59   1.410 .      S
N59   H162  1.029 .      S
N59   H163  1.029 .      S
C193  H164  1.081 .      S
C194  H165  1.078 .      S
H156  N57   1.029 1_655  S
N61   C196  1.410 .      S
N61   H166  1.029 .      S
N61   H167  1.028 .      S
C197  H168  1.062 .      S
C198  H169  1.054 .      S
C199  C202  1.473 .      S
C200  H170  1.063 1_556  S
C201  H171  1.078 .      S
C204  H172  1.075 .      S
C205  N63   1.408 .      S
N63   H173  1.028 .      S
N63   H174  1.017 .      S
C206  H175  1.079 .      S
C207  H176  1.064 .      S
N64   Zn10  2.137 1_554  S
H170  C200  1.063 1_554  S
N65   C209  1.390 .      S
N65   H177  1.019 .      S
N65   H178  1.020 .      S
C210  H179  1.068 .      S
C211  H180  1.079 .      S
C212  C215  1.413 .      S
C213  H181  1.081 .      S
C214  H182  1.079 .      S
N66   Zn10  2.140 1_554  S
C217  H183  1.070 .      S
C218  N67   1.409 .      S
N67   H184  1.029 1_455  S
N67   H185  1.028 .      S
C219  H186  1.081 .      S
C220  H187  1.057 .      S
H184  N67   1.029 1_655  S
N69   C222  1.410 .      S
N69   H188  1.029 .      S
N69   H189  1.028 .      S
C223  H190  1.081 .      S
C224  H191  1.074 .      S
C225  C228  1.481 .      S
C226  H192  1.066 .      S
C227  H193  1.077 .      S
C230  H194  1.057 .      S
C231  N71   1.409 .      S
N71   H195  1.028 .      S
N71   H196  1.020 .      S
C232  H197  1.079 .      S
C233  H198  1.073 .      S
N73   C235  1.410 .      S
N73   H199  1.029 .      S
N73   H200  1.028 .      S
C236  H201  1.081 .      S
C237  H202  1.079 .      S
C238  C241  1.461 .      S
C239  H203  1.061 .      S
C240  H204  1.065 .      S
C243  H205  1.072 .      S
C244  N75   1.411 .      S
N75   H206  1.029 .      S
N75   H207  1.029 .      S
C245  H208  1.081 .      S
C246  H209  1.065 .      S
N77   C248  1.409 1_554  S
N77   H210  1.026 .      S
N77   H211  1.018 1_554  S
C248  N77   1.409 1_556  S
C249  H212  1.072 .      S
C250  H213  1.071 .      S
C251  C254  1.441 .      S
C252  H214  1.076 .      S
C253  H215  1.076 .      S
C256  H216  1.074 .      S
C257  N79   1.410 .      S
N79   H217  1.029 1_455  S
N79   H218  1.029 .      S
C258  H219  1.081 .      S
C259  H220  1.072 .      S
H211  N77   1.018 1_556  S
H217  N79   1.029 1_655  S
N81   C261  1.410 .      S
N81   H221  1.029 .      S
N81   H222  1.029 .      S
C262  H223  1.081 .      S
C263  H224  1.065 .      S
C264  C267  1.468 .      S
C265  H225  1.063 .      S
C266  H226  1.081 .      S
C269  H227  1.070 .      S
C270  N83   1.407 .      S
N83   H228  1.027 .      S
N83   H229  1.025 .      S
C271  H230  1.080 .      S
C272  H231  1.077 .      S
N85   C274  1.392 .      S
N85   H232  1.012 .      S
N85   H233  1.017 .      S
C275  H234  1.061 1_556  S
C276  H235  1.068 .      S
C277  C280  1.444 1_556  S
C278  H236  1.039 .      S
C279  H237  1.080 .      S
C280  C277  1.444 1_554  S
C282  H238  1.074 .      S
C283  N87   1.376 .      S
N87   H239  1.023 .      S
N87   H240  1.028 .      S
C284  H241  1.082 .      S
C285  H242  1.062 1_554  S
N88   Zn12  2.108 1_554  S
H234  C275  1.061 1_554  S
H242  C285  1.062 1_556  S
N89   C287  1.410 .      S
N89   H243  1.029 .      S
N89   H244  1.029 .      S
C288  H245  1.079 .      S
C289  H246  1.064 .      S
C290  C293  1.470 1_565  S
C291  H247  1.061 .      S
C292  H248  1.081 .      S
C293  C290  1.470 1_545  S
N90   Zn5   2.232 1_545  S
C295  H249  1.080 .      S
C296  N91   1.410 .      S
N91   H250  1.029 .      S
N91   H251  1.029 1_455  S
C297  H252  1.079 .      S
C298  H253  1.073 .      S
H251  N91   1.029 1_655  S
N93   C300  1.408 .      S
N93   H254  1.024 .      S
N93   H255  1.026 .      S
C301  H256  1.074 .      S
C302  H257  1.052 1_545  S
C303  C306  1.495 .      S
C304  H258  1.053 .      S
C305  H259  1.061 .      S
C308  H260  1.076 .      S
C309  N95   1.410 .      S
N95   H261  1.029 .      S
N95   H262  1.029 .      S
C310  H263  1.081 .      S
C311  H264  1.068 .      S
H257  C302  1.052 1_565  S
N97   C313  1.403 .      S
N97   H265  1.027 .      S
N97   H266  1.029 .      S
C314  H267  1.073 .      S
C315  H268  1.070 .      S
C316  C319  1.454 .      S
C317  H269  1.062 .      S
C318  H270  1.078 .      S
C321  H271  1.042 .      S
C322  N99   1.395 .      S
N99   H272  1.024 .      S
N99   H273  1.027 .      S
C323  H274  1.080 .      S
C324  H275  1.071 .      S
N101  C326  1.412 .      S
N101  H276  1.029 .      S
N101  H277  1.029 .      S
C327  H278  1.072 .      S
C328  H279  1.067 .      S
C329  C332  1.473 .      S
C330  H280  1.062 .      S
C331  H281  1.075 .      S
C334  H282  1.070 .      S
C335  N103  1.389 .      S
N103  H283  1.026 .      S
N103  H284  1.020 .      S
C336  H285  1.077 .      S
C337  H286  1.077 .      S
N105  C339  1.408 1_565  S
N105  H287  1.024 .      S
N105  H288  1.029 1_455  S
C339  N105  1.408 1_545  S
C340  H289  1.071 1_545  S
C341  H290  1.074 .      S
C342  C345  1.460 .      S
C343  H291  1.074 .      S
C344  H292  1.079 .      S
C347  H293  1.074 .      S
C348  N107  1.402 .      S
N107  H294  1.028 .      S
N107  H295  1.026 .      S
C349  H296  1.078 .      S
C350  H297  1.071 .      S
H288  N105  1.029 1_655  S
H289  C340  1.071 1_565  S
N109  C352  1.410 1_565  S
N109  H298  1.029 .      S
N109  H299  1.026 1_565  S
C352  N109  1.410 1_545  S
C353  H300  1.081 .      S
C354  H301  1.076 1_545  S
C355  C358  1.474 .      S
C356  H302  1.074 .      S
C357  H303  1.074 .      S
C360  H304  1.071 .      S
C361  N111  1.409 .      S
N111  H305  1.029 .      S
N111  H306  1.029 .      S
C362  H307  1.081 .      S
C363  H308  1.074 .      S
H299  N109  1.026 1_545  S
H301  C354  1.076 1_565  S
N113  C365  1.410 .      S
N113  H309  1.026 .      S
N113  H310  1.027 .      S
C366  H311  1.066 .      S
C367  H312  1.076 .      S
C368  C371  1.438 .      S
C369  H313  1.071 .      S
C370  H314  1.072 .      S
N114  Zn15  2.171 1_554  S
C373  H315  1.056 .      S
C374  N115  1.405 .      S
N115  H316  1.029 .      S
N115  H317  1.026 .      S
C375  H318  1.079 .      S
C376  H319  1.065 .      S
N117  C378  1.390 1_655  S
N117  H320  1.023 .      S
N117  H321  1.026 .      S
C378  N117  1.390 1_455  S
C379  H322  1.074 1_455  S
C380  H323  1.074 .      S
C381  C384  1.441 .      S
C382  H324  1.061 .      S
C383  H325  1.080 .      S
C386  H326  1.072 1_556  S
C387  N119  1.410 .      S
N119  H327  1.029 .      S
N119  H328  1.028 .      S
C388  H329  1.081 .      S
C389  H330  1.060 .      S
H322  C379  1.074 1_655  S
H326  C386  1.072 1_554  S
N121  C391  1.393 .      S
N121  H331  1.025 .      S
N121  H332  1.020 .      S
C392  H333  1.076 1_556  S
C393  H334  1.057 .      S
C394  C397  1.419 .      S
C395  H335  1.076 .      S
C396  H336  1.075 .      S
C399  H337  1.071 .      S
C400  N123  1.410 .      S
N123  H338  1.029 .      S
N123  H339  1.029 .      S
C401  H340  1.081 .      S
C402  H341  1.065 .      S
H333  C392  1.076 1_554  S
N125  C404  1.408 .      S
N125  H342  1.029 .      S
N125  H343  1.027 1_455  S
C405  H344  1.081 .      S
C406  H345  1.077 .      S
C407  C410  1.467 .      S
C408  H346  1.070 .      S
C409  H347  1.077 .      S
C412  H348  1.049 .      S
C413  N127  1.410 .      S
N127  H349  1.029 .      S
N127  H350  1.028 .      S
C414  H351  1.081 .      S
C415  H352  1.070 .      S
H343  N125  1.027 1_655  S
C1    C2    1.360 .      A
C1    C6    1.353 .      A
C2    C3    1.383 .      A
C3    C4    1.361 .      A
C4    C5    1.363 .      A
C5    C6    1.361 .      A
C7    N2    1.423 .      A
C7    N4    1.406 .      A
N2    C8    1.321 .      A
C8    C9    1.333 .      A
C8    C13   1.359 .      A
C9    C10   1.356 .      A
C10   C11   1.386 .      A
C11   C12   1.372 .      A
C12   C13   1.356 .      A
C13   N4    1.332 .      A
C14   C15   1.371 .      A
C14   C19   1.373 .      A
C15   C16   1.374 .      A
C16   C17   1.385 .      A
C17   C18   1.366 .      A
C18   C19   1.377 .      A
C20   N6    1.383 .      A
C20   N8    1.398 .      A
N6    C21   1.347 .      A
C21   C22   1.375 .      A
C21   C26   1.375 .      A
C22   C23   1.392 .      A
C23   C24   1.378 .      A
C24   C25   1.369 .      A
C25   C26   1.366 .      A
C26   N8    1.339 .      A
C27   C28   1.369 .      A
C27   C32   1.372 .      A
C28   C29   1.367 .      A
C29   C30   1.379 .      A
C30   C31   1.365 .      A
C31   C32   1.366 .      A
C33   N10   1.408 .      A
C33   N12   1.402 .      A
N10   C34   1.361 .      A
C34   C35   1.378 .      A
C34   C39   1.384 .      A
C35   C36   1.386 .      A
C36   C37   1.387 .      A
C37   C38   1.380 .      A
C38   C39   1.369 .      A
C39   N12   1.347 .      A
C40   C41   1.358 .      A
C40   C45   1.383 .      A
C41   C42   1.364 1_655  A
C42   C41   1.364 1_455  A
C42   C43   1.380 .      A
C43   C44   1.362 .      A
C44   C45   1.370 1_455  A
C45   C44   1.370 1_655  A
C46   N14   1.377 .      A
C46   N16   1.392 .      A
N14   C47   1.316 .      A
C47   C48   1.359 1_455  A
C47   C52   1.357 1_455  A
C48   C47   1.359 1_655  A
C48   C49   1.364 .      A
C49   C50   1.375 .      A
C50   C51   1.382 .      A
C51   C52   1.370 .      A
C52   C47   1.357 1_655  A
C52   N16   1.360 1_655  A
N16   C52   1.360 1_455  A
C53   C54   1.370 .      A
C53   C58   1.363 .      A
C54   C55   1.378 .      A
C55   C56   1.370 .      A
C56   C57   1.371 .      A
C57   C58   1.365 .      A
C59   N18   1.409 .      A
C59   N20   1.408 .      A
N18   C60   1.358 .      A
C60   C61   1.378 .      A
C60   C65   1.383 .      A
C61   C62   1.389 .      A
C62   C63   1.385 .      A
C63   C64   1.378 .      A
C64   C65   1.371 .      A
C65   N20   1.351 .      A
C66   C67   1.374 .      A
C66   C71   1.339 .      A
C67   C68   1.367 .      A
C68   C69   1.370 .      A
C69   C70   1.356 .      A
C70   C71   1.332 .      A
C72   N22   1.383 .      A
C72   N24   1.391 .      A
N22   C73   1.339 .      A
C73   C74   1.349 .      A
C73   C78   1.363 .      A
C74   C75   1.371 .      A
C75   C76   1.376 .      A
C76   C77   1.364 .      A
C77   C78   1.355 .      A
C78   N24   1.331 .      A
C79   C80   1.374 .      A
C79   C84   1.370 .      A
C80   C81   1.371 .      A
C81   C82   1.366 .      A
C82   C83   1.369 .      A
C83   C84   1.369 .      A
C85   N26   1.385 .      A
C85   N28   1.387 .      A
N26   C86   1.356 .      A
C86   C87   1.380 .      A
C86   C91   1.368 .      A
C87   C88   1.394 .      A
C88   C89   1.385 .      A
C89   C90   1.365 .      A
C90   C91   1.350 .      A
C91   N28   1.332 .      A
C92   C93   1.369 .      A
C92   C97   1.371 .      A
C93   C94   1.359 .      A
C94   C95   1.359 .      A
C95   C96   1.374 .      A
C96   C97   1.360 .      A
C98   N30   1.410 .      A
C98   N32   1.406 .      A
N30   C99   1.357 .      A
C99   C100  1.379 1_655  A
C99   C104  1.381 .      A
C100  C99   1.379 1_455  A
C100  C101  1.389 1_455  A
C101  C100  1.389 1_655  A
C101  C102  1.387 .      A
C102  C103  1.380 .      A
C103  C104  1.372 .      A
C104  N32   1.350 .      A
C105  C106  1.362 .      A
C105  C110  1.367 .      A
C106  C107  1.358 .      A
C107  C108  1.368 .      A
C108  C109  1.365 .      A
C109  C110  1.368 .      A
C111  N34   1.404 .      A
C111  N36   1.406 .      A
N34   C112  1.346 .      A
C112  C113  1.372 .      A
C112  C117  1.385 .      A
C113  C114  1.382 .      A
C114  C115  1.391 .      A
C115  C116  1.388 .      A
C116  C117  1.372 .      A
C117  N36   1.359 .      A
C118  C119  1.367 1_655  A
C118  C123  1.370 1_655  A
C119  C118  1.367 1_455  A
C119  C120  1.360 .      A
C120  C121  1.368 .      A
C121  C122  1.368 .      A
C122  C123  1.366 .      A
C123  C118  1.370 1_455  A
C124  N38   1.403 .      A
C124  N40   1.401 .      A
N38   C125  1.338 .      A
C125  C126  1.341 .      A
C125  C130  1.358 .      A
C126  C127  1.375 .      A
C127  C128  1.377 .      A
C128  C129  1.367 .      A
C129  C130  1.346 .      A
C130  N40   1.323 .      A
C131  C132  1.367 .      A
C131  C136  1.380 .      A
C132  C133  1.380 .      A
C133  C134  1.377 .      A
C134  C135  1.379 .      A
C135  C136  1.382 .      A
C137  N42   1.402 .      A
C137  N44   1.379 .      A
N42   C138  1.330 .      A
C138  C139  1.364 1_554  A
C138  C143  1.353 .      A
C139  C138  1.364 1_556  A
C139  C140  1.374 1_556  A
C140  C139  1.374 1_554  A
C140  C141  1.390 .      A
C141  C142  1.381 .      A
C142  C143  1.347 .      A
C143  N44   1.338 .      A
C144  C145  1.354 .      A
C144  C149  1.378 .      A
C145  C146  1.362 .      A
C146  C147  1.377 .      A
C147  C148  1.353 .      A
C148  C149  1.365 .      A
C150  N46   1.369 .      A
C150  N48   1.390 .      A
N46   C151  1.331 .      A
C151  C152  1.363 1_556  A
C151  C156  1.354 .      A
C152  C151  1.363 1_554  A
C152  C153  1.377 .      A
C153  C154  1.387 .      A
C154  C155  1.381 .      A
C155  C156  1.357 1_554  A
C156  C155  1.357 1_556  A
C156  N48   1.341 .      A
C157  C158  1.373 .      A
C157  C162  1.369 .      A
C158  C159  1.375 .      A
C159  C160  1.377 .      A
C160  C161  1.366 .      A
C161  C162  1.376 .      A
C163  N50   1.413 .      A
C163  N52   1.420 .      A
N50   C164  1.339 .      A
C164  C165  1.341 .      A
C164  C169  1.370 .      A
C165  C166  1.365 .      A
C166  C167  1.378 .      A
C167  C168  1.362 .      A
C168  C169  1.353 .      A
C169  N52   1.326 .      A
C170  C171  1.344 .      A
C170  C175  1.371 .      A
C171  C172  1.346 .      A
C172  C173  1.346 .      A
C173  C174  1.373 .      A
C174  C175  1.376 .      A
C176  N54   1.391 .      A
C176  N56   1.413 .      A
N54   C177  1.373 .      A
C177  C178  1.380 .      A
C177  C182  1.384 .      A
C178  C179  1.388 .      A
C179  C180  1.379 .      A
C180  C181  1.373 .      A
C181  C182  1.371 .      A
C182  N56   1.345 .      A
C183  C184  1.373 .      A
C183  C188  1.371 .      A
C184  C185  1.379 .      A
C185  C186  1.376 .      A
C186  C187  1.383 .      A
C187  C188  1.374 .      A
C189  N58   1.397 .      A
C189  N60   1.395 .      A
N58   C190  1.352 .      A
C190  C191  1.374 .      A
C190  C195  1.370 .      A
C191  C192  1.390 .      A
C192  C193  1.392 .      A
C193  C194  1.386 .      A
C194  C195  1.376 .      A
C195  N60   1.339 .      A
C196  C197  1.365 .      A
C196  C201  1.362 .      A
C197  C198  1.378 .      A
C198  C199  1.363 1_556  A
C199  C198  1.363 1_554  A
C199  C200  1.359 1_554  A
C200  C199  1.359 1_556  A
C200  C201  1.379 .      A
C202  N62   1.415 .      A
C202  N64   1.393 .      A
N62   C203  1.359 .      A
C203  C204  1.372 .      A
C203  C208  1.368 .      A
C204  C205  1.400 .      A
C205  C206  1.378 .      A
C206  C207  1.366 .      A
C207  C208  1.360 .      A
C208  N64   1.333 .      A
C209  C210  1.370 .      A
C209  C214  1.363 .      A
C210  C211  1.365 .      A
C211  C212  1.365 .      A
C212  C213  1.367 .      A
C213  C214  1.361 .      A
C215  N66   1.389 .      A
C215  N68   1.385 .      A
N66   C216  1.338 1_554  A
C216  N66   1.338 1_556  A
C216  C217  1.371 .      A
C216  C221  1.371 1_556  A
C217  C218  1.381 .      A
C218  C219  1.385 .      A
C219  C220  1.384 1_556  A
C220  C219  1.384 1_554  A
C220  C221  1.376 .      A
C221  C216  1.371 1_554  A
C221  N68   1.367 .      A
C222  C223  1.371 .      A
C222  C227  1.376 .      A
C223  C224  1.376 .      A
C224  C225  1.393 .      A
C225  C226  1.368 .      A
C226  C227  1.386 .      A
C228  N70   1.390 .      A
C228  N72   1.398 .      A
N70   C229  1.356 .      A
C229  C230  1.368 .      A
C229  C234  1.366 .      A
C230  C231  1.392 .      A
C231  C232  1.379 .      A
C232  C233  1.370 .      A
C233  C234  1.372 .      A
C234  N72   1.335 .      A
C235  C236  1.376 .      A
C235  C240  1.376 .      A
C236  C237  1.374 .      A
C237  C238  1.386 .      A
C238  C239  1.366 .      A
C239  C240  1.370 .      A
C241  N74   1.411 .      A
C241  N76   1.405 .      A
N74   C242  1.351 .      A
C242  C243  1.374 .      A
C242  C247  1.374 .      A
C243  C244  1.387 .      A
C244  C245  1.389 .      A
C245  C246  1.383 .      A
C246  C247  1.367 .      A
C247  N76   1.349 .      A
C248  C249  1.368 1_556  A
C248  C253  1.381 .      A
C249  C248  1.368 1_554  A
C249  C250  1.361 .      A
C250  C251  1.352 1_554  A
C251  C250  1.352 1_556  A
C251  C252  1.369 .      A
C252  C253  1.378 .      A
C254  N78   1.420 .      A
C254  N80   1.406 1_455  A
N78   C255  1.353 .      A
C255  C256  1.372 .      A
C255  C260  1.382 1_455  A
C256  C257  1.385 .      A
C257  C258  1.389 1_455  A
C258  C257  1.389 1_655  A
C258  C259  1.383 .      A
C259  C260  1.372 .      A
C260  C255  1.382 1_655  A
C260  N80   1.354 .      A
N80   C254  1.406 1_655  A
C261  C262  1.375 .      A
C261  C266  1.377 .      A
C262  C263  1.380 .      A
C263  C264  1.385 .      A
C264  C265  1.375 .      A
C265  C266  1.382 .      A
C267  N82   1.397 .      A
C267  N84   1.401 .      A
N82   C268  1.360 .      A
C268  C269  1.369 .      A
C268  C273  1.372 .      A
C269  C270  1.387 .      A
C270  C271  1.386 .      A
C271  C272  1.378 .      A
C272  C273  1.373 .      A
C273  N84   1.342 .      A
C274  C275  1.376 .      A
C274  C279  1.352 .      A
C275  C276  1.360 1_556  A
C276  C275  1.360 1_554  A
C276  C277  1.361 1_554  A
C277  C276  1.361 1_556  A
C277  C278  1.366 .      A
C278  C279  1.354 .      A
C280  N86   1.389 .      A
C280  N88   1.389 .      A
N86   C281  1.336 .      A
C281  C282  1.344 .      A
C281  C286  1.364 .      A
C282  C283  1.365 .      A
C283  C284  1.376 .      A
C284  C285  1.363 .      A
C285  C286  1.355 .      A
C286  N88   1.327 .      A
C287  C288  1.377 .      A
C287  C292  1.376 .      A
C288  C289  1.381 .      A
C289  C290  1.379 .      A
C290  C291  1.379 .      A
C291  C292  1.381 .      A
C293  N90   1.398 .      A
C293  N92   1.401 .      A
N90   C294  1.345 .      A
C294  C295  1.374 .      A
C294  C299  1.375 .      A
C295  C296  1.385 .      A
C296  C297  1.389 .      A
C297  C298  1.384 .      A
C298  C299  1.372 .      A
C299  N92   1.356 .      A
C300  C301  1.360 .      A
C300  C305  1.360 .      A
C301  C302  1.375 .      A
C302  C303  1.375 .      A
C303  C304  1.366 .      A
C304  C305  1.378 .      A
C306  N94   1.409 1_545  A
C306  N96   1.436 .      A
N94   C306  1.409 1_565  A
N94   C307  1.348 .      A
C307  C308  1.374 .      A
C307  C312  1.381 1_565  A
C308  C309  1.385 .      A
C309  C310  1.388 .      A
C310  C311  1.383 1_565  A
C311  C310  1.383 1_545  A
C311  C312  1.371 .      A
C312  C307  1.381 1_545  A
C312  N96   1.358 .      A
C313  C314  1.362 .      A
C313  C318  1.371 .      A
C314  C315  1.363 .      A
C315  C316  1.369 .      A
C316  C317  1.370 .      A
C317  C318  1.374 .      A
C319  N98   1.396 .      A
C319  N100  1.399 .      A
N98   C320  1.361 .      A
C320  C321  1.355 .      A
C320  C325  1.362 .      A
C321  C322  1.385 .      A
C322  C323  1.377 .      A
C323  C324  1.353 .      A
C324  C325  1.368 .      A
C325  N100  1.319 .      A
C326  C327  1.370 .      A
C326  C331  1.374 .      A
C327  C328  1.380 .      A
C328  C329  1.380 .      A
C329  C330  1.370 .      A
C330  C331  1.376 .      A
C332  N102  1.396 .      A
C332  N104  1.408 .      A
N102  C333  1.348 .      A
C333  C334  1.360 .      A
C333  C338  1.365 .      A
C334  C335  1.380 .      A
C335  C336  1.377 .      A
C336  C337  1.365 .      A
C337  C338  1.358 .      A
C338  N104  1.328 .      A
C339  C340  1.377 .      A
C339  C344  1.364 .      A
C340  C341  1.385 .      A
C341  C342  1.372 .      A
C342  C343  1.371 .      A
C343  C344  1.375 .      A
C345  N106  1.370 .      A
C345  N108  1.392 .      A
N106  C346  1.337 .      A
C346  C347  1.365 .      A
C346  C351  1.355 .      A
C347  C348  1.381 .      A
C348  C349  1.392 .      A
C349  C350  1.380 .      A
C350  C351  1.367 .      A
C351  N108  1.341 .      A
C352  C353  1.373 1_545  A
C352  C357  1.384 .      A
C353  C352  1.373 1_565  A
C353  C354  1.372 1_565  A
C354  C353  1.372 1_545  A
C354  C355  1.389 .      A
C355  C356  1.379 .      A
C356  C357  1.388 .      A
C358  N110  1.413 1_545  A
C358  N112  1.413 .      A
N110  C358  1.413 1_565  A
N110  C359  1.347 .      A
C359  C360  1.373 .      A
C359  C364  1.373 1_565  A
C360  C361  1.384 1_554  A
C361  C360  1.384 1_556  A
C361  C362  1.386 .      A
C362  C363  1.382 1_566  A
C363  C362  1.382 1_544  A
C363  C364  1.366 .      A
C364  C359  1.373 1_545  A
C364  N112  1.345 .      A
C365  C366  1.372 .      A
C365  C370  1.368 1_556  A
C366  C367  1.373 .      A
C367  C368  1.369 1_556  A
C368  C367  1.369 1_554  A
C368  C369  1.366 .      A
C369  C370  1.366 .      A
C370  C365  1.368 1_554  A
C371  N114  1.388 .      A
C371  N116  1.394 .      A
N114  C372  1.350 .      A
C372  C373  1.355 .      A
C372  C377  1.364 .      A
C373  C374  1.384 .      A
C374  C375  1.381 .      A
C375  C376  1.370 .      A
C376  C377  1.356 .      A
C377  N116  1.331 .      A
C378  C379  1.370 .      A
C378  C383  1.367 .      A
C379  C380  1.367 .      A
C380  C381  1.377 .      A
C381  C382  1.359 .      A
C382  C383  1.363 .      A
C384  N118  1.409 .      A
C384  N120  1.403 1_554  A
N118  C385  1.359 .      A
C385  C386  1.379 1_554  A
C385  C390  1.383 1_554  A
C386  C385  1.379 1_556  A
C386  C387  1.386 .      A
C387  C388  1.386 .      A
C388  C389  1.380 .      A
C389  C390  1.366 .      A
C390  C385  1.383 1_556  A
C390  N120  1.351 .      A
N120  C384  1.403 1_556  A
C391  C392  1.364 .      A
C391  C396  1.371 .      A
C392  C393  1.358 .      A
C393  C394  1.347 .      A
C394  C395  1.365 .      A
C395  C396  1.363 .      A
C397  N122  1.400 .      A
C397  N124  1.408 .      A
N122  C398  1.353 .      A
C398  C399  1.376 .      A
C398  C403  1.379 .      A
C399  C400  1.384 .      A
C400  C401  1.387 .      A
C401  C402  1.382 .      A
C402  C403  1.368 .      A
C403  N124  1.355 .      A
C404  C405  1.373 .      A
C404  C409  1.376 .      A
C405  C406  1.375 .      A
C406  C407  1.386 .      A
C407  C408  1.367 .      A
C408  C409  1.381 .      A
C410  N126  1.417 .      A
C410  N128  1.420 .      A
N126  C411  1.372 .      A
C411  C412  1.379 .      A
C411  C416  1.377 .      A
C412  C413  1.384 .      A
C413  C414  1.379 .      A
C414  C415  1.375 .      A
C415  C416  1.376 .      A
C416  N128  1.343 .      A
