data_str_m1_o12004_SFO
_audit_creation_date              2015-10-01T06:33:13-0700
_symmetry_space_group_name_H-M    P1
_symmetry_Int_Tables_number       1
_space_group_crystal_system       triclinic
loop_
_symmetry_equiv_pos_as_xyz
  x,y,z
_cell_length_a                    14.4701857
_cell_length_b                    27.5941961
_cell_length_c                    25.9644739
_cell_angle_alpha                 114.921660
_cell_angle_beta                  95.1064616
_cell_angle_gamma                 86.5800848
_cell_volume                      9361.93835503

loop_
_atom_site_label
_atom_site_type_symbol
_atom_site_description
_atom_site_fract_x
_atom_site_fract_y
_atom_site_fract_z
_atom_type_partial_charge
Zn1   Zn    Zn3+2 0.619817 0.311969 0.296680 0.000000
Zn2   Zn    Zn3+2 0.587996 0.663235 0.143750 0.000000
Zn3   Zn    Zn3+2 0.030315 0.227208 0.329392 0.000000
Zn4   Zn    Zn3+2 0.318050 0.909289 0.136048 0.000000
Zn5   Zn    Zn3+2 0.057537 0.004837 0.341226 0.000000
Zn6   Zn    Zn3+2 0.643085 0.908574 0.313877 0.000000
Zn7   Zn    Zn3+2 0.388844 0.331550 0.499932 0.000000
Zn8   Zn    Zn3+2 0.881675 0.340533 0.944296 0.000000
Zn9   Zn    Zn3+2 0.530096 0.246057 0.775402 0.000000
Zn10  Zn    Zn3+2 0.301733 0.265637 0.977251 0.000000
Zn11  Zn    Zn3+2 0.606190 0.427226 0.139595 0.000000
Zn12  Zn    Zn3+2 0.851285 0.564172 0.938123 0.000000
Zn13  Zn    Zn3+2 0.411991 0.100673 0.513394 0.000000
Zn14  Zn    Zn3+2 0.316503 0.148954 0.138118 0.000000
Zn15  Zn    Zn3+2 0.264948 0.666513 0.961084 0.000000
Zn16  Zn    Zn3+2 0.487914 0.475870 0.768401 0.000000
C1    C     C_3   0.888128 0.429290 0.335155 0.000000
N1    N     N_3   0.879210 0.386096 0.352502 0.000000
C2    C     C_3   0.873106 0.335843 0.301884 0.000000
C3    C     C_R   0.838639 0.293880 0.316594 0.000000
N2    N     N_R   0.894237 0.258343 0.331509 0.000000
C4    C     C_R   0.829665 0.232363 0.344295 0.000000
C5    C     C_R   0.841935 0.198247 0.370167 0.000000
C6    C     C_R   0.766035 0.172706 0.374434 0.000000
C7    C     C_R   0.677815 0.185024 0.357377 0.000000
C8    C     C_R   0.665362 0.224053 0.337636 0.000000
C9    C     C_R   0.742851 0.247663 0.332837 0.000000
N3    N     N_R   0.745061 0.287174 0.316408 0.000000
H1    H     H_    0.898709 0.467321 0.373588 0.000000
H2    H     H_    0.948287 0.421225 0.308896 0.000000
H3    H     H_    0.824870 0.433494 0.310097 0.000000
H4    H     H_    0.817148 0.392503 0.372234 0.000000
H5    H     H_    0.823478 0.341467 0.270038 0.000000
H6    H     H_    0.941198 0.323317 0.283673 0.000000
H7    H     H_    0.906570 0.194566 0.390927 0.000000
H8    H     H_    0.775908 0.143708 0.392252 0.000000
H9    H     H_    0.617853 0.166963 0.363074 0.000000
H10   H     H_    0.596416 0.235692 0.327473 0.000000
C10   C     C_3   0.730993 0.409133 0.513665 0.000000
N4    N     N_3   0.638384 0.387439 0.497803 0.000000
C11   C     C_3   0.641354 0.341824 0.442843 0.000000
C12   C     C_R   0.546813 0.331055 0.412486 0.000000
N5    N     N_R   0.466889 0.347478 0.442558 0.000000
C13   C     C_R   0.425714 0.380059 0.420038 0.000000
C14   C     C_R   0.348048 0.411240 0.436268 0.000000
C15   C     C_R   0.322163 0.446544 0.412066 0.000000
C16   C     C_R   0.368512 0.445358 0.367272 0.000000
C17   C     C_R   0.440766 0.409015 0.346907 0.000000
C18   C     C_R   0.470522 0.378134 0.375670 0.000000
N6    N     N_R   0.541942 0.342626 0.365936 0.000000
H11   H     H_    0.734148 0.438964 0.558479 0.000000
H12   H     H_    0.783254 0.376738 0.509021 0.000000
H13   H     H_    0.746458 0.429387 0.486582 0.000000
H14   H     H_    0.595794 0.417180 0.492621 0.000000
H15   H     H_    0.684103 0.352834 0.416359 0.000000
H16   H     H_    0.677215 0.306942 0.446219 0.000000
H17   H     H_    0.307514 0.407830 0.467212 0.000000
H18   H     H_    0.262539 0.473068 0.426109 0.000000
H19   H     H_    0.345153 0.470922 0.346356 0.000000
H20   H     H_    0.470307 0.405398 0.309075 0.000000
C19   C     C_3   0.896471 0.813697 0.221034 0.000000
N7    N     N_3   0.797836 0.822949 0.229224 0.000000
C20   C     C_3   0.761285 0.775727 0.230309 0.000000
C21   C     C_R   0.659266 0.782124 0.237437 0.000000
N8    N     N_R   0.627557 0.824299 0.285589 0.000000
C22   C     C_R   0.563576 0.800063 0.301123 0.000000
C23   C     C_R   0.510487 0.821079 0.347358 0.000000
C24   C     C_R   0.457538 0.786893 0.358392 0.000000
C25   C     C_R   0.460682 0.732468 0.324487 0.000000
C26   C     C_R   0.511105 0.712476 0.276790 0.000000
C27   C     C_R   0.555795 0.747743 0.263578 0.000000
N9    N     N_R   0.608188 0.735936 0.219346 0.000000
H21   H     H_    0.925440 0.849509 0.219899 0.000000
H22   H     H_    0.932690 0.806288 0.256595 0.000000
H23   H     H_    0.907518 0.778878 0.180097 0.000000
H24   H     H_    0.766623 0.826164 0.193303 0.000000
H25   H     H_    0.776667 0.739841 0.191520 0.000000
H26   H     H_    0.795698 0.769292 0.266876 0.000000
H27   H     H_    0.508056 0.862813 0.374247 0.000000
H28   H     H_    0.416336 0.802483 0.394975 0.000000
H29   H     H_    0.424068 0.705558 0.335553 0.000000
H30   H     H_    0.520804 0.670085 0.253459 0.000000
C28   C     C_3   0.200729 0.197463 0.459581 0.000000
N10   N     N_3   0.147285 0.179063 0.406530 0.000000
C29   C     C_3   0.073683 0.149100 0.410404 0.000000
C30   C     C_R   0.034669 0.122143 0.352443 0.000000
N11   N     N_R   0.011925 0.149160 0.319083 0.000000
C31   C     C_R   0.974563 0.109965 0.271060 0.000000
C32   C     C_R   0.932730 0.113378 0.223243 0.000000
C33   C     C_R   0.912942 0.066338 0.175574 0.000000
C34   C     C_R   0.926939 0.017163 0.178203 0.000000
C35   C     C_R   0.960094 0.014844 0.228859 0.000000
C36   C     C_R   0.984078 0.061976 0.274177 0.000000
N12   N     N_R   0.022252 0.068225 0.325344 0.000000
H31   H     H_    0.256818 0.220387 0.455667 0.000000
H32   H     H_    0.155768 0.222701 0.493457 0.000000
H33   H     H_    0.228547 0.163509 0.468223 0.000000
H34   H     H_    0.188027 0.152849 0.375214 0.000000
H35   H     H_    0.099614 0.120079 0.426685 0.000000
H36   H     H_    0.022459 0.176102 0.439012 0.000000
H37   H     H_    0.913071 0.151094 0.223615 0.000000
H38   H     H_    0.884362 0.067624 0.136367 0.000000
H39   H     H_    0.909616 0.980817 0.141147 0.000000
H40   H     H_    0.968797 0.976971 0.231820 0.000000
C37   C     C_3   0.089121 0.368300 0.357111 0.000000
N13   N     N_3   0.178782 0.368752 0.386088 0.000000
C38   C     C_3   0.219771 0.314989 0.366738 0.000000
C39   C     C_R   0.204365 0.293538 0.408262 0.000000
N14   N     N_R   0.245455 0.317874 0.463786 0.000000
C40   C     C_R   0.171980 0.322757 0.494459 0.000000
C41   C     C_R   0.167631 0.349388 0.552367 0.000000
C42   C     C_R   0.083558 0.350826 0.574740 0.000000
C43   C     C_R   0.006332 0.326154 0.539417 0.000000
C44   C     C_R   0.011710 0.299564 0.481042 0.000000
C45   C     C_R   0.095450 0.298360 0.459495 0.000000
N15   N     N_R   0.115498 0.275916 0.404353 0.000000
H41   H     H_    0.057979 0.408896 0.377872 0.000000
H42   H     H_    0.095602 0.358889 0.311850 0.000000
H43   H     H_    0.044839 0.339409 0.361842 0.000000
H44   H     H_    0.165395 0.382602 0.428784 0.000000
H45   H     H_    0.185358 0.290243 0.325489 0.000000
H46   H     H_    0.293969 0.315368 0.362110 0.000000
H47   H     H_    0.227334 0.368880 0.579695 0.000000
H48   H     H_    0.077693 0.371661 0.620132 0.000000
H49   H     H_    0.941173 0.328151 0.557691 0.000000
H50   H     H_    0.951373 0.281630 0.453597 0.000000
C46   C     C_3   0.135576 0.067801 0.182113 0.000000
N16   N     N_3   0.123960 0.017947 0.186281 0.000000
C47   C     C_3   0.184922 0.015155 0.232114 0.000000
C48   C     C_R   0.176418 0.962497 0.231883 0.000000
N17   N     N_R   0.129074 0.953173 0.270733 0.000000
C49   C     C_R   0.145725 0.900274 0.254557 0.000000
C50   C     C_R   0.119529 0.868565 0.279108 0.000000
C51   C     C_R   0.158061 0.817702 0.262436 0.000000
C52   C     C_R   0.224943 0.800383 0.223233 0.000000
C53   C     C_R   0.248448 0.832267 0.197588 0.000000
C54   C     C_R   0.203391 0.880607 0.211244 0.000000
N18   N     N_R   0.222730 0.918570 0.194532 0.000000
H51   H     H_    0.096982 0.067673 0.143274 0.000000
H52   H     H_    0.112362 0.101248 0.219725 0.000000
H53   H     H_    0.208241 0.075301 0.183779 0.000000
H54   H     H_    0.136417 0.985197 0.148740 0.000000
H55   H     H_    0.257324 0.018553 0.225328 0.000000
H56   H     H_    0.166252 0.046615 0.273056 0.000000
H57   H     H_    0.071533 0.882577 0.310653 0.000000
H58   H     H_    0.139455 0.792479 0.282204 0.000000
H59   H     H_    0.260495 0.762521 0.213658 0.000000
H60   H     H_    0.303641 0.820280 0.168972 0.000000
C55   C     C_3   0.333939 0.911840 0.340495 0.000000
N19   N     N_3   0.353941 0.920706 0.291121 0.000000
C56   C     C_3   0.431492 0.886452 0.266485 0.000000
C57   C     C_R   0.479147 0.904740 0.230261 0.000000
N20   N     N_R   0.445241 0.905366 0.178702 0.000000
C58   C     C_R   0.524108 0.908285 0.156492 0.000000
C59   C     C_R   0.533490 0.906234 0.103618 0.000000
C60   C     C_R   0.621614 0.909778 0.088842 0.000000
C61   C     C_R   0.697960 0.913830 0.126654 0.000000
C62   C     C_R   0.687106 0.911587 0.178114 0.000000
C63   C     C_R   0.599214 0.911441 0.193239 0.000000
N21   N     N_R   0.572794 0.910964 0.241420 0.000000
H61   H     H_    0.265827 0.930277 0.355498 0.000000
H62   H     H_    0.331591 0.868434 0.328968 0.000000
H63   H     H_    0.387625 0.929949 0.375737 0.000000
H64   H     H_    0.377944 0.958957 0.304110 0.000000
H65   H     H_    0.482621 0.890408 0.301574 0.000000
H66   H     H_    0.413452 0.843999 0.243792 0.000000
H67   H     H_    0.474272 0.902753 0.075001 0.000000
H68   H     H_    0.630969 0.909303 0.047784 0.000000
H69   H     H_    0.766771 0.915389 0.114366 0.000000
H70   H     H_    0.746092 0.909476 0.205307 0.000000
C64   C     C_3   0.755999 0.060407 0.254278 0.000000
N22   N     N_3   0.759493 0.012519 0.265442 0.000000
C65   C     C_3   0.800374 0.022165 0.322158 0.000000
C66   C     C_R   0.839837 0.971652 0.324944 0.000000
N23   N     N_R   0.784604 0.932797 0.327460 0.000000
C67   C     C_R   0.845020 0.909923 0.353909 0.000000
C68   C     C_R   0.828182 0.870072 0.370059 0.000000
C69   C     C_R   0.897155 0.856026 0.402053 0.000000
C70   C     C_R   0.980825 0.882236 0.417948 0.000000
C71   C     C_R   0.997722 0.921355 0.400134 0.000000
C72   C     C_R   0.929897 0.932855 0.365904 0.000000
N24   N     N_R   0.932225 0.969453 0.344400 0.000000
H71   H     H_    0.760070 0.047864 0.208278 0.000000
H72   H     H_    0.690727 0.083442 0.262836 0.000000
H73   H     H_    0.809219 0.088524 0.280048 0.000000
H74   H     H_    0.804536 0.985948 0.237442 0.000000
H75   H     H_    0.856185 0.051184 0.335864 0.000000
H76   H     H_    0.748081 0.039321 0.353624 0.000000
H77   H     H_    0.764127 0.849318 0.357539 0.000000
H78   H     H_    0.885364 0.824767 0.415273 0.000000
H79   H     H_    0.033684 0.871425 0.443630 0.000000
H80   H     H_    0.063720 0.940733 0.411268 0.000000
C73   C     C_3   0.792406 0.206171 0.917662 0.000000
N25   N     N_3   0.694916 0.212934 0.902614 0.000000
C74   C     C_3   0.672530 0.267719 0.910807 0.000000
C75   C     C_R   0.706674 0.279074 0.865333 0.000000
N26   N     N_R   0.797582 0.294218 0.871960 0.000000
C76   C     C_R   0.824708 0.267549 0.818945 0.000000
C77   C     C_R   0.912650 0.263252 0.801837 0.000000
C78   C     C_R   0.927407 0.229956 0.746036 0.000000
C79   C     C_R   0.856813 0.198652 0.710547 0.000000
C80   C     C_R   0.768010 0.203209 0.728725 0.000000
C81   C     C_R   0.752171 0.240691 0.782214 0.000000
N27   N     N_R   0.672850 0.251162 0.809139 0.000000
H81   H     H_    0.802615 0.167209 0.920521 0.000000
H82   H     H_    0.835752 0.205376 0.884279 0.000000
H83   H     H_    0.814026 0.237949 0.959775 0.000000
H84   H     H_    0.658857 0.206555 0.932049 0.000000
H85   H     H_    0.597505 0.274931 0.911197 0.000000
H86   H     H_    0.705318 0.293758 0.951355 0.000000
H87   H     H_    0.968857 0.284063 0.830964 0.000000
H88   H     H_    0.995341 0.225900 0.730389 0.000000
H89   H     H_    0.873970 0.169740 0.669102 0.000000
H90   H     H_    0.715392 0.175262 0.704107 0.000000
C82   C     C_3   0.053954 0.132874 0.910920 0.000000
N28   N     N_3   0.085111 0.180469 0.907397 0.000000
C83   C     C_3   0.051431 0.226914 0.955069 0.000000
C84   C     C_R   0.081426 0.276936 0.953054 0.000000
N29   N     N_R   0.173802 0.289270 0.957615 0.000000
C85   C     C_R   0.170288 0.331848 0.945630 0.000000
C86   C     C_R   0.243814 0.359567 0.942871 0.000000
C87   C     C_R   0.226774 0.396505 0.920034 0.000000
C88   C     C_R   0.138691 0.401466 0.897356 0.000000
C89   C     C_R   0.066559 0.373866 0.902866 0.000000
C90   C     C_R   0.082025 0.343776 0.933158 0.000000
N30   N     N_R   0.021239 0.312883 0.941729 0.000000
H91   H     H_    0.079215 0.096888 0.874881 0.000000
H92   H     H_    0.081858 0.131522 0.951485 0.000000
H93   H     H_    0.977077 0.132784 0.908223 0.000000
H94   H     H_    0.052174 0.181335 0.870403 0.000000
H95   H     H_    0.975089 0.226518 0.951908 0.000000
H96   H     H_    0.078842 0.225463 0.995614 0.000000
H97   H     H_    0.313685 0.349903 0.953699 0.000000
H98   H     H_    0.283445 0.417184 0.914366 0.000000
H99   H     H_    0.127257 0.425128 0.873231 0.000000
H100  H     H_    0.003560 0.369858 0.877608 0.000000
C91   C     C_3   0.530382 0.382841 0.943087 0.000000
N31   N     N_3   0.576477 0.383110 0.995471 0.000000
C92   C     C_3   0.669702 0.402276 0.003510 0.000000
C93   C     C_R   0.731836 0.381120 0.037231 0.000000
N32   N     N_R   0.718613 0.392714 0.092975 0.000000
C94   C     C_R   0.798826 0.374499 0.109876 0.000000
C95   C     C_R   0.831182 0.380470 0.163734 0.000000
C96   C     C_R   0.911724 0.353104 0.168882 0.000000
C97   C     C_R   0.954285 0.318958 0.120805 0.000000
C98   C     C_R   0.930130 0.321051 0.069453 0.000000
C99   C     C_R   0.852366 0.349463 0.065036 0.000000
N33   N     N_R   0.815184 0.355202 0.018557 0.000000
H101  H     H_    0.465065 0.360896 0.933434 0.000000
H102  H     H_    0.513167 0.424139 0.948223 0.000000
H103  H     H_    0.573504 0.362408 0.906517 0.000000
H104  H     H_    0.584209 0.344255 0.989895 0.000000
H105  H     H_    0.699776 0.389071 0.961969 0.000000
H106  H     H_    0.667872 0.445463 0.029847 0.000000
H107  H     H_    0.793118 0.401685 0.200703 0.000000
H108  H     H_    0.936543 0.354170 0.209674 0.000000
H109  H     H_    0.008052 0.291410 0.123624 0.000000
H110  H     H_    0.968314 0.299209 0.033664 0.000000
C100  C     C_3   0.927690 0.398580 0.769206 0.000000
N34   N     N_3   0.942456 0.427480 0.830586 0.000000
C101  C     C_3   0.862433 0.421898 0.857701 0.000000
C102  C     C_R   0.884202 0.445665 0.920355 0.000000
N35   N     N_R   0.896471 0.415971 0.951924 0.000000
C103  C     C_R   0.923261 0.452920 0.004110 0.000000
C104  C     C_R   0.954305 0.444792 0.051358 0.000000
C105  C     C_R   0.966703 0.488949 0.102744 0.000000
C106  C     C_R   0.950561 0.539978 0.105477 0.000000
C107  C     C_R   0.926786 0.547276 0.056376 0.000000
C108  C     C_R   0.917157 0.502576 0.005362 0.000000
N36   N     N_R   0.892685 0.499701 0.952770 0.000000
H111  H     H_    0.929413 0.355003 0.757434 0.000000
H112  H     H_    0.860514 0.410975 0.754052 0.000000
H113  H     H_    0.984030 0.407439 0.748483 0.000000
H114  H     H_    0.950223 0.467812 0.841015 0.000000
H115  H     H_    0.800984 0.442064 0.846889 0.000000
H116  H     H_    0.848301 0.379124 0.843369 0.000000
H117  H     H_    0.972724 0.405492 0.048228 0.000000
H118  H     H_    0.989527 0.483703 0.140894 0.000000
H119  H     H_    0.960527 0.574325 0.145772 0.000000
H120  H     H_    0.918568 0.587137 0.058588 0.000000
C109  C     C_3   0.725593 0.328902 0.728970 0.000000
N37   N     N_3   0.684533 0.381171 0.760701 0.000000
C110  C     C_3   0.632297 0.378606 0.804567 0.000000
C111  C     C_R   0.533176 0.367923 0.785012 0.000000
N38   N     N_R   0.474598 0.406332 0.777768 0.000000
C112  C     C_R   0.394184 0.381067 0.759735 0.000000
C113  C     C_R   0.313441 0.400455 0.743037 0.000000
C114  C     C_R   0.236850 0.368641 0.727347 0.000000
C115  C     C_R   0.245614 0.317082 0.723708 0.000000
C116  C     C_R   0.331682 0.295761 0.732043 0.000000
C117  C     C_R   0.403629 0.330095 0.755389 0.000000
N39   N     N_R   0.490790 0.319931 0.772481 0.000000
H121  H     H_    0.764946 0.329516 0.695025 0.000000
H122  H     H_    0.777871 0.319732 0.756860 0.000000
H123  H     H_    0.671289 0.298458 0.711113 0.000000
H124  H     H_    0.639048 0.391634 0.733724 0.000000
H125  H     H_    0.663034 0.348594 0.818784 0.000000
H126  H     H_    0.634641 0.418099 0.840211 0.000000
H127  H     H_    0.309482 0.439724 0.743668 0.000000
H128  H     H_    0.170417 0.383404 0.716751 0.000000
H129  H     H_    0.184805 0.293063 0.712596 0.000000
H130  H     H_    0.341301 0.253598 0.719911 0.000000
C118  C     C_3   0.722960 0.140033 0.587309 0.000000
N40   N     N_3   0.626080 0.133363 0.592302 0.000000
C119  C     C_3   0.577622 0.184131 0.623148 0.000000
C120  C     C_R   0.492836 0.169714 0.640285 0.000000
N41   N     N_R   0.441150 0.127627 0.600876 0.000000
C121  C     C_R   0.402115 0.109229 0.633565 0.000000
C122  C     C_R   0.354160 0.062556 0.614861 0.000000
C123  C     C_R   0.316101 0.050539 0.654652 0.000000
C124  C     C_R   0.325746 0.085607 0.711446 0.000000
C125  C     C_R   0.377740 0.131104 0.729317 0.000000
C126  C     C_R   0.421355 0.141421 0.689911 0.000000
N42   N     N_R   0.481038 0.180904 0.696650 0.000000
H131  H     H_    0.740110 0.116903 0.542671 0.000000
H132  H     H_    0.738913 0.182787 0.601820 0.000000
H133  H     H_    0.765138 0.120984 0.611557 0.000000
H134  H     H_    0.625037 0.110812 0.615963 0.000000
H135  H     H_    0.618567 0.210613 0.661403 0.000000
H136  H     H_    0.560088 0.205713 0.596152 0.000000
H137  H     H_    0.345127 0.036349 0.570093 0.000000
H138  H     H_    0.276432 0.014760 0.641365 0.000000
H139  H     H_    0.292286 0.077386 0.742415 0.000000
H140  H     H_    0.377923 0.157160 0.772756 0.000000
C127  C     C_3   0.153237 0.233555 0.800848 0.000000
N43   N     N_3   0.226735 0.236916 0.843843 0.000000
C128  C     C_3   0.303782 0.262956 0.834748 0.000000
C129  C     C_R   0.389454 0.256382 0.866852 0.000000
N44   N     N_R   0.384236 0.236755 0.907384 0.000000
C130  C     C_R   0.451690 0.197553 0.892738 0.000000
C131  C     C_R   0.476491 0.160449 0.914013 0.000000
C132  C     C_R   0.537866 0.119112 0.885654 0.000000
C133  C     C_R   0.575985 0.115959 0.837223 0.000000
C134  C     C_R   0.557015 0.156111 0.819086 0.000000
C135  C     C_R   0.497203 0.197083 0.849213 0.000000
N45   N     N_R   0.465060 0.236640 0.835237 0.000000
H141  H     H_    0.092495 0.215376 0.808009 0.000000
H142  H     H_    0.134257 0.274010 0.803505 0.000000
H143  H     H_    0.175646 0.207527 0.757795 0.000000
H144  H     H_    0.247375 0.197484 0.834858 0.000000
H145  H     H_    0.318340 0.240437 0.790374 0.000000
H146  H     H_    0.287843 0.304656 0.841838 0.000000
H147  H     H_    0.449303 0.162283 0.951206 0.000000
H148  H     H_    0.555663 0.088842 0.901244 0.000000
H149  H     H_    0.622749 0.083157 0.814843 0.000000
H150  H     H_    0.587367 0.154833 0.781996 0.000000
C136  C     C_3   0.563107 0.207088 0.042776 0.000000
N46   N     N_3   0.488264 0.245244 0.044152 0.000000
C137  C     C_3   0.521123 0.287049 0.030328 0.000000
C138  C     C_R   0.460255 0.335775 0.054298 0.000000
N47   N     N_R   0.366765 0.332330 0.040227 0.000000
C139  C     C_R   0.334824 0.381025 0.076791 0.000000
C140  C     C_R   0.246517 0.403444 0.080996 0.000000
C141  C     C_R   0.230809 0.452262 0.126257 0.000000
C142  C     C_R   0.302375 0.478405 0.165786 0.000000
C143  C     C_R   0.391746 0.457470 0.158570 0.000000
C144  C     C_R   0.405919 0.410089 0.112152 0.000000
N48   N     N_R   0.487685 0.385272 0.096163 0.000000
H151  H     H_    0.592258 0.215990 0.086176 0.000000
H152  H     H_    0.535424 0.166393 0.026103 0.000000
H153  H     H_    0.617784 0.207379 0.015766 0.000000
H154  H     H_    0.465126 0.262351 0.085057 0.000000
H155  H     H_    0.593388 0.297181 0.045777 0.000000
H156  H     H_    0.517712 0.272749 0.984068 0.000000
H157  H     H_    0.188557 0.383243 0.053075 0.000000
H158  H     H_    0.161511 0.469517 0.131685 0.000000
H159  H     H_    0.288586 0.515911 0.201431 0.000000
H160  H     H_    0.448652 0.478178 0.188054 0.000000
C145  C     C_3   0.164688 0.341831 0.135792 0.000000
N49   N     N_3   0.186062 0.292122 0.087462 0.000000
C146  C     C_3   0.255510 0.263201 0.107840 0.000000
C147  C     C_R   0.287402 0.213235 0.061099 0.000000
N50   N     N_R   0.303801 0.165329 0.066052 0.000000
C148  C     C_R   0.310017 0.130154 0.010983 0.000000
C149  C     C_R   0.336654 0.076930 0.989041 0.000000
C150  C     C_R   0.332713 0.048517 0.930435 0.000000
C151  C     C_R   0.304499 0.073475 0.894900 0.000000
C152  C     C_R   0.285238 0.127873 0.917607 0.000000
C153  C     C_R   0.292460 0.155470 0.975892 0.000000
N51   N     N_R   0.287319 0.208660 0.006517 0.000000
H161  H     H_    0.114340 0.366355 0.121707 0.000000
H162  H     H_    0.133385 0.333619 0.168213 0.000000
H163  H     H_    0.228218 0.364641 0.155656 0.000000
H164  H     H_    0.215109 0.301732 0.058239 0.000000
H165  H     H_    0.315953 0.288480 0.129821 0.000000
H166  H     H_    0.218707 0.251512 0.135390 0.000000
H167  H     H_    0.361276 0.057356 0.015864 0.000000
H168  H     H_    0.351681 0.006458 0.912179 0.000000
H169  H     H_    0.301262 0.050708 0.849238 0.000000
H170  H     H_    0.268522 0.148109 0.890276 0.000000
C154  C     C_3   0.748430 0.270684 0.166142 0.000000
N52   N     N_3   0.701168 0.304343 0.142357 0.000000
C155  C     C_3   0.611363 0.318767 0.165411 0.000000
C156  C     C_R   0.619681 0.368301 0.216141 0.000000
N53   N     N_R   0.629971 0.370437 0.269721 0.000000
C157  C     C_R   0.637480 0.423297 0.302309 0.000000
C158  C     C_R   0.646586 0.448818 0.360712 0.000000
C159  C     C_R   0.643769 0.504124 0.385470 0.000000
C160  C     C_R   0.629155 0.532389 0.351933 0.000000
C161  C     C_R   0.619891 0.505875 0.293122 0.000000
C162  C     C_R   0.627755 0.451036 0.269091 0.000000
N54   N     N_R   0.619177 0.416776 0.213490 0.000000
H171  H     H_    0.822861 0.277938 0.171697 0.000000
H172  H     H_    0.723861 0.279139 0.208074 0.000000
H173  H     H_    0.735936 0.229517 0.135123 0.000000
H174  H     H_    0.695450 0.281477 0.098781 0.000000
H175  H     H_    0.562592 0.327870 0.136961 0.000000
H176  H     H_    0.582890 0.287074 0.173555 0.000000
H177  H     H_    0.654727 0.426761 0.386686 0.000000
H178  H     H_    0.650321 0.525483 0.431312 0.000000
H179  H     H_    0.623547 0.575527 0.372000 0.000000
H180  H     H_    0.602770 0.528010 0.267931 0.000000
C163  C     C_3   0.378015 0.476981 0.034439 0.000000
N55   N     N_3   0.459673 0.483936 0.073002 0.000000
C164  C     C_3   0.465734 0.539642 0.110767 0.000000
C165  C     C_R   0.554108 0.549407 0.146408 0.000000
N56   N     N_R   0.605888 0.510441 0.157919 0.000000
C166  C     C_R   0.682329 0.538082 0.186650 0.000000
C167  C     C_R   0.759868 0.519713 0.207734 0.000000
C168  C     C_R   0.832407 0.554205 0.233939 0.000000
C169  C     C_R   0.827183 0.605930 0.237542 0.000000
C170  C     C_R   0.748916 0.623761 0.215384 0.000000
C171  C     C_R   0.676823 0.589296 0.191457 0.000000
N57   N     N_R   0.597652 0.597925 0.165303 0.000000
H181  H     H_    0.375585 0.434906 0.003581 0.000000
H182  H     H_    0.316013 0.487006 0.058837 0.000000
H183  H     H_    0.379757 0.502591 0.011455 0.000000
H184  H     H_    0.517080 0.473692 0.049653 0.000000
H185  H     H_    0.465040 0.563039 0.085264 0.000000
H186  H     H_    0.406892 0.551601 0.138334 0.000000
H187  H     H_    0.763337 0.480116 0.205057 0.000000
H188  H     H_    0.893929 0.540605 0.251324 0.000000
H189  H     H_    0.884811 0.632242 0.257384 0.000000
H190  H     H_    0.744880 0.663516 0.217089 0.000000
C172  C     C_3   0.154682 0.534363 0.042522 0.000000
N58   N     N_3   0.085643 0.560646 0.018266 0.000000
C173  C     C_3   0.117805 0.560295 0.967312 0.000000
C174  C     C_R   0.070581 0.603172 0.953449 0.000000
N59   N     N_R   0.977170 0.601496 0.932974 0.000000
C175  C     C_R   0.977301 0.634623 0.906520 0.000000
C176  C     C_R   0.905445 0.646091 0.874395 0.000000
C177  C     C_R   0.921094 0.681085 0.850703 0.000000
C178  C     C_R   0.007264 0.703726 0.858958 0.000000
C179  C     C_R   0.078571 0.691686 0.891115 0.000000
C180  C     C_R   0.062067 0.657245 0.914566 0.000000
N60   N     N_R   0.123595 0.639557 0.945246 0.000000
H191  H     H_    0.134287 0.538677 0.084341 0.000000
H192  H     H_    0.159607 0.491359 0.013628 0.000000
H193  H     H_    0.222995 0.552807 0.049404 0.000000
H194  H     H_    0.073886 0.599763 0.047218 0.000000
H195  H     H_    0.193290 0.567262 0.973456 0.000000
H196  H     H_    0.103867 0.520987 0.931461 0.000000
H197  H     H_    0.837593 0.629741 0.869097 0.000000
H198  H     H_    0.865650 0.691040 0.825793 0.000000
H199  H     H_    0.018733 0.730959 0.840169 0.000000
H200  H     H_    0.145219 0.708698 0.897520 0.000000
C181  C     C_3   0.460143 0.547228 0.945359 0.000000
N61   N     N_3   0.531840 0.519465 0.906569 0.000000
C182  C     C_3   0.594374 0.557557 0.903137 0.000000
C183  C     C_R   0.657914 0.530259 0.856548 0.000000
N62   N     N_R   0.753198 0.538954 0.864055 0.000000
C184  C     C_R   0.774814 0.522127 0.809429 0.000000
C185  C     C_R   0.858387 0.525363 0.790061 0.000000
C186  C     C_R   0.862192 0.511843 0.732575 0.000000
C187  C     C_R   0.782929 0.496386 0.695937 0.000000
C188  C     C_R   0.699627 0.492012 0.715806 0.000000
C189  C     C_R   0.698251 0.503052 0.772303 0.000000
N63   N     N_R   0.623671 0.504299 0.800338 0.000000
H201  H     H_    0.397819 0.522371 0.932998 0.000000
H202  H     H_    0.482675 0.555360 0.989680 0.000000
H203  H     H_    0.443416 0.586110 0.945006 0.000000
H204  H     H_    0.500091 0.496972 0.866736 0.000000
H205  H     H_    0.556642 0.589975 0.896298 0.000000
H206  H     H_    0.635067 0.578396 0.943406 0.000000
H207  H     H_    0.918989 0.539125 0.818635 0.000000
H208  H     H_    0.926650 0.515134 0.716353 0.000000
H209  H     H_    0.786251 0.488804 0.651872 0.000000
H210  H     H_    0.636402 0.483878 0.688741 0.000000
C190  C     C_3   0.692645 0.483726 0.955666 0.000000
N64   N     N_3   0.642683 0.525762 0.997961 0.000000
C191  C     C_3   0.703802 0.554383 0.046387 0.000000
C192  C     C_R   0.725972 0.605964 0.047479 0.000000
N65   N     N_R   0.779618 0.613317 0.009717 0.000000
C193  C     C_R   0.775172 0.666809 0.028682 0.000000
C194  C     C_R   0.812817 0.696876 0.006151 0.000000
C195  C     C_R   0.799691 0.751334 0.031119 0.000000
C196  C     C_R   0.746494 0.774244 0.077204 0.000000
C197  C     C_R   0.703110 0.743254 0.097401 0.000000
C198  C     C_R   0.721455 0.689555 0.073703 0.000000
N66   N     N_R   0.687506 0.652124 0.086609 0.000000
H211  H     H_    0.726035 0.499604 0.930628 0.000000
H212  H     H_    0.744732 0.466660 0.975797 0.000000
H213  H     H_    0.644199 0.452642 0.928901 0.000000
H214  H     H_    0.594235 0.508290 0.011098 0.000000
H215  H     H_    0.663370 0.564260 0.081606 0.000000
H216  H     H_    0.761376 0.530576 0.054336 0.000000
H217  H     H_    0.852262 0.678977 0.970776 0.000000
H218  H     H_    0.830150 0.776038 0.014356 0.000000
H219  H     H_    0.735717 0.816392 0.095766 0.000000
H220  H     H_    0.654857 0.760982 0.129856 0.000000
C199  C     C_3   0.344035 0.087509 0.337269 0.000000
N67   N     N_3   0.309189 0.092350 0.388923 0.000000
C200  C     C_3   0.293168 0.039462 0.382125 0.000000
C201  C     C_R   0.238504 0.044303 0.427441 0.000000
N68   N     N_R   0.270501 0.071184 0.483855 0.000000
C202  C     C_R   0.191704 0.073382 0.510029 0.000000
C203  C     C_R   0.175790 0.099134 0.566842 0.000000
C204  C     C_R   0.087183 0.099523 0.583272 0.000000
C205  C     C_R   0.014610 0.076302 0.543170 0.000000
C206  C     C_R   0.029924 0.052036 0.485977 0.000000
C207  C     C_R   0.119101 0.049699 0.470645 0.000000
N69   N     N_R   0.146134 0.031090 0.417318 0.000000
H221  H     H_    0.371913 0.046712 0.313346 0.000000
H222  H     H_    0.286996 0.095294 0.311850 0.000000
H223  H     H_    0.397184 0.117555 0.348428 0.000000
H224  H     H_    0.361340 0.107330 0.420858 0.000000
H225  H     H_    0.253477 0.017270 0.341434 0.000000
H226  H     H_    0.359111 0.020194 0.387471 0.000000
H227  H     H_    0.228117 0.121584 0.598227 0.000000
H228  H     H_    0.073706 0.119963 0.627765 0.000000
H229  H     H_    0.945294 0.078513 0.556609 0.000000
H230  H     H_    0.972841 0.036430 0.454521 0.000000
C208  C     C_3   0.564033 0.050998 0.299125 0.000000
N70   N     N_3   0.547975 0.014737 0.323415 0.000000
C209  C     C_3   0.549599 0.045773 0.383401 0.000000
C210  C     C_R   0.532817 0.010916 0.410454 0.000000
N71   N     N_R   0.503094 0.032645 0.465424 0.000000
C211  C     C_R   0.539111 0.996048 0.484059 0.000000
C212  C     C_R   0.542984 0.999505 0.538500 0.000000
C213  C     C_R   0.588844 0.959335 0.549901 0.000000
C214  C     C_R   0.631724 0.917005 0.507360 0.000000
C215  C     C_R   0.630369 0.914795 0.453141 0.000000
C216  C     C_R   0.583029 0.954415 0.441961 0.000000
N72   N     N_R   0.577987 0.961060 0.393038 0.000000
H231  H     H_    0.585284 0.026753 0.256165 0.000000
H232  H     H_    0.502886 0.074580 0.296132 0.000000
H233  H     H_    0.617017 0.079012 0.326515 0.000000
H234  H     H_    0.609790 0.992752 0.318580 0.000000
H235  H     H_    0.620090 0.060864 0.399340 0.000000
H236  H     H_    0.499369 0.078997 0.394160 0.000000
H237  H     H_    0.516284 0.033676 0.572480 0.000000
H238  H     H_    0.592876 0.961530 0.592598 0.000000
H239  H     H_    0.667792 0.885970 0.516860 0.000000
H240  H     H_    0.663633 0.881908 0.420559 0.000000
C217  C     C_3   0.191502 0.222278 0.601463 0.000000
N73   N     N_3   0.288217 0.208912 0.588110 0.000000
C218  C     C_3   0.324518 0.248233 0.572035 0.000000
C219  C     C_R   0.387273 0.224191 0.524077 0.000000
N74   N     N_R   0.430722 0.173870 0.506967 0.000000
C220  C     C_R   0.507806 0.181666 0.486442 0.000000
C221  C     C_R   0.590175 0.154258 0.484463 0.000000
C222  C     C_R   0.670670 0.177952 0.483295 0.000000
C223  C     C_R   0.667592 0.229161 0.486478 0.000000
C224  C     C_R   0.583310 0.255349 0.486857 0.000000
C225  C     C_R   0.504875 0.230811 0.485614 0.000000
N75   N     N_R   0.426306 0.257655 0.504963 0.000000
H241  H     H_    0.177765 0.211796 0.636766 0.000000
H242  H     H_    0.174660 0.265275 0.614421 0.000000
H243  H     H_    0.144708 0.198526 0.564319 0.000000
H244  H     H_    0.289183 0.171932 0.553644 0.000000
H245  H     H_    0.268675 0.270475 0.559493 0.000000
H246  H     H_    0.364450 0.277663 0.609470 0.000000
H247  H     H_    0.593326 0.117788 0.489867 0.000000
H248  H     H_    0.737077 0.158080 0.483634 0.000000
H249  H     H_    0.731692 0.249040 0.490495 0.000000
H250  H     H_    0.577520 0.297227 0.498359 0.000000
C226  C     C_3   0.265725 0.327991 0.252067 0.000000
N76   N     N_3   0.308337 0.276236 0.241945 0.000000
C227  C     C_3   0.404427 0.283988 0.259600 0.000000
C228  C     C_R   0.463157 0.238362 0.225301 0.000000
N77   N     N_R   0.436609 0.190860 0.179894 0.000000
C229  C     C_R   0.519058 0.170295 0.159177 0.000000
C230  C     C_R   0.534334 0.127246 0.108776 0.000000
C231  C     C_R   0.625200 0.111596 0.096435 0.000000
C232  C     C_R   0.697097 0.136197 0.136586 0.000000
C233  C     C_R   0.679770 0.179551 0.187223 0.000000
C234  C     C_R   0.590003 0.198942 0.194813 0.000000
N78   N     N_R   0.556666 0.244339 0.235587 0.000000
H251  H     H_    0.190433 0.322860 0.242082 0.000000
H252  H     H_    0.277959 0.355726 0.297036 0.000000
H253  H     H_    0.295094 0.345223 0.225858 0.000000
H254  H     H_    0.308470 0.253811 0.199070 0.000000
H255  H     H_    0.428286 0.318806 0.254542 0.000000
H256  H     H_    0.414236 0.288542 0.303492 0.000000
H257  H     H_    0.477549 0.106239 0.079852 0.000000
H258  H     H_    0.639987 0.078178 0.056872 0.000000
H259  H     H_    0.767471 0.122497 0.127385 0.000000
H260  H     H_    0.736643 0.198919 0.217216 0.000000
C235  C     C_3   0.384393 0.212081 0.346465 0.000000
N79   N     N_3   0.340112 0.201847 0.290309 0.000000
C236  C     C_3   0.247522 0.181764 0.283614 0.000000
C237  C     C_R   0.185377 0.195651 0.243114 0.000000
N80   N     N_R   0.095313 0.213539 0.255436 0.000000
C238  C     C_R   0.056716 0.208922 0.204241 0.000000
C239  C     C_R   0.964961 0.214034 0.188407 0.000000
C240  C     C_R   0.938320 0.193863 0.130729 0.000000
C241  C     C_R   0.002899 0.177033 0.090764 0.000000
C242  C     C_R   0.094991 0.176174 0.107589 0.000000
C243  C     C_R   0.120303 0.189555 0.164115 0.000000
N81   N     N_R   0.203586 0.181244 0.187064 0.000000
H261  H     H_    0.452180 0.190318 0.341318 0.000000
H262  H     H_    0.398353 0.254885 0.370332 0.000000
H263  H     H_    0.341309 0.200157 0.371967 0.000000
H264  H     H_    0.378653 0.170822 0.261345 0.000000
H265  H     H_    0.252837 0.138510 0.265554 0.000000
H266  H     H_    0.214120 0.197367 0.323899 0.000000
H267  H     H_    0.913453 0.228150 0.219089 0.000000
H268  H     H_    0.866893 0.189874 0.115470 0.000000
H269  H     H_    0.980962 0.163440 0.046106 0.000000
H270  H     H_    0.143000 0.163572 0.075761 0.000000
C244  C     C_3   0.553920 0.037717 0.154337 0.000000
N82   N     N_3   0.490614 0.073226 0.194822 0.000000
C245  C     C_3   0.410184 0.044966 0.194798 0.000000
C246  C     C_R   0.353210 0.027729 0.140150 0.000000
N83   N     N_R   0.317208 0.062681 0.116272 0.000000
C247  C     C_R   0.253445 0.030957 0.076278 0.000000
C248  C     C_R   0.187321 0.045107 0.043391 0.000000
C249  C     C_R   0.121871 0.008446 0.009452 0.000000
C250  C     C_R   0.119548 0.958965 0.010792 0.000000
C251  C     C_R   0.183288 0.945726 0.045844 0.000000
C252  C     C_R   0.250913 0.981808 0.077182 0.000000
N84   N     N_R   0.312797 0.977858 0.117202 0.000000
H271  H     H_    0.618513 0.058789 0.159006 0.000000
H272  H     H_    0.574101 0.004424 0.165325 0.000000
H273  H     H_    0.523144 0.023411 0.109952 0.000000
H274  H     H_    0.463515 0.101290 0.181284 0.000000
H275  H     H_    0.430332 0.009995 0.203893 0.000000
H276  H     H_    0.367813 0.072978 0.228458 0.000000
H277  H     H_    0.185720 0.083474 0.043280 0.000000
H278  H     H_    0.070414 0.019135 0.982953 0.000000
H279  H     H_    0.065938 0.931347 0.985754 0.000000
H280  H     H_    0.176695 0.909072 0.050367 0.000000
C253  C     C_3   0.541928 0.765263 0.016279 0.000000
N85   N     N_3   0.512997 0.742484 0.053359 0.000000
C254  C     C_3   0.495948 0.686158 0.019419 0.000000
C255  C     C_R   0.433435 0.667330 0.048491 0.000000
N86   N     N_R   0.458410 0.663556 0.099438 0.000000
C256  C     C_R   0.374684 0.658157 0.115531 0.000000
C257  C     C_R   0.354788 0.653579 0.163870 0.000000
C258  C     C_R   0.262852 0.653283 0.174293 0.000000
C259  C     C_R   0.192800 0.659519 0.137420 0.000000
C260  C     C_R   0.214156 0.661576 0.087470 0.000000
C261  C     C_R   0.305341 0.658262 0.076302 0.000000
N87   N     N_R   0.339967 0.661280 0.031463 0.000000
H281  H     H_    0.582447 0.801190 0.041673 0.000000
H282  H     H_    0.585030 0.735880 0.983265 0.000000
H283  H     H_    0.480764 0.778307 0.996648 0.000000
H284  H     H_    0.450501 0.761341 0.069214 0.000000
H285  H     H_    0.459189 0.681134 0.979030 0.000000
H286  H     H_    0.561026 0.662157 0.011053 0.000000
H287  H     H_    0.408335 0.647931 0.191715 0.000000
H288  H     H_    0.245623 0.649793 0.212237 0.000000
H289  H     H_    0.121213 0.661856 0.147307 0.000000
H290  H     H_    0.160915 0.667282 0.058836 0.000000
C262  C     C_3   0.033121 0.754773 0.068441 0.000000
N88   N     N_3   0.109603 0.754220 0.035551 0.000000
C263  C     C_3   0.185215 0.782205 0.075610 0.000000
C264  C     C_R   0.261965 0.787496 0.044749 0.000000
N89   N     N_R   0.268227 0.750736 0.988950 0.000000
C265  C     C_R   0.292767 0.781780 0.964091 0.000000
C266  C     C_R   0.291963 0.769226 0.906658 0.000000
C267  C     C_R   0.320528 0.807117 0.890239 0.000000
C268  C     C_R   0.347950 0.856690 0.930791 0.000000
C269  C     C_R   0.344141 0.869702 0.988149 0.000000
C270  C     C_R   0.313393 0.832183 0.004427 0.000000
N90   N     N_R   0.296393 0.837584 0.057369 0.000000
H291  H     H_    0.993626 0.717817 0.045067 0.000000
H292  H     H_    0.059139 0.756087 0.110465 0.000000
H293  H     H_    0.987641 0.790374 0.075011 0.000000
H294  H     H_    0.087439 0.776632 0.012662 0.000000
H295  H     H_    0.158770 0.822659 0.102338 0.000000
H296  H     H_    0.210833 0.759141 0.099724 0.000000
H297  H     H_    0.272928 0.730323 0.874603 0.000000
H298  H     H_    0.322534 0.797801 0.845524 0.000000
H299  H     H_    0.371080 0.885889 0.917469 0.000000
H300  H     H_    0.364126 0.908828 0.017961 0.000000
C271  C     C_3   0.118044 0.496905 0.798263 0.000000
N91   N     N_3   0.205081 0.519400 0.796694 0.000000
C272  C     C_3   0.260032 0.529760 0.849731 0.000000
C273  C     C_R   0.337887 0.563304 0.853277 0.000000
N92   N     N_R   0.407813 0.544101 0.816073 0.000000
C274  C     C_R   0.442362 0.589689 0.819962 0.000000
C275  C     C_R   0.508912 0.594097 0.787623 0.000000
C276  C     C_R   0.542982 0.644020 0.801509 0.000000
C277  C     C_R   0.512282 0.687554 0.848180 0.000000
C278  C     C_R   0.443905 0.681948 0.879156 0.000000
C279  C     C_R   0.405125 0.633058 0.862556 0.000000
N93   N     N_R   0.337868 0.618363 0.886166 0.000000
H301  H     H_    0.078151 0.485529 0.756559 0.000000
H302  H     H_    0.131664 0.461067 0.806852 0.000000
H303  H     H_    0.077409 0.526939 0.831982 0.000000
H304  H     H_    0.189488 0.556156 0.794994 0.000000
H305  H     H_    0.217791 0.552641 0.885247 0.000000
H306  H     H_    0.285818 0.491820 0.851481 0.000000
H307  H     H_    0.532699 0.559804 0.751609 0.000000
H308  H     H_    0.595610 0.648828 0.777089 0.000000
H309  H     H_    0.542456 0.726158 0.860810 0.000000
H310  H     H_    0.425973 0.714686 0.916952 0.000000
C280  C     C_3   0.691004 0.343563 0.606254 0.000000
N94   N     N_3   0.620534 0.384179 0.632444 0.000000
C281  C     C_3   0.532794 0.360077 0.630295 0.000000
C282  C     C_R   0.458043 0.399843 0.632666 0.000000
N95   N     N_R   0.445438 0.447580 0.680603 0.000000
C283  C     C_R   0.385129 0.474659 0.659036 0.000000
C284  C     C_R   0.340353 0.523202 0.686805 0.000000
C285  C     C_R   0.296174 0.548324 0.655207 0.000000
C286  C     C_R   0.305691 0.527017 0.597555 0.000000
C287  C     C_R   0.346516 0.477058 0.571141 0.000000
C288  C     C_R   0.370793 0.447429 0.601594 0.000000
N96   N     N_R   0.409375 0.397389 0.583208 0.000000
H311  H     H_    0.676410 0.305731 0.608917 0.000000
H312  H     H_    0.694478 0.337061 0.561745 0.000000
H313  H     H_    0.759832 0.358614 0.627514 0.000000
H314  H     H_    0.609635 0.405795 0.607683 0.000000
H315  H     H_    0.522565 0.324704 0.589860 0.000000
H316  H     H_    0.530490 0.347966 0.665623 0.000000
H317  H     H_    0.335170 0.541481 0.731270 0.000000
H318  H     H_    0.262534 0.587002 0.676245 0.000000
H319  H     H_    0.285818 0.550522 0.573770 0.000000
H320  H     H_    0.379326 0.469039 0.533576 0.000000

loop_
_geom_bond_atom_site_label_1
_geom_bond_atom_site_label_2
_geom_bond_distance
_geom_bond_site_symmetry_2
_ccdc_geom_bond_type
Zn1   N3    1.999 .      S
Zn1   N6    2.045 .      S
Zn1   N53   2.028 .      S
Zn1   N78   2.070 .      S
Zn2   N9    2.148 .      S
Zn2   N57   2.094 .      S
Zn2   N66   2.077 .      S
Zn2   N86   2.112 .      S
Zn3   N2    2.097 1_455  S
Zn3   N11   2.086 .      S
Zn3   N15   2.163 .      S
Zn3   N80   2.094 .      S
Zn4   N18   2.068 .      S
Zn4   N20   2.083 .      S
Zn4   N84   2.141 .      S
Zn4   N90   2.177 .      S
Zn5   N12   1.988 .      S
Zn5   N17   2.101 1_545  S
Zn5   N24   2.134 1_445  S
Zn5   N69   2.127 .      S
Zn6   N8    2.143 .      S
Zn6   N21   2.082 .      S
Zn6   N23   2.145 .      S
Zn6   N72   2.210 .      S
Zn7   N5    2.144 .      S
Zn7   N14   2.186 .      S
Zn7   N75   2.133 .      S
Zn7   N96   2.169 .      S
Zn8   N26   2.097 .      S
Zn8   N30   2.112 1_655  S
Zn8   N33   2.106 1_556  S
Zn8   N35   2.029 .      S
Zn9   N27   2.159 .      S
Zn9   N39   2.114 .      S
Zn9   N42   2.171 .      S
Zn9   N45   1.999 .      S
Zn10  N29   2.020 .      S
Zn10  N44   2.099 .      S
Zn10  N47   2.084 1_556  S
Zn10  N51   2.041 1_556  S
Zn11  N32   2.053 .      S
Zn11  N48   2.084 .      S
Zn11  N54   2.048 .      S
Zn11  N56   2.140 .      S
Zn12  N36   2.018 .      S
Zn12  N59   2.186 .      S
Zn12  N62   2.168 .      S
Zn12  N65   2.103 1_556  S
Zn13  N41   2.082 .      S
Zn13  N68   2.199 .      S
Zn13  N71   2.200 .      S
Zn13  N74   2.130 .      S
Zn14  N50   2.093 .      S
Zn14  N77   2.093 .      S
Zn14  N81   2.079 .      S
Zn14  N83   2.202 .      S
Zn15  N60   2.163 .      S
Zn15  N87   2.095 1_556  S
Zn15  N89   2.125 .      S
Zn15  N93   2.164 .      S
Zn16  N38   2.055 .      S
Zn16  N63   2.123 .      S
Zn16  N92   2.110 .      S
Zn16  N95   2.119 .      S
C1    N1    1.456 .      S
C1    H1    1.109 .      S
C1    H2    1.108 .      S
C1    H3    1.104 .      S
N1    C2    1.455 .      S
N1    H4    1.043 .      S
C2    C3    1.487 .      S
C2    H5    1.101 .      S
C2    H6    1.104 .      S
N2    Zn3   2.097 1_655  S
C5    H7    1.059 .      S
C6    H8    1.078 .      S
C7    H9    1.077 .      S
C8    H10   1.074 .      S
C10   N4    1.454 .      S
C10   H11   1.105 .      S
C10   H12   1.109 .      S
C10   H13   1.110 .      S
N4    C11   1.454 .      S
N4    H14   1.044 .      S
C11   C12   1.497 .      S
C11   H15   1.105 .      S
C11   H16   1.099 .      S
C14   H17   1.074 .      S
C15   H18   1.081 .      S
C16   H19   1.081 .      S
C17   H20   1.070 .      S
C19   N7    1.453 .      S
C19   H21   1.109 .      S
C19   H22   1.109 .      S
C19   H23   1.109 .      S
N7    C20   1.447 .      S
N7    H24   1.035 .      S
C20   C21   1.495 .      S
C20   H25   1.103 .      S
C20   H26   1.108 .      S
C23   H27   1.066 .      S
C24   H28   1.081 .      S
C25   H29   1.081 .      S
C26   H30   1.074 .      S
C28   N10   1.422 .      S
C28   H31   1.095 .      S
C28   H32   1.102 .      S
C28   H33   1.098 .      S
N10   C29   1.422 .      S
N10   H34   1.035 .      S
C29   C30   1.446 .      S
C29   H35   1.087 .      S
C29   H36   1.105 .      S
C32   H37   1.059 .      S
C33   H38   1.078 .      S
C34   H39   1.081 1_545  S
C35   H40   1.079 1_545  S
H39   C34   1.081 1_565  S
H40   C35   1.079 1_565  S
C37   N13   1.439 .      S
C37   H41   1.106 .      S
C37   H42   1.103 .      S
C37   H43   1.104 .      S
N13   C38   1.458 .      S
N13   H44   1.042 .      S
C38   C39   1.469 .      S
C38   H45   1.091 .      S
C38   H46   1.092 .      S
C41   H47   1.079 .      S
C42   H48   1.081 .      S
C43   H49   1.081 1_455  S
C44   H50   1.076 1_455  S
H49   C43   1.081 1_655  S
H50   C44   1.076 1_655  S
C46   N16   1.445 .      S
C46   H51   1.107 .      S
C46   H52   1.086 .      S
C46   H53   1.077 .      S
N16   C47   1.443 .      S
N16   H54   1.034 1_545  S
C47   C48   1.463 1_545  S
C47   H55   1.094 .      S
C47   H56   1.096 .      S
C48   C47   1.463 1_565  S
N17   Zn5   2.101 1_565  S
C50   H57   1.051 .      S
C51   H58   1.081 .      S
C52   H59   1.076 .      S
C53   H60   1.080 .      S
H54   N16   1.034 1_565  S
C55   N19   1.458 .      S
C55   H61   1.106 .      S
C55   H62   1.107 .      S
C55   H63   1.107 .      S
N19   C56   1.433 .      S
N19   H64   1.035 .      S
C56   C57   1.474 .      S
C56   H65   1.093 .      S
C56   H66   1.102 .      S
C59   H67   1.064 .      S
C60   H68   1.081 .      S
C61   H69   1.081 .      S
C62   H70   1.073 .      S
C64   N22   1.465 .      S
C64   H71   1.101 .      S
C64   H72   1.092 .      S
C64   H73   1.088 .      S
N22   C65   1.457 .      S
N22   H74   1.034 1_545  S
C65   C66   1.502 1_545  S
C65   H75   1.098 .      S
C65   H76   1.098 .      S
C66   C65   1.502 1_565  S
C68   H77   1.070 .      S
C69   H78   1.081 .      S
C70   H79   1.081 1_655  S
C71   H80   1.078 1_655  S
N24   Zn5   2.134 1_665  S
H74   N22   1.034 1_565  S
H79   C70   1.081 1_455  S
H80   C71   1.078 1_455  S
C73   N25   1.452 .      S
C73   H81   1.109 .      S
C73   H82   1.106 .      S
C73   H83   1.107 .      S
N25   C74   1.455 .      S
N25   H84   1.041 .      S
C74   C75   1.473 .      S
C74   H85   1.092 .      S
C74   H86   1.079 .      S
C77   H87   1.069 .      S
C78   H88   1.079 .      S
C79   H89   1.075 .      S
C80   H90   1.073 .      S
C82   N28   1.455 .      S
C82   H91   1.109 .      S
C82   H92   1.109 .      S
C82   H93   1.108 1_455  S
N28   C83   1.452 .      S
N28   H94   1.043 .      S
C83   C84   1.494 .      S
C83   H95   1.101 1_455  S
C83   H96   1.107 .      S
C86   H97   1.074 .      S
C87   H98   1.081 .      S
C88   H99   1.077 .      S
C89   H100  1.057 .      S
N30   Zn8   2.112 1_455  S
H93   C82   1.108 1_655  S
H95   C83   1.101 1_655  S
C91   N31   1.458 .      S
C91   H101  1.105 .      S
C91   H102  1.106 .      S
C91   H103  1.105 .      S
N31   C92   1.444 1_556  S
N31   H104  1.020 .      S
C92   N31   1.444 1_554  S
C92   C93   1.464 .      S
C92   H105  1.104 1_554  S
C92   H106  1.096 .      S
C95   H107  1.072 .      S
C96   H108  1.077 .      S
C97   H109  1.075 1_655  S
C98   H110  1.054 .      S
N33   Zn8   2.106 1_554  S
H105  C92   1.104 1_556  S
H109  C97   1.075 1_455  S
C100  N34   1.453 .      S
C100  H111  1.108 .      S
C100  H112  1.106 .      S
C100  H113  1.108 .      S
N34   C101  1.455 .      S
N34   H114  1.039 .      S
C101  C102  1.487 .      S
C101  H115  1.099 .      S
C101  H116  1.104 .      S
C104  H117  1.072 .      S
C105  H118  1.081 .      S
C106  H119  1.080 .      S
C107  H120  1.077 .      S
C109  N37   1.448 .      S
C109  H121  1.097 .      S
C109  H122  1.093 .      S
C109  H123  1.106 .      S
N37   C110  1.450 .      S
N37   H124  1.036 .      S
C110  C111  1.482 .      S
C110  H125  1.097 .      S
C110  H126  1.093 .      S
C113  H127  1.075 .      S
C114  H128  1.080 .      S
C115  H129  1.077 .      S
C116  H130  1.073 .      S
C118  N40   1.449 .      S
C118  H131  1.105 .      S
C118  H132  1.109 .      S
C118  H133  1.103 .      S
N40   C119  1.460 .      S
N40   H134  1.044 .      S
C119  C120  1.472 .      S
C119  H135  1.099 .      S
C119  H136  1.101 .      S
C122  H137  1.080 .      S
C123  H138  1.081 .      S
C124  H139  1.081 .      S
C125  H140  1.051 .      S
C127  N43   1.449 .      S
C127  H141  1.104 .      S
C127  H142  1.108 .      S
C127  H143  1.109 .      S
N43   C128  1.449 .      S
N43   H144  1.043 .      S
C128  C129  1.477 .      S
C128  H145  1.087 .      S
C128  H146  1.099 .      S
C131  H147  1.055 .      S
C132  H148  1.081 .      S
C133  H149  1.081 .      S
C134  H150  1.080 .      S
C136  N46   1.457 .      S
C136  H151  1.097 .      S
C136  H152  1.105 .      S
C136  H153  1.105 .      S
N46   C137  1.460 .      S
N46   H154  1.042 .      S
C137  C138  1.491 .      S
C137  H155  1.095 .      S
C137  H156  1.092 1_554  S
N47   Zn10  2.084 1_554  S
C140  H157  1.071 .      S
C141  H158  1.079 .      S
C142  H159  1.081 .      S
C143  H160  1.080 .      S
H156  C137  1.092 1_556  S
C145  N49   1.456 .      S
C145  H161  1.107 .      S
C145  H162  1.098 .      S
C145  H163  1.104 .      S
N49   C146  1.446 .      S
N49   H164  1.031 .      S
C146  C147  1.483 .      S
C146  H165  1.107 .      S
C146  H166  1.087 .      S
C149  H167  1.074 1_556  S
C150  H168  1.081 .      S
C151  H169  1.081 .      S
C152  H170  1.078 .      S
N51   Zn10  2.041 1_554  S
H167  C149  1.074 1_554  S
C154  N52   1.430 .      S
C154  H171  1.093 .      S
C154  H172  1.101 .      S
C154  H173  1.095 .      S
N52   C155  1.443 .      S
N52   H174  1.036 .      S
C155  C156  1.446 .      S
C155  H175  1.072 .      S
C155  H176  1.093 .      S
C158  H177  1.078 .      S
C159  H178  1.081 .      S
C160  H179  1.081 .      S
C161  H180  1.073 .      S
C163  N55   1.446 .      S
C163  H181  1.099 .      S
C163  H182  1.098 .      S
C163  H183  1.103 .      S
N55   C164  1.436 .      S
N55   H184  1.027 .      S
C164  C165  1.478 .      S
C164  H185  1.102 .      S
C164  H186  1.105 .      S
C167  H187  1.064 .      S
C168  H188  1.081 .      S
C169  H189  1.081 .      S
C170  H190  1.077 .      S
C172  N58   1.452 .      S
C172  H191  1.106 .      S
C172  H192  1.107 .      S
C172  H193  1.105 .      S
N58   C173  1.437 1_554  S
N58   H194  1.037 .      S
C173  N58   1.437 1_556  S
C173  C174  1.488 .      S
C173  H195  1.106 .      S
C173  H196  1.107 .      S
C176  H197  1.078 .      S
C177  H198  1.081 .      S
C178  H199  1.081 .      S
C179  H200  1.067 .      S
C181  N61   1.456 .      S
C181  H201  1.106 .      S
C181  H202  1.098 .      S
C181  H203  1.089 .      S
N61   C182  1.462 .      S
N61   H204  1.037 .      S
C182  C183  1.491 .      S
C182  H205  1.090 .      S
C182  H206  1.093 .      S
C185  H207  1.072 .      S
C186  H208  1.081 .      S
C187  H209  1.078 .      S
C188  H210  1.076 .      S
C190  N64   1.429 .      S
C190  H211  1.081 .      S
C190  H212  1.076 .      S
C190  H213  1.092 .      S
N64   C191  1.427 1_556  S
N64   H214  1.030 1_556  S
C191  N64   1.427 1_554  S
C191  C192  1.466 .      S
C191  H215  1.058 .      S
C191  H216  1.089 .      S
N65   Zn12  2.103 1_554  S
C194  H217  1.044 1_554  S
C195  H218  1.081 .      S
C196  H219  1.062 .      S
C197  H220  1.074 .      S
H214  N64   1.030 1_554  S
H217  C194  1.044 1_556  S
C199  N67   1.426 .      S
C199  H221  1.103 .      S
C199  H222  1.079 .      S
C199  H223  1.094 .      S
N67   C200  1.425 .      S
N67   H224  1.032 .      S
C200  C201  1.431 .      S
C200  H225  1.100 .      S
C200  H226  1.091 .      S
C203  H227  1.069 .      S
C204  H228  1.081 .      S
C205  H229  1.081 1_455  S
C206  H230  1.077 1_455  S
H229  C205  1.081 1_655  S
H230  C206  1.077 1_655  S
C208  N70   1.428 .      S
C208  H231  1.093 .      S
C208  H232  1.084 .      S
C208  H233  1.096 .      S
N70   C209  1.425 .      S
N70   H234  1.037 1_545  S
C209  C210  1.451 .      S
C209  H235  1.102 .      S
C209  H236  1.090 .      S
C212  H237  1.064 1_565  S
C213  H238  1.081 .      S
C214  H239  1.081 .      S
C215  H240  1.070 .      S
H234  N70   1.037 1_565  S
H237  C212  1.064 1_545  S
C217  N73   1.460 .      S
C217  H241  1.107 .      S
C217  H242  1.106 .      S
C217  H243  1.106 .      S
N73   C218  1.455 .      S
N73   H244  1.036 .      S
C218  C219  1.499 .      S
C218  H245  1.095 .      S
C218  H246  1.109 .      S
C221  H247  1.071 .      S
C222  H248  1.079 .      S
C223  H249  1.080 .      S
C224  H250  1.065 .      S
C226  N76   1.448 .      S
C226  H251  1.101 .      S
C226  H252  1.098 .      S
C226  H253  1.104 .      S
N76   C227  1.424 .      S
N76   H254  1.021 .      S
C227  C228  1.471 .      S
C227  H255  1.102 .      S
C227  H256  1.090 .      S
C230  H257  1.075 .      S
C231  H258  1.081 .      S
C232  H259  1.076 .      S
C233  H260  1.076 .      S
C235  N79   1.458 .      S
C235  H261  1.107 .      S
C235  H262  1.100 .      S
C235  H263  1.103 .      S
N79   C236  1.449 .      S
N79   H264  1.041 .      S
C236  C237  1.480 .      S
C236  H265  1.084 .      S
C236  H266  1.095 .      S
C239  H267  1.073 .      S
C240  H268  1.068 .      S
C241  H269  1.081 1_455  S
C242  H270  1.057 .      S
H269  C241  1.081 1_655  S
C244  N82   1.449 .      S
C244  H271  1.101 .      S
C244  H272  1.088 .      S
C244  H273  1.108 .      S
N82   C245  1.439 .      S
N82   H274  1.023 .      S
C245  C246  1.480 .      S
C245  H275  1.104 .      S
C245  H276  1.099 .      S
C248  H277  1.059 .      S
C249  H278  1.081 1_554  S
C250  H279  1.081 1_554  S
C251  H280  1.077 .      S
H278  C249  1.081 1_556  S
H279  C250  1.081 1_556  S
C253  N85   1.453 .      S
C253  H281  1.100 .      S
C253  H282  1.109 1_554  S
C253  H283  1.100 1_554  S
N85   C254  1.451 .      S
N85   H284  1.043 .      S
C254  C255  1.472 .      S
C254  H285  1.090 1_554  S
C254  H286  1.102 .      S
C257  H287  1.062 .      S
C258  H288  1.081 .      S
C259  H289  1.081 .      S
C260  H290  1.074 .      S
N87   Zn15  2.095 1_554  S
H282  C253  1.109 1_556  S
H283  C253  1.100 1_556  S
H285  C254  1.090 1_556  S
C262  N88   1.452 .      S
C262  H291  1.105 1_455  S
C262  H292  1.109 .      S
C262  H293  1.109 1_455  S
N88   C263  1.448 .      S
N88   H294  1.044 .      S
C263  C264  1.474 .      S
C263  H295  1.103 .      S
C263  H296  1.096 .      S
C266  H297  1.078 .      S
C267  H298  1.081 .      S
C268  H299  1.081 .      S
C269  H300  1.068 1_556  S
H291  C262  1.105 1_655  S
H293  C262  1.109 1_655  S
H300  C269  1.068 1_554  S
C271  N91   1.448 .      S
C271  H301  1.108 .      S
C271  H302  1.105 .      S
C271  H303  1.105 .      S
N91   C272  1.453 .      S
N91   H304  1.044 .      S
C272  C273  1.473 .      S
C272  H305  1.089 .      S
C272  H306  1.108 .      S
C275  H307  1.078 .      S
C276  H308  1.081 .      S
C277  H309  1.081 .      S
C278  H310  1.057 .      S
C280  N94   1.450 .      S
C280  H311  1.109 .      S
C280  H312  1.098 .      S
C280  H313  1.108 .      S
N94   C281  1.454 .      S
N94   H314  1.043 .      S
C281  C282  1.480 .      S
C281  H315  1.097 .      S
C281  H316  1.104 .      S
C284  H317  1.055 .      S
C285  H318  1.081 .      S
C286  H319  1.081 .      S
C287  H320  1.055 .      S
C3    N2    1.389 .      A
C3    N3    1.377 .      A
N2    C4    1.354 .      A
C4    C5    1.364 .      A
C4    C9    1.349 .      A
C5    C6    1.377 .      A
C6    C7    1.384 .      A
C7    C8    1.371 .      A
C8    C9    1.370 .      A
C9    N3    1.330 .      A
C12   N5    1.397 .      A
C12   N6    1.369 .      A
N5    C13   1.350 .      A
C13   C14   1.358 .      A
C13   C18   1.352 .      A
C14   C15   1.384 .      A
C15   C16   1.381 .      A
C16   C17   1.380 .      A
C17   C18   1.380 .      A
C18   N6    1.345 .      A
C21   N8    1.393 .      A
C21   N9    1.392 .      A
N8    C22   1.355 .      A
C22   C23   1.375 .      A
C22   C27   1.364 .      A
C23   C24   1.383 .      A
C24   C25   1.385 .      A
C25   C26   1.381 .      A
C26   C27   1.371 .      A
C27   N9    1.345 .      A
C30   N11   1.371 .      A
C30   N12   1.367 .      A
N11   C31   1.353 1_455  A
C31   N11   1.353 1_655  A
C31   C32   1.369 .      A
C31   C36   1.359 .      A
C32   C33   1.388 .      A
C33   C34   1.389 .      A
C34   C35   1.385 .      A
C35   C36   1.374 .      A
C36   N12   1.337 1_655  A
N12   C36   1.337 1_455  A
C39   N14   1.401 .      A
C39   N15   1.382 .      A
N14   C40   1.351 .      A
C40   C41   1.373 .      A
C40   C45   1.378 .      A
C41   C42   1.386 .      A
C42   C43   1.391 .      A
C43   C44   1.385 .      A
C44   C45   1.372 .      A
C45   N15   1.350 .      A
C48   N17   1.384 .      A
C48   N18   1.374 .      A
N17   C49   1.351 .      A
C49   C50   1.367 .      A
C49   C54   1.362 .      A
C50   C51   1.380 .      A
C51   C52   1.383 .      A
C52   C53   1.379 .      A
C53   C54   1.367 .      A
C54   N18   1.343 .      A
C57   N20   1.391 .      A
C57   N21   1.366 .      A
N20   C58   1.345 .      A
C58   C59   1.369 .      A
C58   C63   1.362 .      A
C59   C60   1.384 .      A
C60   C61   1.388 .      A
C61   C62   1.386 .      A
C62   C63   1.365 .      A
C63   N21   1.346 .      A
C66   N23   1.401 .      A
C66   N24   1.394 .      A
N23   C67   1.352 .      A
C67   C68   1.372 .      A
C67   C72   1.365 .      A
C68   C69   1.383 .      A
C69   C70   1.387 .      A
C70   C71   1.383 .      A
C71   C72   1.378 .      A
C72   N24   1.347 .      A
C75   N26   1.378 .      A
C75   N27   1.390 .      A
N26   C76   1.341 .      A
C76   C77   1.367 .      A
C76   C81   1.371 .      A
C77   C78   1.378 .      A
C78   C79   1.380 .      A
C79   C80   1.389 .      A
C80   C81   1.367 .      A
C81   N27   1.350 .      A
C84   N29   1.382 .      A
C84   N30   1.388 .      A
N29   C85   1.333 .      A
C85   C86   1.371 .      A
C85   C90   1.346 .      A
C86   C87   1.380 .      A
C87   C88   1.380 .      A
C88   C89   1.380 .      A
C89   C90   1.362 .      A
C90   N30   1.354 .      A
C93   N32   1.373 .      A
C93   N33   1.382 .      A
N32   C94   1.348 .      A
C94   C95   1.379 .      A
C94   C99   1.361 .      A
C95   C96   1.378 .      A
C96   C97   1.379 .      A
C97   C98   1.372 .      A
C98   C99   1.357 .      A
C99   N33   1.344 .      A
C102  N35   1.378 .      A
C102  N36   1.376 .      A
N35   C103  1.347 1_556  A
C103  N35   1.347 1_554  A
C103  C104  1.371 .      A
C103  C108  1.355 .      A
C104  C105  1.382 .      A
C105  C106  1.386 .      A
C106  C107  1.384 .      A
C107  C108  1.381 .      A
C108  N36   1.350 1_554  A
N36   C108  1.350 1_556  A
C111  N38   1.382 .      A
C111  N39   1.391 .      A
N38   C112  1.336 .      A
C112  C113  1.367 .      A
C112  C117  1.362 .      A
C113  C114  1.378 .      A
C114  C115  1.384 .      A
C115  C116  1.384 .      A
C116  C117  1.368 .      A
C117  N39   1.353 .      A
C120  N41   1.386 .      A
C120  N42   1.387 .      A
N41   C121  1.334 .      A
C121  C122  1.377 .      A
C121  C126  1.367 .      A
C122  C123  1.376 .      A
C123  C124  1.381 .      A
C124  C125  1.385 .      A
C125  C126  1.381 .      A
C126  N42   1.374 .      A
C129  N44   1.381 .      A
C129  N45   1.371 .      A
N44   C130  1.364 .      A
C130  C131  1.371 .      A
C130  C135  1.353 .      A
C131  C132  1.386 .      A
C132  C133  1.385 .      A
C133  C134  1.380 .      A
C134  C135  1.378 .      A
C135  N45   1.335 .      A
C138  N47   1.368 .      A
C138  N48   1.393 .      A
N47   C139  1.360 .      A
C139  C140  1.379 .      A
C139  C144  1.362 .      A
C140  C141  1.387 .      A
C141  C142  1.386 .      A
C142  C143  1.380 .      A
C143  C144  1.374 .      A
C144  N48   1.339 .      A
C147  N50   1.386 .      A
C147  N51   1.369 .      A
N50   C148  1.356 .      A
C148  C149  1.377 1_554  A
C148  C153  1.363 1_554  A
C149  C148  1.377 1_556  A
C149  C150  1.385 .      A
C150  C151  1.388 .      A
C151  C152  1.383 .      A
C152  C153  1.375 .      A
C153  C148  1.363 1_556  A
C153  N51   1.344 1_556  A
N51   C153  1.344 1_554  A
C156  N53   1.362 .      A
C156  N54   1.368 .      A
N53   C157  1.348 .      A
C157  C158  1.374 .      A
C157  C162  1.368 .      A
C158  C159  1.384 .      A
C159  C160  1.390 .      A
C160  C161  1.385 .      A
C161  C162  1.374 .      A
C162  N54   1.351 .      A
C165  N56   1.393 .      A
C165  N57   1.386 .      A
N56   C166  1.355 .      A
C166  C167  1.368 .      A
C166  C171  1.363 .      A
C167  C168  1.385 .      A
C168  C169  1.388 .      A
C169  C170  1.383 .      A
C170  C171  1.372 .      A
C171  N57   1.340 .      A
C174  N59   1.404 1_455  A
C174  N60   1.394 .      A
N59   C174  1.404 1_655  A
N59   C175  1.355 .      A
C175  C176  1.381 .      A
C175  C180  1.369 1_655  A
C176  C177  1.383 .      A
C177  C178  1.387 1_655  A
C178  C177  1.387 1_455  A
C178  C179  1.383 .      A
C179  C180  1.368 .      A
C180  C175  1.369 1_455  A
C180  N60   1.347 .      A
C183  N62   1.396 .      A
C183  N63   1.386 .      A
N62   C184  1.353 .      A
C184  C185  1.372 .      A
C184  C189  1.373 .      A
C185  C186  1.383 .      A
C186  C187  1.387 .      A
C187  C188  1.384 .      A
C188  C189  1.369 .      A
C189  N63   1.345 .      A
C192  N65   1.388 .      A
C192  N66   1.375 .      A
N65   C193  1.344 .      A
C193  C194  1.359 .      A
C193  C198  1.360 .      A
C194  C195  1.372 .      A
C195  C196  1.376 .      A
C196  C197  1.379 .      A
C197  C198  1.363 .      A
C198  N66   1.342 .      A
C201  N68   1.384 .      A
C201  N69   1.380 .      A
N68   C202  1.364 .      A
C202  C203  1.375 .      A
C202  C207  1.380 .      A
C203  C204  1.385 .      A
C204  C205  1.386 .      A
C205  C206  1.380 .      A
C206  C207  1.374 .      A
C207  N69   1.344 .      A
C210  N71   1.392 .      A
C210  N72   1.395 1_545  A
N71   C211  1.353 1_545  A
C211  N71   1.353 1_565  A
C211  C212  1.372 .      A
C211  C216  1.377 .      A
C212  C213  1.382 .      A
C213  C214  1.385 .      A
C214  C215  1.382 .      A
C215  C216  1.375 .      A
C216  N72   1.353 .      A
N72   C210  1.395 1_565  A
C219  N74   1.395 .      A
C219  N75   1.384 .      A
N74   C220  1.344 .      A
C220  C221  1.366 .      A
C220  C225  1.363 .      A
C221  C222  1.378 .      A
C222  C223  1.379 .      A
C223  C224  1.379 .      A
C224  C225  1.347 .      A
C225  N75   1.335 .      A
C228  N77   1.390 .      A
C228  N78   1.362 .      A
N77   C229  1.346 .      A
C229  C230  1.372 .      A
C229  C234  1.359 .      A
C230  C231  1.382 .      A
C231  C232  1.387 .      A
C232  C233  1.386 .      A
C233  C234  1.373 .      A
C234  N78   1.351 .      A
C237  N80   1.382 .      A
C237  N81   1.383 .      A
N80   C238  1.352 .      A
C238  C239  1.372 1_455  A
C238  C243  1.364 .      A
C239  C238  1.372 1_655  A
C239  C240  1.386 .      A
C240  C241  1.371 1_655  A
C241  C240  1.371 1_455  A
C241  C242  1.367 .      A
C242  C243  1.374 .      A
C243  N81   1.347 .      A
C246  N83   1.404 .      A
C246  N84   1.391 1_545  A
N83   C247  1.362 .      A
C247  C248  1.374 .      A
C247  C252  1.369 1_545  A
C248  C249  1.383 .      A
C249  C250  1.383 1_545  A
C250  C249  1.383 1_565  A
C250  C251  1.379 .      A
C251  C252  1.379 .      A
C252  C247  1.369 1_565  A
C252  N84   1.346 .      A
N84   C246  1.391 1_565  A
C255  N86   1.385 .      A
C255  N87   1.382 .      A
N86   C256  1.352 .      A
C256  C257  1.370 .      A
C256  C261  1.365 .      A
C257  C258  1.382 .      A
C258  C259  1.385 .      A
C259  C260  1.384 .      A
C260  C261  1.366 .      A
C261  N87   1.343 .      A
C264  N89   1.382 1_554  A
C264  N90   1.392 .      A
N89   C264  1.382 1_556  A
N89   C265  1.349 .      A
C265  C266  1.381 .      A
C265  C270  1.374 1_556  A
C266  C267  1.380 .      A
C267  C268  1.383 .      A
C268  C269  1.383 .      A
C269  C270  1.380 1_556  A
C270  C265  1.374 1_554  A
C270  C269  1.380 1_554  A
C270  N90   1.362 .      A
C273  N92   1.384 .      A
C273  N93   1.394 .      A
N92   C274  1.342 .      A
C274  C275  1.375 .      A
C274  C279  1.364 .      A
C275  C276  1.379 .      A
C276  C277  1.384 .      A
C277  C278  1.384 .      A
C278  C279  1.370 .      A
C279  N93   1.360 .      A
C282  N95   1.396 .      A
C282  N96   1.386 .      A
N95   C283  1.350 .      A
C283  C284  1.378 .      A
C283  C288  1.361 .      A
C284  C285  1.377 .      A
C285  C286  1.375 .      A
C286  C287  1.378 .      A
C287  C288  1.370 .      A
C288  N96   1.359 .      A
