data_str_m1_o12004_ITH
_audit_creation_date              2015-10-01T06:30:42-0700
_symmetry_space_group_name_H-M    P1
_symmetry_Int_Tables_number       1
_space_group_crystal_system       triclinic
loop_
_symmetry_equiv_pos_as_xyz
  x,y,z
_cell_length_a                    23.4082247
_cell_length_b                    26.1761417
_cell_length_c                    25.2927180
_cell_angle_alpha                 94.3591321
_cell_angle_beta                  65.7864314
_cell_angle_gamma                 93.0753085
_cell_volume                      14089.1437654

loop_
_atom_site_label
_atom_site_type_symbol
_atom_site_description
_atom_site_fract_x
_atom_site_fract_y
_atom_site_fract_z
_atom_type_partial_charge
Zn1   Zn    Zn3+2 0.659626 0.650205 0.642429 0.000000
Zn2   Zn    Zn3+2 0.838228 0.369564 0.973937 0.000000
Zn3   Zn    Zn3+2 0.337245 0.512510 0.578679 0.000000
Zn4   Zn    Zn3+2 0.365082 0.336040 0.721245 0.000000
Zn5   Zn    Zn3+2 0.869983 0.322545 0.707341 0.000000
Zn6   Zn    Zn3+2 0.123529 0.378430 0.969725 0.000000
Zn7   Zn    Zn3+2 0.784253 0.398843 0.358866 0.000000
Zn8   Zn    Zn3+2 0.071889 0.499638 0.576547 0.000000
Zn9   Zn    Zn3+2 0.660930 0.406746 0.637313 0.000000
Zn10  Zn    Zn3+2 0.173540 0.898971 0.322990 0.000000
Zn11  Zn    Zn3+2 0.162203 0.137280 0.333060 0.000000
Zn12  Zn    Zn3+2 0.443999 0.879717 0.315714 0.000000
Zn13  Zn    Zn3+2 0.078207 0.702042 0.222941 0.000000
Zn14  Zn    Zn3+2 0.061669 0.884422 0.600830 0.000000
Zn15  Zn    Zn3+2 0.427080 0.120752 0.329299 0.000000
Zn16  Zn    Zn3+2 0.643630 0.701962 0.204323 0.000000
Zn17  Zn    Zn3+2 0.039237 0.118185 0.613132 0.000000
Zn18  Zn    Zn3+2 0.337394 0.889521 0.597721 0.000000
Zn19  Zn    Zn3+2 0.890285 0.688765 0.712859 0.000000
Zn20  Zn    Zn3+2 0.073373 0.325662 0.223557 0.000000
Zn21  Zn    Zn3+2 0.126206 0.625611 0.963152 0.000000
Zn22  Zn    Zn3+2 0.193173 0.520156 0.305177 0.000000
Zn23  Zn    Zn3+2 0.849762 0.619530 0.956396 0.000000
Zn24  Zn    Zn3+2 0.780693 0.651623 0.363401 0.000000
Zn25  Zn    Zn3+2 0.624491 0.303549 0.221314 0.000000
Zn26  Zn    Zn3+2 0.460824 0.505799 0.298225 0.000000
Zn27  Zn    Zn3+2 0.364371 0.705415 0.738341 0.000000
Zn28  Zn    Zn3+2 0.308585 0.122565 0.610879 0.000000
C1    C     C_3   0.828093 0.493696 0.547666 0.000000
N1    N     N_3   0.786541 0.530489 0.589653 0.000000
C2    C     C_3   0.733277 0.534058 0.575283 0.000000
C3    C     C_R   0.677376 0.528728 0.627395 0.000000
N2    N     N_R   0.653754 0.572387 0.661603 0.000000
C4    C     C_R   0.633227 0.554617 0.715371 0.000000
C5    C     C_R   0.609238 0.581544 0.767616 0.000000
C6    C     C_R   0.588075 0.555082 0.817790 0.000000
C7    C     C_R   0.592509 0.502192 0.814767 0.000000
C8    C     C_R   0.620227 0.475542 0.761494 0.000000
C9    C     C_R   0.641304 0.503138 0.712706 0.000000
N3    N     N_R   0.666621 0.484713 0.657255 0.000000
H1    H     H_    0.843427 0.505778 0.503645 0.000000
H2    H     H_    0.870058 0.489919 0.555974 0.000000
H3    H     H_    0.804166 0.455888 0.549941 0.000000
H4    H     H_    0.809345 0.566175 0.586042 0.000000
H5    H     H_    0.731701 0.572295 0.560945 0.000000
H6    H     H_    0.734631 0.503180 0.543985 0.000000
H7    H     H_    0.608512 0.622112 0.769408 0.000000
H8    H     H_    0.568194 0.575843 0.859648 0.000000
H9    H     H_    0.575109 0.481929 0.854246 0.000000
H10   H     H_    0.624427 0.434460 0.758514 0.000000
C10   C     C_3   0.239365 0.477396 0.808145 0.000000
N4    N     N_3   0.256904 0.435967 0.763527 0.000000
C11   C     C_3   0.275300 0.457778 0.707931 0.000000
C12   C     C_R   0.332871 0.433730 0.663626 0.000000
N5    N     N_R   0.359568 0.389461 0.668822 0.000000
C13   C     C_R   0.407493 0.383891 0.616779 0.000000
C14   C     C_R   0.447894 0.344374 0.597697 0.000000
C15   C     C_R   0.489384 0.341807 0.540787 0.000000
C16   C     C_R   0.489460 0.378370 0.504464 0.000000
C17   C     C_R   0.452276 0.420851 0.525762 0.000000
C18   C     C_R   0.410181 0.421889 0.582434 0.000000
N6    N     N_R   0.363638 0.454546 0.610719 0.000000
H11   H     H_    0.227908 0.461734 0.850867 0.000000
H12   H     H_    0.278366 0.505499 0.799483 0.000000
H13   H     H_    0.198123 0.496817 0.809258 0.000000
H14   H     H_    0.215873 0.414816 0.770181 0.000000
H15   H     H_    0.236682 0.451664 0.693422 0.000000
H16   H     H_    0.284437 0.499525 0.711364 0.000000
H17   H     H_    0.443302 0.313002 0.624002 0.000000
H18   H     H_    0.519294 0.309422 0.523910 0.000000
H19   H     H_    0.518996 0.372600 0.459424 0.000000
H20   H     H_    0.456316 0.451421 0.498460 0.000000
C19   C     C_3   0.548594 0.204466 0.660251 0.000000
N7    N     N_3   0.516527 0.251703 0.687442 0.000000
C20   C     C_3   0.546516 0.292719 0.649096 0.000000
C21   C     C_R   0.521951 0.343321 0.679024 0.000000
N8    N     N_R   0.458273 0.353289 0.711652 0.000000
C22   C     C_R   0.460577 0.402732 0.727040 0.000000
C23   C     C_R   0.409642 0.432469 0.755042 0.000000
C24   C     C_R   0.418821 0.484115 0.758353 0.000000
C25   C     C_R   0.477411 0.505577 0.729854 0.000000
C26   C     C_R   0.526411 0.474660 0.697263 0.000000
C27   C     C_R   0.519456 0.422851 0.701704 0.000000
N9    N     N_R   0.561683 0.386290 0.672508 0.000000
H21   H     H_    0.523785 0.172119 0.687213 0.000000
H22   H     H_    0.548635 0.197210 0.616458 0.000000
H23   H     H_    0.597449 0.207161 0.656797 0.000000
H24   H     H_    0.522573 0.259756 0.725860 0.000000
H25   H     H_    0.597537 0.293073 0.636958 0.000000
H26   H     H_    0.538836 0.286131 0.608832 0.000000
H27   H     H_    0.363068 0.416680 0.772872 0.000000
H28   H     H_    0.378889 0.507518 0.777619 0.000000
H29   H     H_    0.483738 0.546619 0.728064 0.000000
H30   H     H_    0.565176 0.491361 0.663985 0.000000
C28   C     C_3   0.880152 0.183980 0.836314 0.000000
N10   N     N_3   0.869524 0.230371 0.813937 0.000000
C29   C     C_3   0.895067 0.273843 0.837288 0.000000
C30   C     C_R   0.857632 0.319964 0.842889 0.000000
N11   N     N_R   0.839869 0.334374 0.799821 0.000000
C31   C     C_R   0.792212 0.366301 0.831612 0.000000
C32   C     C_R   0.752087 0.391386 0.815878 0.000000
C33   C     C_R   0.703098 0.418355 0.857240 0.000000
C34   C     C_R   0.695824 0.422479 0.914136 0.000000
C35   C     C_R   0.738317 0.399560 0.928660 0.000000
C36   C     C_R   0.785239 0.372132 0.887429 0.000000
N12   N     N_R   0.828092 0.346678 0.896210 0.000000
H31   H     H_    0.868618 0.150170 0.813018 0.000000
H32   H     H_    0.929861 0.182611 0.829438 0.000000
H33   H     H_    0.849559 0.182897 0.883307 0.000000
H34   H     H_    0.821067 0.234396 0.830393 0.000000
H35   H     H_    0.890800 0.266218 0.881236 0.000000
H36   H     H_    0.945447 0.279360 0.809792 0.000000
H37   H     H_    0.756575 0.391254 0.773316 0.000000
H38   H     H_    0.670589 0.436412 0.844703 0.000000
H39   H     H_    0.657560 0.443649 0.946792 0.000000
H40   H     H_    0.733944 0.400646 0.971699 0.000000
C37   C     C_3   0.862380 0.491536 0.669172 0.000000
N13   N     N_3   0.825046 0.445953 0.692346 0.000000
C38   C     C_3   0.805290 0.421757 0.648796 0.000000
C39   C     C_R   0.770821 0.373094 0.667659 0.000000
N14   N     N_R   0.790539 0.335832 0.692144 0.000000
C40   C     C_R   0.736281 0.309955 0.720855 0.000000
C41   C     C_R   0.726358 0.272912 0.759603 0.000000
C42   C     C_R   0.665710 0.254535 0.788754 0.000000
C43   C     C_R   0.616538 0.274674 0.780374 0.000000
C44   C     C_R   0.627418 0.313028 0.742314 0.000000
C45   C     C_R   0.688065 0.329413 0.712053 0.000000
N15   N     N_R   0.708715 0.368427 0.676355 0.000000
H41   H     H_    0.883953 0.507793 0.698424 0.000000
H42   H     H_    0.900238 0.481943 0.626764 0.000000
H43   H     H_    0.832459 0.520760 0.664941 0.000000
H44   H     H_    0.784509 0.459787 0.726062 0.000000
H45   H     H_    0.771536 0.446937 0.644655 0.000000
H46   H     H_    0.844979 0.414638 0.607289 0.000000
H47   H     H_    0.764545 0.258825 0.767447 0.000000
H48   H     H_    0.656297 0.225281 0.819415 0.000000
H49   H     H_    0.569111 0.261219 0.804971 0.000000
H50   H     H_    0.588940 0.331187 0.739417 0.000000
C46   C     C_3   0.899007 0.315592 0.536231 0.000000
N16   N     N_3   0.924690 0.331998 0.578322 0.000000
C47   C     C_3   0.961544 0.379567 0.562842 0.000000
C48   C     C_R   0.966534 0.402234 0.616322 0.000000
N17   N     N_R   0.938458 0.377233 0.667181 0.000000
C49   C     C_R   0.972688 0.394569 0.695947 0.000000
C50   C     C_R   0.988821 0.363758 0.727889 0.000000
C51   C     C_R   0.049900 0.367023 0.722317 0.000000
C52   C     C_R   0.085794 0.410596 0.701620 0.000000
C53   C     C_R   0.060431 0.448334 0.683527 0.000000
C54   C     C_R   0.011807 0.433395 0.669025 0.000000
N18   N     N_R   0.010467 0.439779 0.617299 0.000000
H51   H     H_    0.933488 0.321999 0.491677 0.000000
H52   H     H_    0.887012 0.274070 0.539396 0.000000
H53   H     H_    0.855741 0.336508 0.546117 0.000000
H54   H     H_    0.954867 0.303745 0.577480 0.000000
H55   H     H_    0.008977 0.370621 0.530048 0.000000
H56   H     H_    0.940246 0.406580 0.545258 0.000000
H57   H     H_    0.960927 0.330200 0.743109 0.000000
H58   H     H_    0.066964 0.337953 0.739379 0.000000
H59   H     H_    0.131123 0.416267 0.703157 0.000000
H60   H     H_    0.083426 0.485041 0.673638 0.000000
C55   C     C_3   0.984909 0.233524 0.054154 0.000000
N19   N     N_3   0.990170 0.267505 0.009739 0.000000
C56   C     C_3   0.960027 0.315596 0.036935 0.000000
C57   C     C_R   0.975530 0.350725 0.989917 0.000000
N20   N     N_R   0.037916 0.366033 0.961300 0.000000
C58   C     C_R   0.039136 0.381553 0.912271 0.000000
C59   C     C_R   0.089038 0.405418 0.870819 0.000000
C60   C     C_R   0.078308 0.427725 0.828989 0.000000
C61   C     C_R   0.019407 0.423616 0.829470 0.000000
C62   C     C_R   0.975189 0.390414 0.863826 0.000000
C63   C     C_R   0.982478 0.374333 0.909797 0.000000
N21   N     N_R   0.937544 0.358896 0.960376 0.000000
H61   H     H_    0.017226 0.246542 0.074369 0.000000
H62   H     H_    0.936871 0.233905 0.087839 0.000000
H63   H     H_    0.996654 0.194092 0.034464 0.000000
H64   H     H_    0.967629 0.250304 0.984740 0.000000
H65   H     H_    0.909154 0.311049 0.061507 0.000000
H66   H     H_    0.980899 0.331251 0.066755 0.000000
H67   H     H_    0.132422 0.412929 0.875235 0.000000
H68   H     H_    0.114671 0.449971 0.797914 0.000000
H69   H     H_    0.007914 0.444219 0.800390 0.000000
H70   H     H_    0.935130 0.381101 0.855934 0.000000
C64   C     C_3   0.407999 0.395639 0.886043 0.000000
N22   N     N_3   0.369245 0.366845 0.861094 0.000000
C65   C     C_3   0.305276 0.383855 0.891866 0.000000
C66   C     C_R   0.265535 0.359843 0.863208 0.000000
N23   N     N_R   0.289679 0.343254 0.804615 0.000000
C67   C     C_R   0.238440 0.321937 0.800355 0.000000
C68   C     C_R   0.230298 0.314205 0.750123 0.000000
C69   C     C_R   0.170657 0.304226 0.753831 0.000000
C70   C     C_R   0.121722 0.297114 0.807197 0.000000
C71   C     C_R   0.132328 0.301182 0.857005 0.000000
C72   C     C_R   0.188665 0.322053 0.852409 0.000000
N24   N     N_R   0.201338 0.350217 0.893159 0.000000
H71   H     H_    0.456237 0.380831 0.865716 0.000000
H72   H     H_    0.409772 0.436769 0.877537 0.000000
H73   H     H_    0.388669 0.391247 0.933529 0.000000
H74   H     H_    0.369593 0.328448 0.869453 0.000000
H75   H     H_    0.287160 0.370862 0.936516 0.000000
H76   H     H_    0.303732 0.426102 0.892346 0.000000
H77   H     H_    0.267049 0.324786 0.710128 0.000000
H78   H     H_    0.162556 0.302916 0.714957 0.000000
H79   H     H_    0.074668 0.289779 0.810420 0.000000
H80   H     H_    0.095259 0.293683 0.898399 0.000000
C73   C     C_3   0.568966 0.463750 0.553028 0.000000
N25   N     N_3   0.614016 0.424009 0.537757 0.000000
C74   C     C_3   0.671756 0.442900 0.494130 0.000000
C75   C     C_R   0.721671 0.413780 0.496796 0.000000
N26   N     N_R   0.761598 0.387819 0.446782 0.000000
C76   C     C_R   0.771901 0.344738 0.467456 0.000000
C77   C     C_R   0.792831 0.299243 0.436022 0.000000
C78   C     C_R   0.784413 0.255419 0.466090 0.000000
C79   C     C_R   0.755883 0.257444 0.526063 0.000000
C80   C     C_R   0.733143 0.302944 0.556902 0.000000
C81   C     C_R   0.741388 0.346177 0.526783 0.000000
N27   N     N_R   0.710395 0.390188 0.547386 0.000000
H81   H     H_    0.524515 0.449622 0.586258 0.000000
H82   H     H_    0.585801 0.497747 0.571428 0.000000
H83   H     H_    0.562561 0.473740 0.514134 0.000000
H84   H     H_    0.598685 0.392628 0.518927 0.000000
H85   H     H_    0.672660 0.435060 0.450503 0.000000
H86   H     H_    0.677166 0.484100 0.501243 0.000000
H87   H     H_    0.810795 0.296785 0.389316 0.000000
H88   H     H_    0.796456 0.218515 0.443149 0.000000
H89   H     H_    0.747686 0.222557 0.548608 0.000000
H90   H     H_    0.704923 0.302642 0.602530 0.000000
C82   C     C_3   0.294055 0.636709 0.507042 0.000000
N28   N     N_3   0.247739 0.608963 0.554232 0.000000
C83   C     C_3   0.243702 0.557813 0.530566 0.000000
C84   C     C_R   0.212054 0.520622 0.575077 0.000000
N29   N     N_R   0.253231 0.490542 0.582915 0.000000
C85   C     C_R   0.229873 0.443018 0.580329 0.000000
C86   C     C_R   0.259125 0.397148 0.571673 0.000000
C87   C     C_R   0.232620 0.354627 0.554014 0.000000
C88   C     C_R   0.179961 0.359101 0.543408 0.000000
C89   C     C_R   0.148569 0.403853 0.557880 0.000000
C90   C     C_R   0.174704 0.445515 0.575814 0.000000
N30   N     N_R   0.157851 0.494236 0.579136 0.000000
H91   H     H_    0.275022 0.673582 0.505224 0.000000
H92   H     H_    0.337316 0.643059 0.514589 0.000000
H93   H     H_    0.305237 0.615742 0.464371 0.000000
H94   H     H_    0.204410 0.625504 0.567428 0.000000
H95   H     H_    0.227513 0.555955 0.496166 0.000000
H96   H     H_    0.291177 0.544372 0.508595 0.000000
H97   H     H_    0.303742 0.393920 0.572996 0.000000
H98   H     H_    0.254916 0.318178 0.544526 0.000000
H99   H     H_    0.160906 0.326664 0.526709 0.000000
H100  H     H_    0.106590 0.405847 0.551980 0.000000
C91   C     C_3   0.275605 0.019231 0.190731 0.000000
N31   N     N_3   0.301020 0.027122 0.234788 0.000000
C92   C     C_3   0.257492 0.029411 0.296487 0.000000
C93   C     C_R   0.191295 0.021850 0.306036 0.000000
N32   N     N_R   0.167213 0.973925 0.297527 0.000000
C94   C     C_R   0.126775 0.986426 0.274774 0.000000
C95   C     C_R   0.092320 0.954360 0.252861 0.000000
C96   C     C_R   0.054864 0.976083 0.230538 0.000000
C97   C     C_R   0.052657 0.028955 0.229821 0.000000
C98   C     C_R   0.088144 0.060926 0.251288 0.000000
C99   C     C_R   0.124687 0.038557 0.273492 0.000000
N33   N     N_R   0.161740 0.062395 0.297157 0.000000
H101  H     H_    0.243130 0.049370 0.193832 0.000000
H102  H     H_    0.314941 0.021122 0.147358 0.000000
H103  H     H_    0.253405 0.980603 0.192467 0.000000
H104  H     H_    0.338319 0.053213 0.224272 0.000000
H105  H     H_    0.270856 0.001204 0.317867 0.000000
H106  H     H_    0.262736 0.065512 0.317974 0.000000
H107  H     H_    0.095033 0.913601 0.251231 0.000000
H108  H     H_    0.027456 0.951542 0.212950 0.000000
H109  H     H_    0.023347 0.045188 0.212005 0.000000
H110  H     H_    0.087193 0.102050 0.250512 0.000000
C100  C     C_3   0.403538 0.939624 0.154260 0.000000
N34   N     N_3   0.389304 0.906747 0.202014 0.000000
C101  C     C_3   0.345575 0.931829 0.255322 0.000000
C102  C     C_R   0.319746 0.895280 0.301212 0.000000
N35   N     N_R   0.261844 0.873244 0.310959 0.000000
C103  C     C_R   0.271307 0.823501 0.314944 0.000000
C104  C     C_R   0.231038 0.782192 0.319667 0.000000
C105  C     C_R   0.254248 0.733826 0.314557 0.000000
C106  C     C_R   0.314198 0.727742 0.311175 0.000000
C107  C     C_R   0.350835 0.770111 0.314776 0.000000
C108  C     C_R   0.328910 0.817751 0.314544 0.000000
N36   N     N_R   0.359428 0.863504 0.310089 0.000000
H111  H     H_    0.445826 0.925552 0.116826 0.000000
H112  H     H_    0.363933 0.938174 0.140909 0.000000
H113  H     H_    0.412944 0.979477 0.167226 0.000000
H114  H     H_    0.430502 0.902358 0.206819 0.000000
H115  H     H_    0.367180 0.965833 0.268896 0.000000
H116  H     H_    0.305116 0.940757 0.247286 0.000000
H117  H     H_    0.183261 0.786419 0.326000 0.000000
H118  H     H_    0.224969 0.700499 0.314443 0.000000
H119  H     H_    0.331152 0.689573 0.308011 0.000000
H120  H     H_    0.395829 0.765569 0.315863 0.000000
C109  C     C_3   0.959349 0.802566 0.409199 0.000000
N37   N     N_3   0.024710 0.818437 0.378630 0.000000
C110  C     C_3   0.035160 0.821867 0.318886 0.000000
C111  C     C_R   0.100687 0.811440 0.278319 0.000000
N38   N     N_R   0.149635 0.845261 0.272349 0.000000
C112  C     C_R   0.195338 0.826947 0.222689 0.000000
C113  C     C_R   0.253923 0.847625 0.193347 0.000000
C114  C     C_R   0.295722 0.819731 0.145872 0.000000
C115  C     C_R   0.277837 0.772201 0.128668 0.000000
C116  C     C_R   0.217248 0.753475 0.157297 0.000000
C117  C     C_R   0.176615 0.782450 0.203131 0.000000
N39   N     N_R   0.116505 0.771284 0.236503 0.000000
H121  H     H_    0.947312 0.805457 0.456123 0.000000
H122  H     H_    0.928764 0.827991 0.399723 0.000000
H123  H     H_    0.950521 0.762636 0.396027 0.000000
H124  H     H_    0.054784 0.792307 0.381808 0.000000
H125  H     H_    0.005884 0.792772 0.309850 0.000000
H126  H     H_    0.020789 0.859529 0.312185 0.000000
H127  H     H_    0.266086 0.885137 0.205595 0.000000
H128  H     H_    0.342448 0.835005 0.122065 0.000000
H129  H     H_    0.310792 0.750454 0.091692 0.000000
H130  H     H_    0.201681 0.717877 0.143274 0.000000
C118  C     C_3   0.215362 0.960748 0.415967 0.000000
N40   N     N_3   0.230169 0.922790 0.446625 0.000000
C119  C     C_3   0.191787 0.876024 0.453678 0.000000
C120  C     C_R   0.128341 0.885274 0.459430 0.000000
N41   N     N_R   0.077409 0.885396 0.512513 0.000000
C121  C     C_R   0.030950 0.897444 0.497766 0.000000
C122  C     C_R   0.968430 0.899849 0.533231 0.000000
C123  C     C_R   0.927862 0.910039 0.508343 0.000000
C124  C     C_R   0.950902 0.920967 0.450131 0.000000
C125  C     C_R   0.014731 0.921080 0.415805 0.000000
C126  C     C_R   0.053302 0.905377 0.439774 0.000000
N42   N     N_R   0.114866 0.895308 0.412853 0.000000
H131  H     H_    0.214366 0.944405 0.375752 0.000000
H132  H     H_    0.171051 0.979561 0.441666 0.000000
H133  H     H_    0.252991 0.989946 0.405340 0.000000
H134  H     H_    0.276494 0.914266 0.421257 0.000000
H135  H     H_    0.213166 0.848264 0.417841 0.000000
H136  H     H_    0.187499 0.858678 0.493390 0.000000
H137  H     H_    0.951116 0.890970 0.578109 0.000000
H138  H     H_    0.877973 0.910357 0.534537 0.000000
H139  H     H_    0.918697 0.930026 0.431646 0.000000
H140  H     H_    0.032824 0.929771 0.370803 0.000000
C127  C     C_3   0.069496 0.269771 0.466143 0.000000
N43   N     N_3   0.059679 0.227793 0.503465 0.000000
C128  C     C_3   0.117347 0.199518 0.481645 0.000000
C129  C     C_R   0.102757 0.144875 0.474967 0.000000
N44   N     N_R   0.066241 0.115514 0.521262 0.000000
C130  C     C_R   0.043876 0.078405 0.494135 0.000000
C131  C     C_R   0.992312 0.046999 0.519352 0.000000
C132  C     C_R   0.957219 0.031467 0.488712 0.000000
C133  C     C_R   0.978926 0.040395 0.430799 0.000000
C134  C     C_R   0.035929 0.064815 0.403728 0.000000
C135  C     C_R   0.068260 0.084138 0.435829 0.000000
N45   N     N_R   0.110292 0.123582 0.421227 0.000000
H141  H     H_    0.025543 0.290072 0.479345 0.000000
H142  H     H_    0.105420 0.296749 0.470639 0.000000
H143  H     H_    0.082935 0.255477 0.420327 0.000000
H144  H     H_    0.024770 0.203694 0.498942 0.000000
H145  H     H_    0.147622 0.211617 0.438047 0.000000
H146  H     H_    0.142020 0.205683 0.510507 0.000000
H147  H     H_    0.975182 0.037201 0.562919 0.000000
H148  H     H_    0.911854 0.013248 0.510640 0.000000
H149  H     H_    0.950442 0.029671 0.407019 0.000000
H150  H     H_    0.046212 0.078570 0.362365 0.000000
C136  C     C_3   0.298703 0.265575 0.162899 0.000000
N46   N     N_3   0.232752 0.250877 0.180829 0.000000
C137  C     C_3   0.202774 0.256971 0.243735 0.000000
C138  C     C_R   0.137774 0.234783 0.266588 0.000000
N47   N     N_R   0.087693 0.258540 0.262304 0.000000
C139  C     C_R   0.038517 0.231556 0.299589 0.000000
C140  C     C_R   0.975789 0.237315 0.315550 0.000000
C141  C     C_R   0.932780 0.207951 0.357036 0.000000
C142  C     C_R   0.951977 0.178941 0.389353 0.000000
C143  C     C_R   0.014958 0.175472 0.374947 0.000000
C144  C     C_R   0.057441 0.196560 0.325674 0.000000
N48   N     N_R   0.120265 0.194689 0.304141 0.000000
H151  H     H_    0.322514 0.262982 0.114825 0.000000
H152  H     H_    0.303280 0.305214 0.179629 0.000000
H153  H     H_    0.322071 0.240541 0.180693 0.000000
H154  H     H_    0.229396 0.212552 0.167739 0.000000
H155  H     H_    0.230054 0.237913 0.263013 0.000000
H156  H     H_    0.201113 0.298168 0.257110 0.000000
H157  H     H_    0.958319 0.263453 0.297704 0.000000
H158  H     H_    0.883964 0.210924 0.366429 0.000000
H159  H     H_    0.918031 0.160727 0.426868 0.000000
H160  H     H_    0.029261 0.161015 0.405155 0.000000
C145  C     C_3   0.251721 0.277149 0.425565 0.000000
N49   N     N_3   0.257832 0.241308 0.377587 0.000000
C146  C     C_3   0.278590 0.194880 0.390677 0.000000
C147  C     C_R   0.294176 0.158279 0.340240 0.000000
N50   N     N_R   0.256516 0.154606 0.310319 0.000000
C148  C     C_R   0.298808 0.148941 0.255052 0.000000
C149  C     C_R   0.287390 0.142741 0.206031 0.000000
C150  C     C_R   0.338603 0.138618 0.152982 0.000000
C151  C     C_R   0.399173 0.142332 0.150446 0.000000
C152  C     C_R   0.409207 0.146444 0.200928 0.000000
C153  C     C_R   0.357862 0.146438 0.252831 0.000000
N51   N     N_R   0.356052 0.146738 0.306777 0.000000
H161  H     H_    0.226637 0.311167 0.424372 0.000000
H162  H     H_    0.226105 0.259495 0.467402 0.000000
H163  H     H_    0.298956 0.286753 0.422034 0.000000
H164  H     H_    0.294037 0.254882 0.340564 0.000000
H165  H     H_    0.320582 0.203077 0.399893 0.000000
H166  H     H_    0.240482 0.179726 0.428173 0.000000
H167  H     H_    0.240035 0.141099 0.208892 0.000000
H168  H     H_    0.331431 0.134499 0.113283 0.000000
H169  H     H_    0.438739 0.142104 0.108758 0.000000
H170  H     H_    0.455380 0.153416 0.199520 0.000000
C154  C     C_3   0.277175 0.761593 0.450314 0.000000
N52   N     N_3   0.328864 0.787068 0.459968 0.000000
C155  C     C_3   0.326304 0.841541 0.455416 0.000000
C156  C     C_R   0.383430 0.866178 0.455677 0.000000
N53   N     N_R   0.395266 0.874738 0.505362 0.000000
C157  C     C_R   0.457261 0.886383 0.481251 0.000000
C158  C     C_R   0.497784 0.891244 0.507963 0.000000
C159  C     C_R   0.559357 0.905709 0.475551 0.000000
C160  C     C_R   0.579202 0.914680 0.417252 0.000000
C161  C     C_R   0.538817 0.905618 0.389945 0.000000
C162  C     C_R   0.478796 0.889302 0.422362 0.000000
N54   N     N_R   0.433353 0.876421 0.403798 0.000000
H171  H     H_    0.263837 0.781976 0.421183 0.000000
H172  H     H_    0.290941 0.722642 0.431584 0.000000
H173  H     H_    0.235623 0.759682 0.490828 0.000000
H174  H     H_    0.369772 0.775158 0.425353 0.000000
H175  H     H_    0.327092 0.847708 0.413243 0.000000
H176  H     H_    0.285341 0.858998 0.490051 0.000000
H177  H     H_    0.483120 0.880920 0.551908 0.000000
H178  H     H_    0.592097 0.910227 0.495842 0.000000
H179  H     H_    0.626883 0.927574 0.392746 0.000000
H180  H     H_    0.552999 0.913344 0.345336 0.000000
C163  C     C_3   0.371750 0.990278 0.485117 0.000000
N55   N     N_3   0.377181 0.976835 0.426682 0.000000
C164  C     C_3   0.433661 0.002441 0.389062 0.000000
C165  C     C_R   0.440501 0.999359 0.328761 0.000000
N56   N     N_R   0.463625 0.955457 0.294486 0.000000
C166  C     C_R   0.494027 0.973568 0.241515 0.000000
C167  C     C_R   0.533391 0.947251 0.191797 0.000000
C168  C     C_R   0.561894 0.973771 0.141982 0.000000
C169  C     C_R   0.551921 0.025691 0.143221 0.000000
C170  C     C_R   0.513662 0.051748 0.194232 0.000000
C171  C     C_R   0.484684 0.024962 0.243330 0.000000
N57   N     N_R   0.450252 0.043229 0.298529 0.000000
H181  H     H_    0.344813 0.960134 0.513790 0.000000
H182  H     H_    0.418585 0.993194 0.486115 0.000000
H183  H     H_    0.347660 0.026966 0.501125 0.000000
H184  H     H_    0.339928 0.993167 0.422475 0.000000
H185  H     H_    0.433318 0.042190 0.403406 0.000000
H186  H     H_    0.475310 0.985745 0.390139 0.000000
H187  H     H_    0.541789 0.907067 0.191308 0.000000
H188  H     H_    0.592768 0.954126 0.102075 0.000000
H189  H     H_    0.575806 0.046359 0.104382 0.000000
H190  H     H_    0.510801 0.092341 0.195595 0.000000
C172  C     C_3   0.717422 0.822775 0.234973 0.000000
N58   N     N_3   0.654149 0.834998 0.276057 0.000000
C173  C     C_3   0.618609 0.847804 0.243656 0.000000
C174  C     C_R   0.567296 0.809241 0.249434 0.000000
N59   N     N_R   0.582521 0.761480 0.220212 0.000000
C175  C     C_R   0.537870 0.752745 0.200379 0.000000
C176  C     C_R   0.538332 0.715388 0.158923 0.000000
C177  C     C_R   0.494324 0.717408 0.136034 0.000000
C178  C     C_R   0.450175 0.755200 0.156164 0.000000
C179  C     C_R   0.450710 0.792108 0.198019 0.000000
C180  C     C_R   0.495217 0.790566 0.220318 0.000000
N60   N     N_R   0.508938 0.825372 0.256578 0.000000
H191  H     H_    0.743592 0.809343 0.258937 0.000000
H192  H     H_    0.716249 0.791739 0.202986 0.000000
H193  H     H_    0.741705 0.857468 0.212403 0.000000
H194  H     H_    0.657830 0.867883 0.300564 0.000000
H195  H     H_    0.599324 0.886415 0.257408 0.000000
H196  H     H_    0.649947 0.849148 0.196957 0.000000
H197  H     H_    0.574065 0.686870 0.142211 0.000000
H198  H     H_    0.495185 0.690369 0.101341 0.000000
H199  H     H_    0.415802 0.756651 0.138018 0.000000
H200  H     H_    0.417125 0.821059 0.210875 0.000000
C181  C     C_3   0.250566 0.782611 0.995666 0.000000
N61   N     N_3   0.217354 0.734184 0.013988 0.000000
C182  C     C_3   0.154803 0.744951 0.057696 0.000000
C183  C     C_R   0.121017 0.695980 0.079419 0.000000
N62   N     N_R   0.107182 0.660028 0.043272 0.000000
C184  C     C_R   0.067754 0.628653 0.081254 0.000000
C185  C     C_R   0.030671 0.591611 0.071135 0.000000
C186  C     C_R   0.002999 0.557029 0.112199 0.000000
C187  C     C_R   0.014031 0.560206 0.161349 0.000000
C188  C     C_R   0.042369 0.603579 0.174475 0.000000
C189  C     C_R   0.065095 0.639486 0.134447 0.000000
N63   N     N_R   0.095765 0.683425 0.137285 0.000000
H201  H     H_    0.255825 0.804319 0.032817 0.000000
H202  H     H_    0.297704 0.774934 0.961005 0.000000
H203  H     H_    0.224517 0.805821 0.978464 0.000000
H204  H     H_    0.240987 0.715008 0.033364 0.000000
H205  H     H_    0.156771 0.770315 0.093826 0.000000
H206  H     H_    0.128340 0.764672 0.037922 0.000000
H207  H     H_    0.022471 0.590244 0.033073 0.000000
H208  H     H_    0.975254 0.526095 0.104942 0.000000
H209  H     H_    0.999458 0.528750 0.189020 0.000000
H210  H     H_    0.052838 0.605914 0.211179 0.000000
C190  C     C_3   0.263391 0.630325 0.119386 0.000000
N64   N     N_3   0.196487 0.618604 0.143404 0.000000
C191  C     C_3   0.180076 0.579712 0.185385 0.000000
C192  C     C_R   0.150892 0.605363 0.243909 0.000000
N65   N     N_R   0.116902 0.649735 0.255476 0.000000
C193  C     C_R   0.097361 0.656976 0.312791 0.000000
C194  C     C_R   0.057540 0.693847 0.346811 0.000000
C195  C     C_R   0.036540 0.693116 0.405994 0.000000
C196  C     C_R   0.050671 0.652701 0.428925 0.000000
C197  C     C_R   0.081765 0.612233 0.393652 0.000000
C198  C     C_R   0.112859 0.617611 0.335245 0.000000
N66   N     N_R   0.150260 0.584552 0.292635 0.000000
H211  H     H_    0.276897 0.648539 0.077659 0.000000
H212  H     H_    0.273859 0.657905 0.149746 0.000000
H213  H     H_    0.291249 0.595534 0.111205 0.000000
H214  H     H_    0.183744 0.604331 0.110463 0.000000
H215  H     H_    0.145780 0.552091 0.178638 0.000000
H216  H     H_    0.220829 0.557729 0.181348 0.000000
H217  H     H_    0.042672 0.721958 0.327498 0.000000
H218  H     H_    0.007060 0.722199 0.435236 0.000000
H219  H     H_    0.035481 0.651842 0.475036 0.000000
H220  H     H_    0.077417 0.577437 0.413432 0.000000
C199  C     C_3   0.945968 0.530762 0.300721 0.000000
N67   N     N_3   0.929691 0.579177 0.287980 0.000000
C200  C     C_3   0.954026 0.619736 0.314899 0.000000
C201  C     C_R   0.935796 0.668608 0.302489 0.000000
N68   N     N_R   0.980415 0.702020 0.267466 0.000000
C202  C     C_R   0.945327 0.740469 0.266228 0.000000
C203  C     C_R   0.965643 0.782743 0.233489 0.000000
C204  C     C_R   0.922829 0.820226 0.242108 0.000000
C205  C     C_R   0.861024 0.814053 0.281380 0.000000
C206  C     C_R   0.840373 0.769224 0.310173 0.000000
C207  C     C_R   0.883570 0.731943 0.301326 0.000000
N69   N     N_R   0.874165 0.684377 0.322193 0.000000
H221  H     H_    0.996820 0.530401 0.281694 0.000000
H222  H     H_    0.927416 0.526508 0.347737 0.000000
H223  H     H_    0.927739 0.498811 0.280481 0.000000
H224  H     H_    0.882555 0.582434 0.308932 0.000000
H225  H     H_    0.938368 0.617147 0.361208 0.000000
H226  H     H_    0.004281 0.617258 0.298613 0.000000
H227  H     H_    0.014164 0.787590 0.203898 0.000000
H228  H     H_    0.937709 0.854777 0.218696 0.000000
H229  H     H_    0.828178 0.843906 0.288159 0.000000
H230  H     H_    0.791684 0.764345 0.338482 0.000000
C208  C     C_3   0.215094 0.992632 0.546674 0.000000
N70   N     N_3   0.151328 0.972458 0.570227 0.000000
C209  C     C_3   0.109138 0.005740 0.561846 0.000000
C210  C     C_R   0.048759 0.002311 0.611122 0.000000
N71   N     N_R   0.020546 0.956146 0.630656 0.000000
C211  C     C_R   0.961996 0.970868 0.667444 0.000000
C212  C     C_R   0.907965 0.941493 0.691336 0.000000
C213  C     C_R   0.853982 0.965569 0.729496 0.000000
C214  C     C_R   0.854163 0.018130 0.742112 0.000000
C215  C     C_R   0.907164 0.047731 0.713431 0.000000
C216  C     C_R   0.959173 0.023191 0.673863 0.000000
N72   N     N_R   0.012777 0.044410 0.636515 0.000000
H231  H     H_    0.223346 0.022312 0.575954 0.000000
H232  H     H_    0.245970 0.960516 0.540467 0.000000
H233  H     H_    0.226701 0.008700 0.504998 0.000000
H234  H     H_    0.150424 0.938668 0.546963 0.000000
H235  H     H_    0.126208 0.045191 0.559491 0.000000
H236  H     H_    0.100715 0.992607 0.523381 0.000000
H237  H     H_    0.906367 0.901076 0.680327 0.000000
H238  H     H_    0.811342 0.943136 0.749921 0.000000
H239  H     H_    0.811965 0.036239 0.772804 0.000000
H240  H     H_    0.907274 0.088796 0.721509 0.000000
C217  C     C_3   0.137610 0.830457 0.741887 0.000000
N73   N     N_3   0.109582 0.870848 0.724454 0.000000
C218  C     C_3   0.157300 0.909738 0.697256 0.000000
C219  C     C_R   0.184687 0.900013 0.632584 0.000000
N74   N     N_R   0.144960 0.872747 0.612196 0.000000
C220  C     C_R   0.174654 0.828105 0.594922 0.000000
C221  C     C_R   0.147453 0.780668 0.599156 0.000000
C222  C     C_R   0.181944 0.739187 0.597234 0.000000
C223  C     C_R   0.242562 0.745233 0.591656 0.000000
C224  C     C_R   0.269709 0.793212 0.586121 0.000000
C225  C     C_R   0.233485 0.833509 0.591746 0.000000
N75   N     N_R   0.244691 0.880711 0.608778 0.000000
H241  H     H_    0.108296 0.795045 0.746781 0.000000
H242  H     H_    0.185066 0.821465 0.708871 0.000000
H243  H     H_    0.140137 0.842295 0.783941 0.000000
H244  H     H_    0.077450 0.888170 0.762983 0.000000
H245  H     H_    0.136154 0.947676 0.710248 0.000000
H246  H     H_    0.193778 0.906290 0.713562 0.000000
H247  H     H_    0.099430 0.775970 0.609875 0.000000
H248  H     H_    0.162442 0.701507 0.598553 0.000000
H249  H     H_    0.267785 0.712160 0.591485 0.000000
H250  H     H_    0.317263 0.799894 0.578940 0.000000
C226  C     C_3   0.094953 0.764832 0.489340 0.000000
N76   N     N_3   0.038642 0.785349 0.535547 0.000000
C227  C     C_3   0.010421 0.748599 0.579846 0.000000
C228  C     C_R   0.984967 0.776381 0.638725 0.000000
N77   N     N_R   0.001849 0.826711 0.647813 0.000000
C229  C     C_R   0.970085 0.834576 0.705791 0.000000
C230  C     C_R   0.971725 0.876962 0.740253 0.000000
C231  C     C_R   0.927139 0.880487 0.796911 0.000000
C232  C     C_R   0.882027 0.841767 0.817421 0.000000
C233  C     C_R   0.884708 0.797450 0.783022 0.000000
C234  C     C_R   0.932480 0.793709 0.728856 0.000000
N78   N     N_R   0.942920 0.754689 0.688971 0.000000
H251  H     H_    0.090929 0.723182 0.483833 0.000000
H252  H     H_    0.102071 0.781163 0.447949 0.000000
H253  H     H_    0.135954 0.775107 0.499032 0.000000
H254  H     H_    0.007068 0.789666 0.516923 0.000000
H255  H     H_    0.973143 0.727892 0.571300 0.000000
H256  H     H_    0.044677 0.720094 0.577280 0.000000
H257  H     H_    0.005120 0.907383 0.722906 0.000000
H258  H     H_    0.925934 0.914421 0.824469 0.000000
H259  H     H_    0.845507 0.845754 0.860803 0.000000
H260  H     H_    0.849541 0.767282 0.797919 0.000000
C235  C     C_3   0.568929 0.097972 0.427176 0.000000
N79   N     N_3   0.502536 0.088673 0.442141 0.000000
C236  C     C_3   0.470102 0.136669 0.463667 0.000000
C237  C     C_R   0.404583 0.131256 0.468312 0.000000
N80   N     N_R   0.392233 0.123155 0.419089 0.000000
C238  C     C_R   0.330984 0.112896 0.442895 0.000000
C239  C     C_R   0.295167 0.086789 0.418510 0.000000
C240  C     C_R   0.231274 0.086710 0.451189 0.000000
C241  C     C_R   0.208207 0.113935 0.504709 0.000000
C242  C     C_R   0.246959 0.135317 0.528007 0.000000
C243  C     C_R   0.307134 0.124654 0.499899 0.000000
N81   N     N_R   0.350756 0.131836 0.520299 0.000000
H261  H     H_    0.590086 0.118873 0.386779 0.000000
H262  H     H_    0.575812 0.120443 0.463178 0.000000
H263  H     H_    0.592253 0.060706 0.419707 0.000000
H264  H     H_    0.486142 0.064095 0.476043 0.000000
H265  H     H_    0.471323 0.148792 0.505851 0.000000
H266  H     H_    0.493045 0.165879 0.432032 0.000000
H267  H     H_    0.316048 0.068335 0.375597 0.000000
H268  H     H_    0.199659 0.069148 0.433553 0.000000
H269  H     H_    0.160369 0.119210 0.530559 0.000000
H270  H     H_    0.231083 0.162723 0.564319 0.000000
C244  C     C_3   0.453082 0.276650 0.392638 0.000000
N82   N     N_3   0.471026 0.295327 0.335577 0.000000
C245  C     C_3   0.459451 0.254228 0.299305 0.000000
C246  C     C_R   0.512556 0.218840 0.276786 0.000000
N83   N     N_R   0.573297 0.232267 0.239465 0.000000
C247  C     C_R   0.601137 0.186393 0.227820 0.000000
C248  C     C_R   0.653467 0.171141 0.180675 0.000000
C249  C     C_R   0.674579 0.122224 0.178093 0.000000
C250  C     C_R   0.641744 0.089296 0.221661 0.000000
C251  C     C_R   0.583767 0.102856 0.263793 0.000000
C252  C     C_R   0.562586 0.150371 0.262265 0.000000
N84   N     N_R   0.504603 0.168349 0.291317 0.000000
H271  H     H_    0.463517 0.307272 0.420233 0.000000
H272  H     H_    0.402507 0.266705 0.411641 0.000000
H273  H     H_    0.479362 0.242142 0.390341 0.000000
H274  H     H_    0.519064 0.302686 0.319663 0.000000
H275  H     H_    0.416216 0.232601 0.324752 0.000000
H276  H     H_    0.452456 0.269850 0.263227 0.000000
H277  H     H_    0.673507 0.194510 0.144064 0.000000
H278  H     H_    0.716528 0.109480 0.141765 0.000000
H279  H     H_    0.659208 0.051585 0.220192 0.000000
H280  H     H_    0.556201 0.076659 0.296179 0.000000
C253  C     C_3   0.872971 0.581407 0.071218 0.000000
N85   N     N_3   0.816325 0.607754 0.105568 0.000000
C254  C     C_3   0.820460 0.657817 0.084966 0.000000
C255  C     C_R   0.764845 0.666340 0.076308 0.000000
N86   N     N_R   0.779771 0.666880 0.018598 0.000000
C256  C     C_R   0.740781 0.701941 0.016706 0.000000
C257  C     C_R   0.738877 0.721212 0.968408 0.000000
C258  C     C_R   0.700900 0.762279 0.976387 0.000000
C259  C     C_R   0.667096 0.783906 0.031623 0.000000
C260  C     C_R   0.669036 0.763597 0.079719 0.000000
C261  C     C_R   0.703631 0.720690 0.071785 0.000000
N87   N     N_R   0.713978 0.696534 0.112538 0.000000
H281  H     H_    0.880023 0.579582 0.025839 0.000000
H282  H     H_    0.913527 0.600827 0.075677 0.000000
H283  H     H_    0.867136 0.542367 0.086336 0.000000
H284  H     H_    0.783088 0.588795 0.093620 0.000000
H285  H     H_    0.833909 0.689915 0.107732 0.000000
H286  H     H_    0.857135 0.658450 0.040890 0.000000
H287  H     H_    0.766611 0.706127 0.925280 0.000000
H288  H     H_    0.699603 0.779021 0.939161 0.000000
H289  H     H_    0.640181 0.817701 0.037063 0.000000
H290  H     H_    0.647692 0.783712 0.121199 0.000000
C262  C     C_3   0.895749 0.686565 0.179654 0.000000
N88   N     N_3   0.837584 0.712693 0.215166 0.000000
C263  C     C_3   0.783815 0.682376 0.215952 0.000000
C264  C     C_R   0.728907 0.685771 0.271006 0.000000
N89   N     N_R   0.727721 0.686241 0.326289 0.000000
C265  C     C_R   0.675748 0.713657 0.357057 0.000000
C266  C     C_R   0.656783 0.737282 0.411616 0.000000
C267  C     C_R   0.606557 0.769375 0.430637 0.000000
C268  C     C_R   0.572763 0.774012 0.397841 0.000000
C269  C     C_R   0.589887 0.747778 0.345133 0.000000
C270  C     C_R   0.644619 0.722109 0.323582 0.000000
N90   N     N_R   0.676569 0.704401 0.268793 0.000000
H291  H     H_    0.933296 0.715178 0.158291 0.000000
H292  H     H_    0.909946 0.662825 0.206144 0.000000
H293  H     H_    0.890939 0.660577 0.146240 0.000000
H294  H     H_    0.838079 0.746212 0.195071 0.000000
H295  H     H_    0.765397 0.701251 0.189092 0.000000
H296  H     H_    0.794594 0.642957 0.200548 0.000000
H297  H     H_    0.681964 0.735184 0.437639 0.000000
H298  H     H_    0.592205 0.790323 0.471870 0.000000
H299  H     H_    0.532151 0.797475 0.413918 0.000000
H300  H     H_    0.561592 0.749255 0.321647 0.000000
C271  C     C_3   0.420566 0.675951 0.379042 0.000000
N91   N     N_3   0.475575 0.681795 0.325411 0.000000
C272  C     C_3   0.469095 0.646056 0.281690 0.000000
C273  C     C_R   0.526767 0.615557 0.252582 0.000000
N92   N     N_R   0.587123 0.636021 0.224635 0.000000
C274  C     C_R   0.620822 0.593821 0.210615 0.000000
C275  C     C_R   0.683335 0.591677 0.192597 0.000000
C276  C     C_R   0.709132 0.544292 0.185702 0.000000
C277  C     C_R   0.672722 0.501353 0.187765 0.000000
C278  C     C_R   0.609735 0.504879 0.205562 0.000000
C279  C     C_R   0.584506 0.551333 0.224358 0.000000
N93   N     N_R   0.524515 0.562722 0.254432 0.000000
H301  H     H_    0.425157 0.702388 0.413150 0.000000
H302  H     H_    0.378447 0.684550 0.372611 0.000000
H303  H     H_    0.415931 0.636580 0.393312 0.000000
H304  H     H_    0.513562 0.670212 0.332320 0.000000
H305  H     H_    0.429122 0.619334 0.302239 0.000000
H306  H     H_    0.459475 0.666905 0.250027 0.000000
H307  H     H_    0.709989 0.626248 0.184975 0.000000
H308  H     H_    0.758366 0.539865 0.172404 0.000000
H309  H     H_    0.693639 0.465461 0.171283 0.000000
H310  H     H_    0.583632 0.473186 0.197891 0.000000
C280  C     C_3   0.036913 0.019077 0.755389 0.000000
N94   N     N_3   0.061148 0.063593 0.721214 0.000000
C281  C     C_3   0.126433 0.054690 0.682400 0.000000
C282  C     C_R   0.156680 0.096040 0.639783 0.000000
N95   N     N_R   0.112228 0.129760 0.643205 0.000000
C283  C     C_R   0.118086 0.164369 0.683020 0.000000
C284  C     C_R   0.067455 0.183002 0.730502 0.000000
C285  C     C_R   0.073709 0.191650 0.782373 0.000000
C286  C     C_R   0.130841 0.185578 0.785145 0.000000
C287  C     C_R   0.183105 0.172514 0.735869 0.000000
C288  C     C_R   0.175485 0.159670 0.685513 0.000000
N96   N     N_R   0.206168 0.120608 0.649145 0.000000
H311  H     H_    0.062741 0.014773 0.782962 0.000000
H312  H     H_    0.986604 0.024218 0.783794 0.000000
H313  H     H_    0.041949 0.984466 0.726689 0.000000
H314  H     H_    0.061461 0.091025 0.752915 0.000000
H315  H     H_    0.150165 0.056090 0.711505 0.000000
H316  H     H_    0.130253 0.016660 0.661119 0.000000
H317  H     H_    0.021248 0.180567 0.730667 0.000000
H318  H     H_    0.033203 0.201181 0.821755 0.000000
H319  H     H_    0.134358 0.190493 0.826532 0.000000
H320  H     H_    0.225316 0.163472 0.740092 0.000000
C289  C     C_3   0.127501 0.266159 0.618470 0.000000
N97   N     N_3   0.074914 0.241061 0.610204 0.000000
C290  C     C_3   0.018890 0.259042 0.657733 0.000000
C291  C     C_R   0.963587 0.225962 0.664448 0.000000
N98   N     N_R   0.907050 0.248183 0.675191 0.000000
C292  C     C_R   0.876507 0.209228 0.659083 0.000000
C293  C     C_R   0.824925 0.211842 0.646560 0.000000
C294  C     C_R   0.801764 0.167575 0.628423 0.000000
C295  C     C_R   0.832104 0.121990 0.620386 0.000000
C296  C     C_R   0.887615 0.121308 0.627099 0.000000
C297  C     C_R   0.910109 0.165437 0.645199 0.000000
N99   N     N_R   0.966644 0.173945 0.647445 0.000000
H321  H     H_    0.171309 0.257425 0.579991 0.000000
H322  H     H_    0.118740 0.307358 0.627675 0.000000
H323  H     H_    0.132125 0.253599 0.656583 0.000000
H324  H     H_    0.078219 0.201991 0.610760 0.000000
H325  H     H_    0.025259 0.262427 0.698711 0.000000
H326  H     H_    0.009666 0.296261 0.645797 0.000000
H327  H     H_    0.805865 0.247551 0.645426 0.000000
H328  H     H_    0.760638 0.168756 0.619310 0.000000
H329  H     H_    0.813837 0.087253 0.606394 0.000000
H330  H     H_    0.910983 0.086492 0.620177 0.000000
C298  C     C_3   0.441666 0.745601 0.508390 0.000000
N100  N     N_3   0.436052 0.775394 0.560888 0.000000
C299  C     C_3   0.389899 0.751003 0.610522 0.000000
C300  C     C_R   0.359709 0.788756 0.660150 0.000000
N101  N     N_R   0.347359 0.774069 0.714712 0.000000
C301  C     C_R   0.329536 0.817441 0.747829 0.000000
C302  C     C_R   0.320025 0.824866 0.805100 0.000000
C303  C     C_R   0.311027 0.874289 0.829610 0.000000
C304  C     C_R   0.314876 0.914740 0.795839 0.000000
C305  C     C_R   0.325948 0.906219 0.737694 0.000000
C306  C     C_R   0.331274 0.856776 0.714535 0.000000
N102  N     N_R   0.347769 0.840208 0.658068 0.000000
H331  H     H_    0.489801 0.732589 0.486350 0.000000
H332  H     H_    0.410832 0.711014 0.516459 0.000000
H333  H     H_    0.431445 0.770188 0.479948 0.000000
H334  H     H_    0.419286 0.810588 0.559166 0.000000
H335  H     H_    0.353126 0.729963 0.601326 0.000000
H336  H     H_    0.414183 0.722783 0.623766 0.000000
H337  H     H_    0.321199 0.793360 0.829836 0.000000
H338  H     H_    0.303638 0.881700 0.874547 0.000000
H339  H     H_    0.311519 0.953446 0.814782 0.000000
H340  H     H_    0.335444 0.937779 0.710865 0.000000
C307  C     C_3   0.260988 0.030886 0.768000 0.000000
N103  N     N_3   0.242223 0.043850 0.722722 0.000000
C308  C     C_3   0.254516 0.001655 0.678411 0.000000
C309  C     C_R   0.314336 0.006646 0.628267 0.000000
N104  N     N_R   0.343119 0.053750 0.615376 0.000000
C310  C     C_R   0.403489 0.043666 0.601183 0.000000
C311  C     C_R   0.451563 0.078580 0.594048 0.000000
C312  C     C_R   0.507466 0.060559 0.590723 0.000000
C313  C     C_R   0.512438 0.009272 0.598462 0.000000
C314  C     C_R   0.462691 0.975089 0.606674 0.000000
C315  C     C_R   0.410203 0.992486 0.603197 0.000000
N105  N     N_R   0.354968 0.967124 0.614973 0.000000
H341  H     H_    0.311151 0.021167 0.748952 0.000000
H342  H     H_    0.254054 0.064447 0.799315 0.000000
H343  H     H_    0.231436 0.998483 0.791643 0.000000
H344  H     H_    0.263079 0.078443 0.706181 0.000000
H345  H     H_    0.257092 0.966723 0.697987 0.000000
H346  H     H_    0.218787 0.997531 0.661535 0.000000
H347  H     H_    0.444999 0.119071 0.594392 0.000000
H348  H     H_    0.546025 0.087108 0.585955 0.000000
H349  H     H_    0.554546 0.996373 0.600503 0.000000
H350  H     H_    0.463223 0.937440 0.620800 0.000000
C316  C     C_3   0.645362 0.690646 0.875241 0.000000
N106  N     N_3   0.694489 0.670608 0.821769 0.000000
C317  C     C_3   0.696791 0.700027 0.774567 0.000000
C318  C     C_R   0.746857 0.682286 0.717805 0.000000
N107  N     N_R   0.805711 0.704591 0.705534 0.000000
C319  C     C_R   0.817167 0.725104 0.655785 0.000000
C320  C     C_R   0.855765 0.765382 0.630848 0.000000
C321  C     C_R   0.872388 0.769015 0.572484 0.000000
C322  C     C_R   0.858353 0.727847 0.541696 0.000000
C323  C     C_R   0.813406 0.691791 0.571846 0.000000
C324  C     C_R   0.782702 0.701297 0.630357 0.000000
N108  N     N_R   0.732164 0.677431 0.669438 0.000000
H351  H     H_    0.599105 0.679807 0.874985 0.000000
H352  H     H_    0.648891 0.673662 0.912605 0.000000
H353  H     H_    0.650032 0.732911 0.879820 0.000000
H354  H     H_    0.679831 0.633680 0.814553 0.000000
H355  H     H_    0.651314 0.698953 0.771553 0.000000
H356  H     H_    0.708126 0.740645 0.783139 0.000000
H357  H     H_    0.869338 0.794606 0.655963 0.000000
H358  H     H_    0.901611 0.800664 0.550982 0.000000
H359  H     H_    0.879962 0.725023 0.494841 0.000000
H360  H     H_    0.802200 0.658592 0.550287 0.000000
C325  C     C_3   0.993037 0.772717 0.845082 0.000000
N109  N     N_3   0.971247 0.724050 0.827552 0.000000
C326  C     C_3   0.905864 0.716139 0.865707 0.000000
C327  C     C_R   0.876271 0.671510 0.844915 0.000000
N110  N     N_R   0.867167 0.666337 0.793939 0.000000
C328  C     C_R   0.828041 0.625196 0.802826 0.000000
C329  C     C_R   0.806763 0.600080 0.764481 0.000000
C330  C     C_R   0.761131 0.562097 0.785129 0.000000
C331  C     C_R   0.737090 0.551281 0.843129 0.000000
C332  C     C_R   0.763126 0.574302 0.879282 0.000000
C333  C     C_R   0.811839 0.608696 0.856387 0.000000
N111  N     N_R   0.845042 0.634610 0.882471 0.000000
H361  H     H_    0.039013 0.767367 0.846376 0.000000
H362  H     H_    0.998614 0.801186 0.813078 0.000000
H363  H     H_    0.959584 0.787132 0.888564 0.000000
H364  H     H_    0.996127 0.695638 0.835109 0.000000
H365  H     H_    0.902487 0.708243 0.909294 0.000000
H366  H     H_    0.878768 0.750774 0.871397 0.000000
H367  H     H_    0.823544 0.609833 0.719985 0.000000
H368  H     H_    0.741051 0.543379 0.756974 0.000000
H369  H     H_    0.698241 0.524475 0.860092 0.000000
H370  H     H_    0.745663 0.564806 0.923574 0.000000
C334  C     C_3   0.064733 0.671746 0.680612 0.000000
N112  N     N_3   0.018180 0.649193 0.730977 0.000000
C335  C     C_3   0.004471 0.597032 0.715603 0.000000
C336  C     C_R   0.988118 0.595167 0.665930 0.000000
N113  N     N_R   0.944490 0.626989 0.662767 0.000000
C337  C     C_R   0.941507 0.608354 0.613857 0.000000
C338  C     C_R   0.917717 0.632036 0.583430 0.000000
C339  C     C_R   0.930020 0.612657 0.528735 0.000000
C340  C     C_R   0.957583 0.565637 0.509430 0.000000
C341  C     C_R   0.979631 0.541006 0.542146 0.000000
C342  C     C_R   0.978024 0.567466 0.590664 0.000000
N114  N     N_R   0.011993 0.559005 0.619989 0.000000
H371  H     H_    0.088812 0.703376 0.695519 0.000000
H372  H     H_    0.098182 0.642571 0.652619 0.000000
H373  H     H_    0.041764 0.688538 0.656131 0.000000
H374  H     H_    0.978683 0.670132 0.740231 0.000000
H375  H     H_    0.045294 0.572519 0.703915 0.000000
H376  H     H_    0.963143 0.582476 0.752151 0.000000
H377  H     H_    0.902255 0.669219 0.597895 0.000000
H378  H     H_    0.924124 0.637217 0.499685 0.000000
H379  H     H_    0.967440 0.549878 0.467002 0.000000
H380  H     H_    0.998875 0.503506 0.528519 0.000000
C343  C     C_3   0.038510 0.500958 0.369336 0.000000
N115  N     N_3   0.024058 0.457963 0.338524 0.000000
C344  C     C_3   0.066149 0.458681 0.278700 0.000000
C345  C     C_R   0.121370 0.429013 0.267987 0.000000
N116  N     N_R   0.175804 0.455630 0.261702 0.000000
C346  C     C_R   0.218997 0.430308 0.215644 0.000000
C347  C     C_R   0.278043 0.447654 0.180859 0.000000
C348  C     C_R   0.310937 0.420289 0.129216 0.000000
C349  C     C_R   0.284651 0.376499 0.113180 0.000000
C350  C     C_R   0.224885 0.359926 0.148412 0.000000
C351  C     C_R   0.192492 0.387850 0.199394 0.000000
N117  N     N_R   0.130743 0.384276 0.233878 0.000000
H381  H     H_    0.088357 0.509880 0.348326 0.000000
H382  H     H_    0.011389 0.534284 0.369833 0.000000
H383  H     H_    0.028199 0.489989 0.413615 0.000000
H384  H     H_    0.038103 0.427233 0.352579 0.000000
H385  H     H_    0.041156 0.441920 0.252949 0.000000
H386  H     H_    0.082908 0.497887 0.265274 0.000000
H387  H     H_    0.297027 0.483443 0.190369 0.000000
H388  H     H_    0.356678 0.434055 0.100294 0.000000
H389  H     H_    0.310645 0.355577 0.072420 0.000000
H390  H     H_    0.205078 0.326272 0.135059 0.000000
C352  C     C_3   0.982801 0.415725 0.135693 0.000000
N118  N     N_3   0.046910 0.428741 0.098349 0.000000
C353  C     C_3   0.085876 0.409602 0.123496 0.000000
C354  C     C_R   0.102860 0.357289 0.099551 0.000000
N119  N     N_R   0.120006 0.342181 0.041793 0.000000
C355  C     C_R   0.132698 0.292314 0.040973 0.000000
C356  C     C_R   0.151635 0.257070 0.994456 0.000000
C357  C     C_R   0.160477 0.207334 0.004290 0.000000
C358  C     C_R   0.150048 0.193732 0.059699 0.000000
C359  C     C_R   0.130274 0.229615 0.106305 0.000000
C360  C     C_R   0.121895 0.278650 0.095597 0.000000
N120  N     N_R   0.101472 0.318938 0.134266 0.000000
H391  H     H_    0.953065 0.419607 0.111950 0.000000
H392  H     H_    0.978911 0.375491 0.146678 0.000000
H393  H     H_    0.967285 0.440797 0.176045 0.000000
H394  H     H_    0.052574 0.468290 0.099920 0.000000
H395  H     H_    0.128039 0.434516 0.114519 0.000000
H396  H     H_    0.059735 0.408003 0.170449 0.000000
H397  H     H_    0.158883 0.267209 0.951743 0.000000
H398  H     H_    0.175325 0.178690 0.968523 0.000000
H399  H     H_    0.156963 0.154679 0.066508 0.000000
H400  H     H_    0.121272 0.219157 0.149532 0.000000
C361  C     C_3   0.916962 0.415650 0.448305 0.000000
N121  N     N_3   0.899577 0.408615 0.399545 0.000000
C362  C     C_3   0.934464 0.366743 0.360935 0.000000
C363  C     C_R   0.931341 0.369236 0.304437 0.000000
N122  N     N_R   0.871945 0.365080 0.305348 0.000000
C364  C     C_R   0.879220 0.327041 0.264128 0.000000
C365  C     C_R   0.834614 0.289595 0.266690 0.000000
C366  C     C_R   0.852455 0.244783 0.232696 0.000000
C367  C     C_R   0.914802 0.236384 0.198466 0.000000
C368  C     C_R   0.959814 0.272646 0.198221 0.000000
C369  C     C_R   0.941333 0.317094 0.232874 0.000000
N123  N     N_R   0.976760 0.344105 0.256493 0.000000
H401  H     H_    0.928028 0.456502 0.454524 0.000000
H402  H     H_    0.877388 0.402696 0.487216 0.000000
H403  H     H_    0.958387 0.393538 0.441295 0.000000
H404  H     H_    0.909648 0.442079 0.377365 0.000000
H405  H     H_    0.983483 0.364161 0.354412 0.000000
H406  H     H_    0.912277 0.330272 0.379567 0.000000
H407  H     H_    0.788006 0.291237 0.299601 0.000000
H408  H     H_    0.818013 0.214535 0.236313 0.000000
H409  H     H_    0.928735 0.199508 0.175539 0.000000
H410  H     H_    0.007807 0.261765 0.179463 0.000000
C370  C     C_3   0.139273 0.803385 0.910821 0.000000
N124  N     N_3   0.163375 0.754674 0.915325 0.000000
C371  C     C_3   0.191882 0.729782 0.857546 0.000000
C372  C     C_R   0.233874 0.689186 0.857851 0.000000
N125  N     N_R   0.297311 0.685735 0.820418 0.000000
C373  C     C_R   0.313675 0.645361 0.839755 0.000000
C374  C     C_R   0.370529 0.623423 0.818002 0.000000
C375  C     C_R   0.379327 0.583397 0.845788 0.000000
C376  C     C_R   0.327331 0.555565 0.879250 0.000000
C377  C     C_R   0.269293 0.573273 0.889511 0.000000
C378  C     C_R   0.263984 0.623093 0.880987 0.000000
N126  N     N_R   0.211625 0.650090 0.895921 0.000000
H411  H     H_    0.107259 0.818283 0.954725 0.000000
H412  H     H_    0.178563 0.831371 0.892211 0.000000
H413  H     H_    0.113147 0.798146 0.882849 0.000000
H414  H     H_    0.125134 0.731747 0.939818 0.000000
H415  H     H_    0.154418 0.711922 0.845738 0.000000
H416  H     H_    0.218825 0.758387 0.826158 0.000000
H417  H     H_    0.406701 0.637136 0.780678 0.000000
H418  H     H_    0.425340 0.568348 0.833431 0.000000
H419  H     H_    0.332332 0.517604 0.890572 0.000000
H420  H     H_    0.231259 0.546967 0.897090 0.000000
C379  C     C_3   0.937234 0.779088 0.040803 0.000000
N127  N     N_3   0.948367 0.736773 0.997371 0.000000
C380  C     C_3   0.974081 0.694976 0.014570 0.000000
C381  C     C_R   0.988339 0.651646 0.969858 0.000000
N128  N     N_R   0.948312 0.631390 0.944195 0.000000
C382  C     C_R   0.990416 0.606195 0.896539 0.000000
C383  C     C_R   0.979628 0.578344 0.853912 0.000000
C384  C     C_R   0.028380 0.550273 0.813253 0.000000
C385  C     C_R   0.087410 0.552762 0.813311 0.000000
C386  C     C_R   0.098565 0.582792 0.854975 0.000000
C387  C     C_R   0.049097 0.608806 0.895715 0.000000
N129  N     N_R   0.049162 0.634467 0.942955 0.000000
H421  H     H_    0.918605 0.811702 0.027727 0.000000
H422  H     H_    0.902500 0.767274 0.083540 0.000000
H423  H     H_    0.981707 0.791539 0.044197 0.000000
H424  H     H_    0.983355 0.749056 0.958884 0.000000
H425  H     H_    0.018522 0.708207 0.017427 0.000000
H426  H     H_    0.942324 0.683068 0.057318 0.000000
H427  H     H_    0.934147 0.576117 0.853315 0.000000
H428  H     H_    0.020507 0.525773 0.780787 0.000000
H429  H     H_    0.125140 0.532188 0.779565 0.000000
H430  H     H_    0.144081 0.584472 0.856355 0.000000
C388  C     C_3   0.943854 0.479084 0.005093 0.000000
N130  N     N_3   0.000816 0.480704 0.013499 0.000000
C389  C     C_3   0.048837 0.501744 0.962888 0.000000
C390  C     C_R   0.108775 0.501648 0.968177 0.000000
N131  N     N_R   0.135619 0.547499 0.977888 0.000000
C391  C     C_R   0.175647 0.531534 0.999287 0.000000
C392  C     C_R   0.219475 0.560541 0.011850 0.000000
C393  C     C_R   0.264577 0.535125 0.021331 0.000000
C394  C     C_R   0.262452 0.482202 0.022602 0.000000
C395  C     C_R   0.217027 0.453681 0.011296 0.000000
C396  C     C_R   0.175773 0.479263 0.997773 0.000000
N132  N     N_R   0.133805 0.458388 0.978486 0.000000
H431  H     H_    0.938268 0.516537 0.991897 0.000000
H432  H     H_    0.947696 0.453673 0.968253 0.000000
H433  H     H_    0.904258 0.466274 0.044447 0.000000
H434  H     H_    0.011856 0.444104 0.017672 0.000000
H435  H     H_    0.048640 0.484707 0.922800 0.000000
H436  H     H_    0.037998 0.540970 0.962052 0.000000
H437  H     H_    0.222218 0.601696 0.009243 0.000000
H438  H     H_    0.303214 0.556425 0.025719 0.000000
H439  H     H_    0.297748 0.463136 0.030492 0.000000
H440  H     H_    0.214992 0.412539 0.011843 0.000000
C397  C     C_3   0.144139 0.359800 0.359257 0.000000
N133  N     N_3   0.107895 0.403875 0.390890 0.000000
C398  C     C_3   0.131698 0.425642 0.432068 0.000000
C399  C     C_R   0.129817 0.482661 0.437050 0.000000
N134  N     N_R   0.163693 0.513047 0.391620 0.000000
C400  C     C_R   0.171926 0.556786 0.418987 0.000000
C401  C     C_R   0.204961 0.600074 0.394112 0.000000
C402  C     C_R   0.197290 0.644166 0.429137 0.000000
C403  C     C_R   0.159377 0.644093 0.487609 0.000000
C404  C     C_R   0.128469 0.599938 0.512169 0.000000
C405  C     C_R   0.134969 0.556352 0.476391 0.000000
N135  N     N_R   0.109095 0.509396 0.490287 0.000000
H441  H     H_    0.186415 0.372692 0.322463 0.000000
H442  H     H_    0.157531 0.337815 0.387698 0.000000
H443  H     H_    0.115140 0.334569 0.342339 0.000000
H444  H     H_    0.063404 0.389312 0.416110 0.000000
H445  H     H_    0.100535 0.411472 0.473932 0.000000
H446  H     H_    0.180156 0.413732 0.420530 0.000000
H447  H     H_    0.231355 0.601975 0.348171 0.000000
H448  H     H_    0.218810 0.679344 0.410434 0.000000
H449  H     H_    0.154565 0.678858 0.514324 0.000000
H450  H     H_    0.103758 0.600467 0.558185 0.000000
C406  C     C_3   0.309987 0.363129 0.315029 0.000000
N136  N     N_3   0.335485 0.412746 0.293885 0.000000
C407  C     C_3   0.293509 0.452622 0.329159 0.000000
C408  C     C_R   0.319635 0.502253 0.304114 0.000000
N137  N     N_R   0.382668 0.515323 0.282142 0.000000
C409  C     C_R   0.387557 0.548337 0.242035 0.000000
C410  C     C_R   0.440202 0.560775 0.194132 0.000000
C411  C     C_R   0.434316 0.594423 0.157485 0.000000
C412  C     C_R   0.376632 0.614746 0.169209 0.000000
C413  C     C_R   0.323002 0.595991 0.213034 0.000000
C414  C     C_R   0.330153 0.560058 0.246147 0.000000
N138  N     N_R   0.286113 0.529845 0.283313 0.000000
H451  H     H_    0.348231 0.339390 0.314025 0.000000
H452  H     H_    0.273777 0.367922 0.359562 0.000000
H453  H     H_    0.289447 0.343682 0.286190 0.000000
H454  H     H_    0.334017 0.412868 0.253263 0.000000
H455  H     H_    0.248138 0.445893 0.325822 0.000000
H456  H     H_    0.285139 0.453379 0.375233 0.000000
H457  H     H_    0.483987 0.542163 0.182242 0.000000
H458  H     H_    0.475028 0.604675 0.119485 0.000000
H459  H     H_    0.373700 0.643032 0.141599 0.000000
H460  H     H_    0.277380 0.609393 0.221512 0.000000
C415  C     C_3   0.884991 0.476805 0.803012 0.000000
N139  N     N_3   0.857550 0.500658 0.861159 0.000000
C416  C     C_3   0.885237 0.479725 0.895998 0.000000
C417  C     C_R   0.848744 0.493153 0.956478 0.000000
N140  N     N_R   0.821662 0.540829 0.974029 0.000000
C418  C     C_R   0.765710 0.527998 0.015223 0.000000
C419  C     C_R   0.711886 0.555973 0.034226 0.000000
C420  C     C_R   0.655068 0.531576 0.063241 0.000000
C421  C     C_R   0.653276 0.480979 0.075638 0.000000
C422  C     C_R   0.708232 0.455548 0.061397 0.000000
C423  C     C_R   0.763694 0.477540 0.026808 0.000000
N141  N     N_R   0.816675 0.453156 0.990453 0.000000
H461  H     H_    0.925023 0.500327 0.775089 0.000000
H462  H     H_    0.900577 0.437892 0.803352 0.000000
H463  H     H_    0.848612 0.473554 0.785750 0.000000
H464  H     H_    0.811220 0.487227 0.878384 0.000000
H465  H     H_    0.875852 0.438893 0.895379 0.000000
H466  H     H_    0.934498 0.490667 0.883478 0.000000
H467  H     H_    0.711936 0.593605 0.020313 0.000000
H468  H     H_    0.611979 0.551719 0.075305 0.000000
H469  H     H_    0.608729 0.461618 0.098013 0.000000
H470  H     H_    0.707507 0.418437 0.074358 0.000000
C424  C     C_3   0.631320 0.554281 0.429287 0.000000
N142  N     N_3   0.666207 0.599703 0.436740 0.000000
C425  C     C_3   0.656164 0.607934 0.496962 0.000000
C426  C     C_R   0.704989 0.643616 0.501527 0.000000
N143  N     N_R   0.743953 0.670776 0.454530 0.000000
C427  C     C_R   0.754209 0.715028 0.480906 0.000000
C428  C     C_R   0.789037 0.757519 0.456473 0.000000
C429  C     C_R   0.784687 0.801798 0.491331 0.000000
C430  C     C_R   0.747123 0.802603 0.550300 0.000000
C431  C     C_R   0.716404 0.758297 0.575192 0.000000
C432  C     C_R   0.721733 0.714550 0.539279 0.000000
N144  N     N_R   0.696264 0.667389 0.554688 0.000000
H471  H     H_    0.651633 0.519811 0.435821 0.000000
H472  H     H_    0.582219 0.555393 0.460753 0.000000
H473  H     H_    0.633908 0.551595 0.384439 0.000000
H474  H     H_    0.648476 0.631050 0.426215 0.000000
H475  H     H_    0.611811 0.628229 0.519924 0.000000
H476  H     H_    0.654548 0.571648 0.517124 0.000000
H477  H     H_    0.820716 0.756278 0.412273 0.000000
H478  H     H_    0.811295 0.835814 0.472580 0.000000
H479  H     H_    0.744141 0.837290 0.577246 0.000000
H480  H     H_    0.689091 0.758107 0.621541 0.000000
C433  C     C_3   0.857194 0.590960 0.454644 0.000000
N145  N     N_3   0.835381 0.575515 0.411660 0.000000
C434  C     C_3   0.791356 0.533017 0.427822 0.000000
C435  C     C_R   0.772635 0.524927 0.380059 0.000000
N146  N     N_R   0.772930 0.567573 0.350651 0.000000
C436  C     C_R   0.786283 0.547076 0.297658 0.000000
C437  C     C_R   0.816465 0.575677 0.252397 0.000000
C438  C     C_R   0.854217 0.552578 0.201010 0.000000
C439  C     C_R   0.861235 0.500669 0.195961 0.000000
C440  C     C_R   0.835588 0.472407 0.244077 0.000000
C441  C     C_R   0.794818 0.495369 0.294607 0.000000
N147  N     N_R   0.782636 0.478809 0.347221 0.000000
H481  H     H_    0.898565 0.568723 0.443837 0.000000
H482  H     H_    0.868203 0.632552 0.451187 0.000000
H483  H     H_    0.821473 0.585449 0.497292 0.000000
H484  H     H_    0.814514 0.607973 0.409811 0.000000
H485  H     H_    0.813918 0.498214 0.431408 0.000000
H486  H     H_    0.750685 0.543944 0.466679 0.000000
H487  H     H_    0.822233 0.615552 0.262061 0.000000
H488  H     H_    0.883445 0.575987 0.167224 0.000000
H489  H     H_    0.892407 0.483418 0.155570 0.000000
H490  H     H_    0.857037 0.437369 0.244161 0.000000
C442  C     C_3   0.605661 0.278937 0.020896 0.000000
N148  N     N_3   0.630864 0.280789 0.064850 0.000000
C443  C     C_3   0.657746 0.331805 0.067457 0.000000
C444  C     C_R   0.710319 0.328490 0.085628 0.000000
N149  N     N_R   0.699348 0.303912 0.135741 0.000000
C445  C     C_R   0.752594 0.277323 0.118547 0.000000
C446  C     C_R   0.766687 0.241500 0.147944 0.000000
C447  C     C_R   0.812929 0.207232 0.115494 0.000000
C448  C     C_R   0.845230 0.211209 0.055954 0.000000
C449  C     C_R   0.837439 0.253097 0.029553 0.000000
C450  C     C_R   0.792669 0.287266 0.063013 0.000000
N150  N     N_R   0.771575 0.324948 0.043292 0.000000
H491  H     H_    0.574511 0.244543 0.025867 0.000000
H492  H     H_    0.578264 0.313657 0.026062 0.000000
H493  H     H_    0.644476 0.276401 0.976967 0.000000
H494  H     H_    0.667156 0.254736 0.050409 0.000000
H495  H     H_    0.675545 0.345793 0.023936 0.000000
H496  H     H_    0.622088 0.358188 0.097796 0.000000
H497  H     H_    0.738682 0.236905 0.193557 0.000000
H498  H     H_    0.822052 0.175816 0.136075 0.000000
H499  H     H_    0.878992 0.182686 0.030586 0.000000
H500  H     H_    0.863576 0.257480 0.983655 0.000000
C451  C     C_3   0.802616 0.411664 0.141514 0.000000
N151  N     N_3   0.749240 0.404347 0.196363 0.000000
C452  C     C_3   0.764049 0.365339 0.225519 0.000000
C453  C     C_R   0.710981 0.354742 0.280710 0.000000
N152  N     N_R   0.716556 0.361668 0.333350 0.000000
C454  C     C_R   0.672436 0.328272 0.365936 0.000000
C455  C     C_R   0.659241 0.315707 0.421356 0.000000
C456  C     C_R   0.624361 0.272168 0.441747 0.000000
C457  C     C_R   0.600410 0.243309 0.407613 0.000000
C458  C     C_R   0.608224 0.259091 0.354243 0.000000
C459  C     C_R   0.643641 0.302579 0.334402 0.000000
N153  N     N_R   0.663892 0.320601 0.281082 0.000000
H501  H     H_    0.805820 0.452145 0.130590 0.000000
H502  H     H_    0.846447 0.400303 0.143509 0.000000
H503  H     H_    0.796410 0.388492 0.106472 0.000000
H504  H     H_    0.712279 0.389290 0.186753 0.000000
H505  H     H_    0.776713 0.330142 0.197570 0.000000
H506  H     H_    0.803961 0.376555 0.235054 0.000000
H507  H     H_    0.673645 0.338692 0.449660 0.000000
H508  H     H_    0.616161 0.260425 0.484392 0.000000
H509  H     H_    0.576068 0.208158 0.423071 0.000000
H510  H     H_    0.590938 0.235091 0.328095 0.000000
C460  C     C_3   0.350734 0.368448 0.436023 0.000000
N154  N     N_3   0.375573 0.413333 0.455608 0.000000
C461  C     C_3   0.357615 0.455407 0.433239 0.000000
C462  C     C_R   0.396099 0.499520 0.437164 0.000000
N155  N     N_R   0.394277 0.522371 0.489217 0.000000
C463  C     C_R   0.439786 0.558387 0.469951 0.000000
C464  C     C_R   0.454945 0.596304 0.502272 0.000000
C465  C     C_R   0.503929 0.629338 0.474230 0.000000
C466  C     C_R   0.536051 0.624042 0.414632 0.000000
C467  C     C_R   0.520393 0.585402 0.382563 0.000000
C468  C     C_R   0.469187 0.554929 0.410709 0.000000
N156  N     N_R   0.441075 0.519066 0.387692 0.000000
H511  H     H_    0.350457 0.337033 0.462782 0.000000
H512  H     H_    0.302674 0.375691 0.440858 0.000000
H513  H     H_    0.380636 0.359038 0.389834 0.000000
H514  H     H_    0.423838 0.411043 0.432956 0.000000
H515  H     H_    0.370383 0.446568 0.386490 0.000000
H516  H     H_    0.307197 0.463262 0.457677 0.000000
H517  H     H_    0.428889 0.601278 0.547790 0.000000
H518  H     H_    0.519177 0.657681 0.499244 0.000000
H519  H     H_    0.575457 0.648774 0.393105 0.000000
H520  H     H_    0.549570 0.579172 0.337605 0.000000
C469  C     C_3   0.593719 0.440510 0.386886 0.000000
N157  N     N_3   0.571974 0.404599 0.352418 0.000000
C470  C     C_3   0.581528 0.430662 0.301477 0.000000
C471  C     C_R   0.543528 0.405989 0.272044 0.000000
N158  N     N_R   0.560107 0.360925 0.237492 0.000000
C472  C     C_R   0.521422 0.359565 0.210260 0.000000
C473  C     C_R   0.515791 0.321595 0.172209 0.000000
C474  C     C_R   0.478207 0.330320 0.143833 0.000000
C475  C     C_R   0.450313 0.377332 0.151859 0.000000
C476  C     C_R   0.455225 0.414460 0.191906 0.000000
C477  C     C_R   0.486968 0.402831 0.224388 0.000000
N159  N     N_R   0.497519 0.432644 0.265731 0.000000
H521  H     H_    0.557752 0.469694 0.409680 0.000000
H522  H     H_    0.601938 0.419625 0.418950 0.000000
H523  H     H_    0.638674 0.458833 0.358643 0.000000
H524  H     H_    0.523843 0.399260 0.374674 0.000000
H525  H     H_    0.566689 0.470843 0.314481 0.000000
H526  H     H_    0.631532 0.429808 0.271590 0.000000
H527  H     H_    0.539743 0.285971 0.164934 0.000000
H528  H     H_    0.472572 0.301249 0.113520 0.000000
H529  H     H_    0.424106 0.384733 0.126902 0.000000
H530  H     H_    0.434204 0.450959 0.197077 0.000000
C478  C     C_3   0.463355 0.698868 0.880122 0.000000
N160  N     N_3   0.462835 0.705669 0.823842 0.000000
C479  C     C_3   0.510665 0.673671 0.780128 0.000000
C480  C     C_R   0.509741 0.678868 0.722433 0.000000
N161  N     N_R   0.462302 0.708299 0.721571 0.000000
C481  C     C_R   0.494803 0.739480 0.679748 0.000000
C482  C     C_R   0.483218 0.790215 0.679079 0.000000
C483  C     C_R   0.523935 0.817680 0.633920 0.000000
C484  C     C_R   0.572046 0.792443 0.589523 0.000000
C485  C     C_R   0.584523 0.742670 0.595310 0.000000
C486  C     C_R   0.552693 0.721899 0.647877 0.000000
N162  N     N_R   0.566853 0.684151 0.674619 0.000000
H531  H     H_    0.421925 0.717495 0.914535 0.000000
H532  H     H_    0.461410 0.657561 0.887851 0.000000
H533  H     H_    0.506310 0.717205 0.881940 0.000000
H534  H     H_    0.475839 0.743897 0.814810 0.000000
H535  H     H_    0.556194 0.688768 0.777875 0.000000
H536  H     H_    0.502784 0.633121 0.791085 0.000000
H537  H     H_    0.447836 0.809687 0.715677 0.000000
H538  H     H_    0.516693 0.857812 0.632112 0.000000
H539  H     H_    0.601687 0.812536 0.551886 0.000000
H540  H     H_    0.613003 0.720333 0.557754 0.000000
C487  C     C_3   0.512978 0.581547 0.599466 0.000000
N163  N     N_3   0.455493 0.551354 0.617636 0.000000
C488  C     C_3   0.412249 0.577086 0.669600 0.000000
C489  C     C_R   0.367936 0.604758 0.656256 0.000000
N164  N     N_R   0.328567 0.578558 0.634717 0.000000
C490  C     C_R   0.276752 0.606872 0.659576 0.000000
C491  C     C_R   0.216099 0.589229 0.677491 0.000000
C492  C     C_R   0.169143 0.622273 0.710384 0.000000
C493  C     C_R   0.182188 0.670993 0.727832 0.000000
C494  C     C_R   0.242905 0.685099 0.717168 0.000000
C495  C     C_R   0.288667 0.651157 0.685477 0.000000
N165  N     N_R   0.345797 0.650907 0.685244 0.000000
H541  H     H_    0.537044 0.577169 0.628514 0.000000
H542  H     H_    0.542473 0.567029 0.555503 0.000000
H543  H     H_    0.503666 0.622484 0.598324 0.000000
H544  H     H_    0.463704 0.516110 0.629114 0.000000
H545  H     H_    0.384613 0.548438 0.700368 0.000000
H546  H     H_    0.437094 0.603804 0.689207 0.000000
H547  H     H_    0.204612 0.549407 0.673229 0.000000
H548  H     H_    0.121591 0.609079 0.725069 0.000000
H549  H     H_    0.144540 0.695972 0.754517 0.000000
H550  H     H_    0.252948 0.720464 0.736010 0.000000
C496  C     C_3   0.400244 0.244712 0.526272 0.000000
N166  N     N_3   0.362347 0.282158 0.569536 0.000000
C497  C     C_3   0.311648 0.254492 0.612452 0.000000
C498  C     C_R   0.334571 0.233141 0.652964 0.000000
N167  N     N_R   0.336859 0.180999 0.655388 0.000000
C499  C     C_R   0.357162 0.177618 0.697908 0.000000
C500  C     C_R   0.365592 0.134661 0.721574 0.000000
C501  C     C_R   0.382960 0.141022 0.767861 0.000000
C502  C     C_R   0.390872 0.189698 0.790178 0.000000
C503  C     C_R   0.382402 0.232586 0.765772 0.000000
C504  C     C_R   0.366754 0.225202 0.719037 0.000000
N168  N     N_R   0.354741 0.261750 0.690883 0.000000
H551  H     H_    0.445529 0.261992 0.498622 0.000000
H552  H     H_    0.410515 0.213648 0.547730 0.000000
H553  H     H_    0.375098 0.230274 0.499289 0.000000
H554  H     H_    0.344148 0.305508 0.549180 0.000000
H555  H     H_    0.271429 0.279612 0.634740 0.000000
H556  H     H_    0.295519 0.222339 0.590645 0.000000
H557  H     H_    0.359333 0.096937 0.705136 0.000000
H558  H     H_    0.389885 0.107718 0.787128 0.000000
H559  H     H_    0.403893 0.194092 0.826660 0.000000
H560  H     H_    0.388396 0.270632 0.782706 0.000000

loop_
_geom_bond_atom_site_label_1
_geom_bond_atom_site_label_2
_geom_bond_distance
_geom_bond_site_symmetry_2
_ccdc_geom_bond_type
Zn1   N2    2.114 .      S
Zn1   N108  2.146 .      S
Zn1   N144  2.100 .      S
Zn1   N162  2.194 .      S
Zn2   N12   2.114 .      S
Zn2   N21   2.236 .      S
Zn2   N141  2.241 .      S
Zn2   N150  2.179 1_556  S
Zn3   N6    2.010 .      S
Zn3   N29   1.981 .      S
Zn3   N155  2.131 .      S
Zn3   N164  2.114 .      S
Zn4   N5    2.042 .      S
Zn4   N8    2.121 .      S
Zn4   N23   2.126 .      S
Zn4   N168  2.075 .      S
Zn5   N11   2.151 .      S
Zn5   N14   2.098 .      S
Zn5   N17   2.071 .      S
Zn5   N98   2.137 .      S
Zn6   N20   2.106 .      S
Zn6   N24   2.156 .      S
Zn6   N119  2.088 1_556  S
Zn6   N132  2.099 .      S
Zn7   N26   2.103 .      S
Zn7   N122  2.136 .      S
Zn7   N147  2.140 .      S
Zn7   N152  2.110 .      S
Zn8   N18   2.091 .      S
Zn8   N30   2.053 .      S
Zn8   N114  2.073 .      S
Zn8   N135  2.021 .      S
Zn9   N3    2.075 .      S
Zn9   N9    2.172 .      S
Zn9   N15   2.100 .      S
Zn9   N27   2.108 .      S
Zn10  N32   2.142 .      S
Zn10  N35   2.103 .      S
Zn10  N38   2.040 .      S
Zn10  N42   2.126 .      S
Zn11  N33   2.098 .      S
Zn11  N45   2.105 .      S
Zn11  N48   2.161 .      S
Zn11  N50   2.074 .      S
Zn12  N36   2.062 .      S
Zn12  N54   2.146 .      S
Zn12  N56   2.072 .      S
Zn12  N60   2.148 .      S
Zn13  N39   2.047 .      S
Zn13  N63   2.057 .      S
Zn13  N65   2.071 .      S
Zn13  N68   2.096 1_455  S
Zn14  N41   2.112 .      S
Zn14  N71   2.098 .      S
Zn14  N74   2.125 .      S
Zn14  N77   2.082 .      S
Zn15  N51   2.123 .      S
Zn15  N57   2.133 .      S
Zn15  N80   2.072 .      S
Zn15  N84   2.068 .      S
Zn16  N59   2.075 .      S
Zn16  N87   2.227 .      S
Zn16  N90   2.066 .      S
Zn16  N92   2.080 .      S
Zn17  N44   2.140 .      S
Zn17  N72   2.051 .      S
Zn17  N95   2.137 .      S
Zn17  N99   2.153 1_455  S
Zn18  N53   2.183 .      S
Zn18  N75   2.073 .      S
Zn18  N102  2.166 .      S
Zn18  N105  2.100 .      S
Zn19  N78   2.045 .      S
Zn19  N107  2.127 .      S
Zn19  N110  2.020 .      S
Zn19  N113  2.102 .      S
Zn20  N47   2.180 .      S
Zn20  N117  2.057 .      S
Zn20  N120  2.073 .      S
Zn20  N123  2.134 1_455  S
Zn21  N62   2.035 1_556  S
Zn21  N126  2.131 .      S
Zn21  N129  2.094 .      S
Zn21  N131  2.145 .      S
Zn22  N66   2.116 .      S
Zn22  N116  2.059 .      S
Zn22  N134  2.025 .      S
Zn22  N138  2.020 .      S
Zn23  N86   2.122 1_556  S
Zn23  N111  1.988 .      S
Zn23  N128  2.206 .      S
Zn23  N140  2.152 .      S
Zn24  N69   2.162 .      S
Zn24  N89   2.108 .      S
Zn24  N143  2.133 .      S
Zn24  N146  2.208 .      S
Zn25  N83   2.137 .      S
Zn25  N149  2.155 .      S
Zn25  N153  2.081 .      S
Zn25  N158  2.083 .      S
Zn26  N93   2.080 .      S
Zn26  N137  2.061 .      S
Zn26  N156  2.120 .      S
Zn26  N159  2.107 .      S
Zn27  N101  2.045 .      S
Zn27  N125  2.108 .      S
Zn27  N161  2.152 .      S
Zn27  N165  2.037 .      S
Zn28  N81   2.118 .      S
Zn28  N96   2.186 .      S
Zn28  N104  2.043 .      S
Zn28  N167  2.070 .      S
C1    N1    1.449 .      S
C1    H1    1.087 .      S
C1    H2    1.096 .      S
C1    H3    1.104 .      S
N1    C2    1.444 .      S
N1    H4    1.042 .      S
C2    C3    1.436 .      S
C2    H5    1.098 .      S
C2    H6    1.080 .      S
C5    H7    1.060 .      S
C6    H8    1.081 .      S
C7    H9    1.081 .      S
C8    H10   1.079 .      S
C10   N4    1.449 .      S
C10   H11   1.107 .      S
C10   H12   1.100 .      S
C10   H13   1.104 .      S
N4    C11   1.445 .      S
N4    H14   1.040 .      S
C11   C12   1.488 .      S
C11   H15   1.107 .      S
C11   H16   1.106 .      S
C14   H17   1.069 .      S
C15   H18   1.075 .      S
C16   H19   1.067 .      S
C17   H20   1.072 .      S
C19   N7    1.453 .      S
C19   H21   1.109 .      S
C19   H22   1.109 .      S
C19   H23   1.109 .      S
N7    C20   1.451 .      S
N7    H24   1.043 .      S
C20   C21   1.493 .      S
C20   H25   1.104 .      S
C20   H26   1.104 .      S
C23   H27   1.067 .      S
C24   H28   1.062 .      S
C25   H29   1.078 .      S
C26   H30   1.053 .      S
C28   N10   1.452 .      S
C28   H31   1.109 .      S
C28   H32   1.106 .      S
C28   H33   1.110 .      S
N10   C29   1.455 .      S
N10   H34   1.044 .      S
C29   C30   1.494 .      S
C29   H35   1.107 .      S
C29   H36   1.104 .      S
C32   H37   1.038 .      S
C33   H38   1.078 .      S
C34   H39   1.081 .      S
C35   H40   1.049 .      S
C37   N13   1.451 .      S
C37   H41   1.104 .      S
C37   H42   1.096 .      S
C37   H43   1.104 .      S
N13   C38   1.452 .      S
N13   H44   1.042 .      S
C38   C39   1.472 .      S
C38   H45   1.097 .      S
C38   H46   1.090 .      S
C41   H47   1.080 .      S
C42   H48   1.081 .      S
C43   H49   1.081 .      S
C44   H50   1.071 .      S
C46   N16   1.452 .      S
C46   H51   1.103 .      S
C46   H52   1.108 .      S
C46   H53   1.104 .      S
N16   C47   1.459 .      S
N16   H54   1.043 .      S
C47   C48   1.482 .      S
C47   H55   1.104 1_655  S
C47   H56   1.102 .      S
C50   H57   1.063 .      S
C51   H58   1.072 .      S
C52   H59   1.080 .      S
C53   H60   1.071 .      S
H55   C47   1.104 1_455  S
C55   N19   1.447 .      S
C55   H61   1.101 1_655  S
C55   H62   1.097 .      S
C55   H63   1.109 .      S
N19   C56   1.456 .      S
N19   H64   1.042 1_554  S
C56   C57   1.472 1_554  S
C56   H65   1.099 .      S
C56   H66   1.100 .      S
C57   C56   1.472 1_556  S
C59   H67   1.073 .      S
C60   H68   1.072 .      S
C61   H69   1.069 .      S
C62   H70   1.049 .      S
H61   C55   1.101 1_455  S
H64   N19   1.042 1_556  S
C64   N22   1.454 .      S
C64   H71   1.109 .      S
C64   H72   1.109 .      S
C64   H73   1.109 .      S
N22   C65   1.452 .      S
N22   H74   1.044 .      S
C65   C66   1.486 .      S
C65   H75   1.105 .      S
C65   H76   1.107 .      S
C68   H77   1.069 .      S
C69   H78   1.073 .      S
C70   H79   1.078 .      S
C71   H80   1.075 .      S
C73   N25   1.437 .      S
C73   H81   1.102 .      S
C73   H82   1.102 .      S
C73   H83   1.106 .      S
N25   C74   1.441 .      S
N25   H84   1.039 .      S
C74   C75   1.456 .      S
C74   H85   1.099 .      S
C74   H86   1.089 .      S
C77   H87   1.077 .      S
C78   H88   1.077 .      S
C79   H89   1.080 .      S
C80   H90   1.069 .      S
C82   N28   1.454 .      S
C82   H91   1.096 .      S
C82   H92   1.107 .      S
C82   H93   1.108 .      S
N28   C83   1.439 .      S
N28   H94   1.037 .      S
C83   C84   1.473 .      S
C83   H95   1.079 .      S
C83   H96   1.083 .      S
C86   H97   1.067 .      S
C87   H98   1.075 .      S
C88   H99   1.076 .      S
C89   H100  1.057 .      S
C91   N31   1.461 .      S
C91   H101  1.101 .      S
C91   H102  1.108 .      S
C91   H103  1.107 1_545  S
N31   C92   1.471 .      S
N31   H104  1.036 .      S
C92   C93   1.472 .      S
C92   H105  1.077 .      S
C92   H106  1.081 .      S
C95   H107  1.069 .      S
C96   H108  1.081 .      S
C97   H109  1.081 .      S
C98   H110  1.080 .      S
H103  C91   1.107 1_565  S
C100  N34   1.452 .      S
C100  H111  1.109 .      S
C100  H112  1.107 .      S
C100  H113  1.108 .      S
N34   C101  1.450 .      S
N34   H114  1.033 .      S
C101  C102  1.469 .      S
C101  H115  1.102 .      S
C101  H116  1.087 .      S
C104  H117  1.073 .      S
C105  H118  1.081 .      S
C106  H119  1.080 .      S
C107  H120  1.078 .      S
C109  N37   1.457 1_655  S
C109  H121  1.099 .      S
C109  H122  1.109 .      S
C109  H123  1.107 .      S
N37   C109  1.457 1_455  S
N37   C110  1.437 .      S
N37   H124  1.037 .      S
C110  C111  1.480 .      S
C110  H125  1.071 .      S
C110  H126  1.105 .      S
C113  H127  1.066 .      S
C114  H128  1.081 .      S
C115  H129  1.081 .      S
C116  H130  1.071 .      S
C118  N40   1.443 .      S
C118  H131  1.082 .      S
C118  H132  1.093 .      S
C118  H133  1.094 .      S
N40   C119  1.456 .      S
N40   H134  1.035 .      S
C119  C120  1.463 .      S
C119  H135  1.080 .      S
C119  H136  1.099 .      S
C122  H137  1.077 .      S
C123  H138  1.081 .      S
C124  H139  1.081 .      S
C125  H140  1.077 .      S
C127  N43   1.450 .      S
C127  H141  1.097 .      S
C127  H142  1.105 .      S
C127  H143  1.109 .      S
N43   C128  1.452 .      S
N43   H144  1.044 .      S
C128  C129  1.466 .      S
C128  H145  1.098 .      S
C128  H146  1.100 .      S
C131  H147  1.054 .      S
C132  H148  1.080 .      S
C133  H149  1.081 .      S
C134  H150  1.060 .      S
C136  N46   1.458 .      S
C136  H151  1.109 .      S
C136  H152  1.107 .      S
C136  H153  1.103 .      S
N46   C137  1.452 .      S
N46   H154  1.041 .      S
C137  C138  1.490 .      S
C137  H155  1.105 .      S
C137  H156  1.103 .      S
C140  H157  1.033 .      S
C141  H158  1.073 .      S
C142  H159  1.081 .      S
C143  H160  1.052 .      S
C145  N49   1.440 .      S
C145  H161  1.102 .      S
C145  H162  1.103 .      S
C145  H163  1.089 .      S
N49   C146  1.442 .      S
N49   H164  1.043 .      S
C146  C147  1.466 .      S
C146  H165  1.106 .      S
C146  H166  1.085 .      S
C149  H167  1.080 .      S
C150  H168  1.081 .      S
C151  H169  1.081 .      S
C152  H170  1.073 .      S
C154  N52   1.449 .      S
C154  H171  1.091 .      S
C154  H172  1.097 .      S
C154  H173  1.088 .      S
N52   C155  1.446 .      S
N52   H174  1.041 .      S
C155  C156  1.455 .      S
C155  H175  1.083 .      S
C155  H176  1.092 .      S
C158  H177  1.072 .      S
C159  H178  1.081 .      S
C160  H179  1.081 .      S
C161  H180  1.070 .      S
C163  N55   1.448 .      S
C163  H181  1.098 .      S
C163  H182  1.105 .      S
C163  H183  1.103 1_565  S
N55   C164  1.440 1_565  S
N55   H184  1.038 .      S
C164  N55   1.440 1_545  S
C164  C165  1.463 1_545  S
C164  H185  1.075 .      S
C164  H186  1.101 1_545  S
C165  C164  1.463 1_565  S
C167  H187  1.079 .      S
C168  H188  1.081 .      S
C169  H189  1.081 .      S
C170  H190  1.065 .      S
H183  C163  1.103 1_545  S
H186  C164  1.101 1_565  S
C172  N58   1.454 .      S
C172  H191  1.107 .      S
C172  H192  1.110 .      S
C172  H193  1.109 .      S
N58   C173  1.452 .      S
N58   H194  1.043 .      S
C173  C174  1.494 .      S
C173  H195  1.101 .      S
C173  H196  1.108 .      S
C176  H197  1.079 .      S
C177  H198  1.079 .      S
C178  H199  1.081 .      S
C179  H200  1.056 .      S
C181  N61   1.454 1_556  S
C181  H201  1.108 1_556  S
C181  H202  1.109 .      S
C181  H203  1.108 .      S
N61   C181  1.454 1_554  S
N61   C182  1.454 .      S
N61   H204  1.043 .      S
C182  C183  1.487 .      S
C182  H205  1.103 .      S
C182  H206  1.108 .      S
N62   Zn21  2.035 1_554  S
C185  H207  1.054 .      S
C186  H208  1.063 1_455  S
C187  H209  1.070 1_455  S
C188  H210  1.050 .      S
H201  C181  1.108 1_554  S
H208  C186  1.063 1_655  S
H209  C187  1.070 1_655  S
C190  N64   1.453 .      S
C190  H211  1.108 .      S
C190  H212  1.105 .      S
C190  H213  1.105 .      S
N64   C191  1.449 .      S
N64   H214  1.033 .      S
C191  C192  1.476 .      S
C191  H215  1.108 .      S
C191  H216  1.105 .      S
C194  H217  1.060 .      S
C195  H218  1.075 .      S
C196  H219  1.072 .      S
C197  H220  1.053 .      S
C199  N67   1.439 .      S
C199  H221  1.086 .      S
C199  H222  1.098 .      S
C199  H223  1.104 .      S
N67   C200  1.435 .      S
N67   H224  1.014 .      S
C200  C201  1.465 .      S
C200  H225  1.081 .      S
C200  H226  1.079 1_655  S
N68   Zn13  2.096 1_655  S
C203  H227  1.081 1_655  S
C204  H228  1.081 .      S
C205  H229  1.080 .      S
C206  H230  1.076 .      S
H226  C200  1.079 1_455  S
H227  C203  1.081 1_455  S
C208  N70   1.448 .      S
C208  H231  1.097 1_565  S
C208  H232  1.098 .      S
C208  H233  1.087 1_565  S
N70   C209  1.439 1_565  S
N70   H234  1.029 .      S
C209  N70   1.439 1_545  S
C209  C210  1.455 .      S
C209  H235  1.084 .      S
C209  H236  1.097 1_545  S
C212  H237  1.076 .      S
C213  H238  1.081 .      S
C214  H239  1.081 .      S
C215  H240  1.079 .      S
H231  C208  1.097 1_545  S
H233  C208  1.087 1_545  S
H236  C209  1.097 1_565  S
C217  N73   1.458 .      S
C217  H241  1.107 .      S
C217  H242  1.106 .      S
C217  H243  1.109 .      S
N73   C218  1.453 .      S
N73   H244  1.044 .      S
C218  C219  1.498 .      S
C218  H245  1.099 .      S
C218  H246  1.100 .      S
C221  H247  1.045 .      S
C222  H248  1.061 .      S
C223  H249  1.073 .      S
C224  H250  1.059 .      S
C226  N76   1.452 .      S
C226  H251  1.092 .      S
C226  H252  1.106 .      S
C226  H253  1.099 .      S
N76   C227  1.451 .      S
N76   H254  1.041 .      S
C227  C228  1.502 1_455  S
C227  H255  1.090 1_455  S
C227  H256  1.104 .      S
C228  C227  1.502 1_655  S
C230  H257  1.069 1_655  S
C231  H258  1.081 .      S
C232  H259  1.081 .      S
C233  H260  1.079 .      S
H255  C227  1.090 1_655  S
H257  C230  1.069 1_455  S
C235  N79   1.452 .      S
C235  H261  1.109 .      S
C235  H262  1.109 .      S
C235  H263  1.109 .      S
N79   C236  1.453 .      S
N79   H264  1.041 .      S
C236  C237  1.489 .      S
C236  H265  1.101 .      S
C236  H266  1.100 .      S
C239  H267  1.077 .      S
C240  H268  1.078 .      S
C241  H269  1.050 .      S
C242  H270  1.070 .      S
C244  N82   1.444 .      S
C244  H271  1.106 .      S
C244  H272  1.104 .      S
C244  H273  1.105 .      S
N82   C245  1.447 .      S
N82   H274  1.040 .      S
C245  C246  1.480 .      S
C245  H275  1.104 .      S
C245  H276  1.101 .      S
C248  H277  1.073 .      S
C249  H278  1.081 .      S
C250  H279  1.081 .      S
C251  H280  1.078 .      S
C253  N85   1.432 .      S
C253  H281  1.088 .      S
C253  H282  1.095 .      S
C253  H283  1.100 .      S
N85   C254  1.431 .      S
N85   H284  1.035 .      S
C254  C255  1.437 .      S
C254  H285  1.088 .      S
C254  H286  1.094 .      S
N86   Zn23  2.122 1_554  S
C257  H287  1.072 .      S
C258  H288  1.080 .      S
C259  H289  1.081 .      S
C260  H290  1.069 .      S
C262  N88   1.460 .      S
C262  H291  1.108 .      S
C262  H292  1.102 .      S
C262  H293  1.083 .      S
N88   C263  1.445 .      S
N88   H294  1.044 .      S
C263  C264  1.457 .      S
C263  H295  1.098 .      S
C263  H296  1.080 .      S
C266  H297  1.054 .      S
C267  H298  1.071 .      S
C268  H299  1.074 .      S
C269  H300  1.059 .      S
C271  N91   1.449 .      S
C271  H301  1.101 .      S
C271  H302  1.100 .      S
C271  H303  1.103 .      S
N91   C272  1.444 .      S
N91   H304  1.038 .      S
C272  C273  1.488 .      S
C272  H305  1.105 .      S
C272  H306  1.103 .      S
C275  H307  1.055 .      S
C276  H308  1.070 .      S
C277  H309  1.058 .      S
C278  H310  1.057 .      S
C280  N94   1.451 .      S
C280  H311  1.109 .      S
C280  H312  1.109 1_455  S
C280  H313  1.097 1_545  S
N94   C281  1.458 .      S
N94   H314  1.037 .      S
C281  C282  1.518 .      S
C281  H315  1.087 .      S
C281  H316  1.085 .      S
C284  H317  1.078 .      S
C285  H318  1.080 .      S
C286  H319  1.081 .      S
C287  H320  1.077 .      S
H312  C280  1.109 1_655  S
H313  C280  1.097 1_565  S
C289  N97   1.447 .      S
C289  H321  1.106 .      S
C289  H322  1.098 .      S
C289  H323  1.089 .      S
N97   C290  1.440 .      S
N97   H324  1.031 .      S
C290  C291  1.475 1_455  S
C290  H325  1.103 .      S
C290  H326  1.099 .      S
C291  C290  1.475 1_655  S
C293  H327  1.064 .      S
C294  H328  1.080 .      S
C295  H329  1.081 .      S
C296  H330  1.054 .      S
N99   Zn17  2.153 1_655  S
C298  N100  1.449 .      S
C298  H331  1.092 .      S
C298  H332  1.104 .      S
C298  H333  1.103 .      S
N100  C299  1.444 .      S
N100  H334  1.031 .      S
C299  C300  1.487 .      S
C299  H335  1.092 .      S
C299  H336  1.104 .      S
C302  H337  1.080 .      S
C303  H338  1.081 .      S
C304  H339  1.080 .      S
C305  H340  1.065 .      S
C307  N103  1.452 .      S
C307  H341  1.107 .      S
C307  H342  1.109 .      S
C307  H343  1.109 1_545  S
N103  C308  1.463 .      S
N103  H344  1.037 .      S
C308  C309  1.461 .      S
C308  H345  1.088 1_545  S
C308  H346  1.081 1_545  S
C311  H347  1.078 .      S
C312  H348  1.081 .      S
C313  H349  1.081 1_545  S
C314  H350  1.076 .      S
H343  C307  1.109 1_565  S
H345  C308  1.088 1_565  S
H346  C308  1.081 1_565  S
H349  C313  1.081 1_565  S
C316  N106  1.452 .      S
C316  H351  1.107 .      S
C316  H352  1.109 .      S
C316  H353  1.108 .      S
N106  C317  1.450 .      S
N106  H354  1.037 .      S
C317  C318  1.492 .      S
C317  H355  1.097 .      S
C317  H356  1.109 .      S
C320  H357  1.075 .      S
C321  H358  1.074 .      S
C322  H359  1.079 .      S
C323  H360  1.069 .      S
C325  N109  1.452 .      S
C325  H361  1.107 1_655  S
C325  H362  1.106 .      S
C325  H363  1.108 .      S
N109  C326  1.450 .      S
N109  H364  1.043 .      S
C326  C327  1.497 .      S
C326  H365  1.107 .      S
C326  H366  1.101 .      S
C329  H367  1.075 .      S
C330  H368  1.079 .      S
C331  H369  1.077 .      S
C332  H370  1.068 .      S
H361  C325  1.107 1_455  S
C334  N112  1.437 .      S
C334  H371  1.106 .      S
C334  H372  1.107 .      S
C334  H373  1.098 .      S
N112  C335  1.447 .      S
N112  H374  1.033 1_455  S
C335  C336  1.453 1_455  S
C335  H375  1.103 .      S
C335  H376  1.103 1_455  S
C336  C335  1.453 1_655  S
C338  H377  1.043 .      S
C339  H378  1.066 .      S
C340  H379  1.056 .      S
C341  H380  1.074 .      S
H374  N112  1.033 1_655  S
H376  C335  1.103 1_655  S
C343  N115  1.425 .      S
C343  H381  1.086 .      S
C343  H382  1.102 .      S
C343  H383  1.102 .      S
N115  C344  1.428 .      S
N115  H384  1.024 .      S
C344  C345  1.461 .      S
C344  H385  1.096 .      S
C344  H386  1.106 .      S
C347  H387  1.068 .      S
C348  H388  1.081 .      S
C349  H389  1.081 .      S
C350  H390  1.070 .      S
C352  N118  1.446 1_655  S
C352  H391  1.102 .      S
C352  H392  1.099 .      S
C352  H393  1.106 .      S
N118  C352  1.446 1_455  S
N118  C353  1.436 .      S
N118  H394  1.036 .      S
C353  C354  1.461 .      S
C353  H395  1.105 .      S
C353  H396  1.093 .      S
N119  Zn6   2.088 1_554  S
C356  H397  1.075 .      S
C357  H398  1.081 1_554  S
C358  H399  1.081 .      S
C359  H400  1.079 .      S
H398  C357  1.081 1_556  S
C361  N121  1.446 .      S
C361  H401  1.102 .      S
C361  H402  1.100 .      S
C361  H403  1.100 .      S
N121  C362  1.450 .      S
N121  H404  1.040 .      S
C362  C363  1.467 .      S
C362  H405  1.095 .      S
C362  H406  1.103 .      S
C365  H407  1.068 .      S
C366  H408  1.080 .      S
C367  H409  1.081 .      S
C368  H410  1.070 1_655  S
N123  Zn20  2.134 1_655  S
H410  C368  1.070 1_455  S
C370  N124  1.452 .      S
C370  H411  1.109 .      S
C370  H412  1.109 .      S
C370  H413  1.107 .      S
N124  C371  1.452 .      S
N124  H414  1.044 .      S
C371  C372  1.488 .      S
C371  H415  1.107 .      S
C371  H416  1.103 .      S
C374  H417  1.049 .      S
C375  H418  1.079 .      S
C376  H419  1.080 .      S
C377  H420  1.057 .      S
C379  N127  1.454 1_554  S
C379  H421  1.109 .      S
C379  H422  1.108 .      S
C379  H423  1.109 .      S
N127  C379  1.454 1_556  S
N127  C380  1.451 1_556  S
N127  H424  1.043 .      S
C380  N127  1.451 1_554  S
C380  C381  1.488 1_554  S
C380  H425  1.107 1_655  S
C380  H426  1.089 .      S
C381  C380  1.488 1_556  S
C383  H427  1.069 .      S
C384  H428  1.073 .      S
C385  H429  1.078 .      S
C386  H430  1.079 .      S
H425  C380  1.107 1_455  S
C388  N130  1.432 1_655  S
C388  H431  1.090 1_554  S
C388  H432  1.078 1_554  S
C388  H433  1.106 .      S
N130  C388  1.432 1_455  S
N130  C389  1.437 1_554  S
N130  H434  1.030 .      S
C389  N130  1.437 1_556  S
C389  C390  1.463 .      S
C389  H435  1.078 .      S
C389  H436  1.075 .      S
C392  H437  1.081 .      S
C393  H438  1.077 .      S
C394  H439  1.080 .      S
C395  H440  1.076 .      S
H431  C388  1.090 1_556  S
H432  C388  1.078 1_556  S
C397  N133  1.449 .      S
C397  H441  1.103 .      S
C397  H442  1.102 .      S
C397  H443  1.108 .      S
N133  C398  1.439 .      S
N133  H444  1.042 .      S
C398  C399  1.490 .      S
C398  H445  1.090 .      S
C398  H446  1.105 .      S
C401  H447  1.073 .      S
C402  H448  1.071 .      S
C403  H449  1.074 .      S
C404  H450  1.066 .      S
C406  N136  1.446 .      S
C406  H451  1.108 .      S
C406  H452  1.100 .      S
C406  H453  1.108 .      S
N136  C407  1.449 .      S
N136  H454  1.042 .      S
C407  C408  1.478 .      S
C407  H455  1.103 .      S
C407  H456  1.098 .      S
C410  H457  1.076 .      S
C411  H458  1.079 .      S
C412  H459  1.079 .      S
C413  H460  1.073 .      S
C415  N139  1.447 .      S
C415  H461  1.103 .      S
C415  H462  1.102 .      S
C415  H463  1.102 .      S
N139  C416  1.441 .      S
N139  H464  1.041 .      S
C416  C417  1.439 .      S
C416  H465  1.080 .      S
C416  H466  1.091 .      S
C419  H467  1.071 .      S
C420  H468  1.081 .      S
C421  H469  1.080 .      S
C422  H470  1.046 .      S
C424  N142  1.451 .      S
C424  H471  1.096 .      S
C424  H472  1.098 .      S
C424  H473  1.108 .      S
N142  C425  1.443 .      S
N142  H474  1.038 .      S
C425  C426  1.473 .      S
C425  H475  1.102 .      S
C425  H476  1.103 .      S
C428  H477  1.057 .      S
C429  H478  1.081 .      S
C430  H479  1.081 .      S
C431  H480  1.081 .      S
C433  N145  1.404 .      S
C433  H481  1.082 .      S
C433  H482  1.107 .      S
C433  H483  1.074 .      S
N145  C434  1.438 .      S
N145  H484  1.016 .      S
C434  C435  1.443 .      S
C434  H485  1.105 .      S
C434  H486  1.083 .      S
C437  H487  1.068 .      S
C438  H488  1.062 .      S
C439  H489  1.065 .      S
C440  H490  1.069 .      S
C442  N148  1.454 .      S
C442  H491  1.109 .      S
C442  H492  1.109 .      S
C442  H493  1.110 1_554  S
N148  C443  1.454 .      S
N148  H494  1.044 .      S
C443  C444  1.488 .      S
C443  H495  1.090 .      S
C443  H496  1.104 .      S
C446  H497  1.080 .      S
C447  H498  1.081 .      S
C448  H499  1.081 .      S
C449  H500  1.079 1_554  S
N150  Zn2   2.179 1_554  S
H493  C442  1.110 1_556  S
H500  C449  1.079 1_556  S
C451  N151  1.454 .      S
C451  H501  1.106 .      S
C451  H502  1.105 .      S
C451  H503  1.090 .      S
N151  C452  1.438 .      S
N151  H504  1.041 .      S
C452  C453  1.472 .      S
C452  H505  1.093 .      S
C452  H506  1.078 .      S
C455  H507  1.048 .      S
C456  H508  1.081 .      S
C457  H509  1.068 .      S
C458  H510  1.061 .      S
C460  N154  1.428 .      S
C460  H511  1.102 .      S
C460  H512  1.106 .      S
C460  H513  1.104 .      S
N154  C461  1.432 .      S
N154  H514  1.039 .      S
C461  C462  1.449 .      S
C461  H515  1.103 .      S
C461  H516  1.107 .      S
C464  H517  1.060 .      S
C465  H518  1.079 .      S
C466  H519  1.070 .      S
C467  H520  1.064 .      S
C469  N157  1.446 .      S
C469  H521  1.108 .      S
C469  H522  1.096 .      S
C469  H523  1.109 .      S
N157  C470  1.434 .      S
N157  H524  1.040 .      S
C470  C471  1.473 .      S
C470  H525  1.108 .      S
C470  H526  1.103 .      S
C473  H527  1.078 .      S
C474  H528  1.081 .      S
C475  H529  1.078 .      S
C476  H530  1.073 .      S
C478  N160  1.453 .      S
C478  H531  1.109 .      S
C478  H532  1.109 .      S
C478  H533  1.107 .      S
N160  C479  1.457 .      S
N160  H534  1.045 .      S
C479  C480  1.485 .      S
C479  H535  1.097 .      S
C479  H536  1.104 .      S
C482  H537  1.071 .      S
C483  H538  1.080 .      S
C484  H539  1.077 .      S
C485  H540  1.061 .      S
C487  N163  1.442 .      S
C487  H541  1.109 .      S
C487  H542  1.092 .      S
C487  H543  1.110 .      S
N163  C488  1.433 .      S
N163  H544  1.038 .      S
C488  C489  1.456 .      S
C488  H545  1.100 .      S
C488  H546  1.102 .      S
C491  H547  1.071 .      S
C492  H548  1.066 .      S
C493  H549  1.080 .      S
C494  H550  1.068 .      S
C496  N166  1.442 .      S
C496  H551  1.098 .      S
C496  H552  1.099 .      S
C496  H553  1.105 .      S
N166  C497  1.443 .      S
N166  H554  1.037 .      S
C497  C498  1.490 .      S
C497  H555  1.101 .      S
C497  H556  1.105 .      S
C500  H557  1.068 .      S
C501  H558  1.081 .      S
C502  H559  1.081 .      S
C503  H560  1.079 .      S
C3    N2    1.373 .      A
C3    N3    1.381 .      A
N2    C4    1.354 .      A
C4    C5    1.360 .      A
C4    C9    1.364 .      A
C5    C6    1.384 .      A
C6    C7    1.388 .      A
C7    C8    1.383 .      A
C8    C9    1.373 .      A
C9    N3    1.340 .      A
C12   N5    1.385 .      A
C12   N6    1.373 .      A
N5    C13   1.338 .      A
C13   C14   1.361 .      A
C13   C18   1.352 .      A
C14   C15   1.366 .      A
C15   C16   1.376 .      A
C16   C17   1.383 .      A
C17   C18   1.366 .      A
C18   N6    1.341 .      A
C21   N8    1.404 .      A
C21   N9    1.396 .      A
N8    C22   1.328 .      A
C22   C23   1.361 .      A
C22   C27   1.355 .      A
C23   C24   1.359 .      A
C24   C25   1.373 .      A
C25   C26   1.368 .      A
C26   C27   1.365 .      A
C27   N9    1.354 .      A
C30   N11   1.397 .      A
C30   N12   1.389 .      A
N11   C31   1.361 .      A
C31   C32   1.373 .      A
C31   C36   1.351 .      A
C32   C33   1.378 .      A
C33   C34   1.374 .      A
C34   C35   1.372 .      A
C35   C36   1.357 .      A
C36   N12   1.333 .      A
C39   N14   1.387 .      A
C39   N15   1.378 .      A
N14   C40   1.351 .      A
C40   C41   1.374 .      A
C40   C45   1.367 .      A
C41   C42   1.383 .      A
C42   C43   1.389 .      A
C43   C44   1.385 .      A
C44   C45   1.371 .      A
C45   N15   1.349 .      A
C48   N17   1.380 .      A
C48   N18   1.390 1_655  A
N17   C49   1.329 .      A
C49   C50   1.352 .      A
C49   C54   1.352 1_655  A
C50   C51   1.377 1_655  A
C51   C50   1.377 1_455  A
C51   C52   1.381 .      A
C52   C53   1.376 .      A
C53   C54   1.362 .      A
C54   C49   1.352 1_455  A
C54   N18   1.345 .      A
N18   C48   1.390 1_455  A
C57   N20   1.390 1_655  A
C57   N21   1.409 .      A
N20   C57   1.390 1_455  A
N20   C58   1.323 .      A
C58   C59   1.368 .      A
C58   C63   1.356 1_455  A
C59   C60   1.361 .      A
C60   C61   1.372 .      A
C61   C62   1.365 1_455  A
C62   C61   1.365 1_655  A
C62   C63   1.343 .      A
C63   C58   1.356 1_655  A
C63   N21   1.355 .      A
C66   N23   1.395 .      A
C66   N24   1.396 .      A
N23   C67   1.337 .      A
C67   C68   1.359 .      A
C67   C72   1.354 .      A
C68   C69   1.372 .      A
C69   C70   1.384 .      A
C70   C71   1.376 .      A
C71   C72   1.363 .      A
C72   N24   1.344 .      A
C75   N26   1.380 .      A
C75   N27   1.383 .      A
N26   C76   1.351 .      A
C76   C77   1.375 .      A
C76   C81   1.371 .      A
C77   C78   1.385 .      A
C78   C79   1.382 .      A
C79   C80   1.377 .      A
C80   C81   1.373 .      A
C81   N27   1.347 .      A
C84   N29   1.360 .      A
C84   N30   1.381 .      A
N29   C85   1.340 .      A
C85   C86   1.373 .      A
C85   C90   1.348 .      A
C86   C87   1.379 .      A
C87   C88   1.377 .      A
C88   C89   1.361 .      A
C89   C90   1.360 .      A
C90   N30   1.342 .      A
C93   N32   1.386 1_545  A
C93   N33   1.378 .      A
N32   C93   1.386 1_565  A
N32   C94   1.358 .      A
C94   C95   1.373 .      A
C94   C99   1.371 1_565  A
C95   C96   1.385 .      A
C96   C97   1.389 1_565  A
C97   C96   1.389 1_545  A
C97   C98   1.383 .      A
C98   C99   1.374 .      A
C99   C94   1.371 1_545  A
C99   N33   1.346 .      A
C102  N35   1.376 .      A
C102  N36   1.374 .      A
N35   C103  1.351 .      A
C103  C104  1.375 .      A
C103  C108  1.361 .      A
C104  C105  1.381 .      A
C105  C106  1.388 .      A
C106  C107  1.386 .      A
C107  C108  1.375 .      A
C108  N36   1.349 .      A
C111  N38   1.374 .      A
C111  N39   1.383 .      A
N38   C112  1.347 .      A
C112  C113  1.368 .      A
C112  C117  1.352 .      A
C113  C114  1.383 .      A
C114  C115  1.387 .      A
C115  C116  1.383 .      A
C116  C117  1.365 .      A
C117  N39   1.340 .      A
C120  N41   1.382 .      A
C120  N42   1.385 .      A
N41   C121  1.345 .      A
C121  C122  1.369 1_455  A
C121  C126  1.369 .      A
C122  C121  1.369 1_655  A
C122  C123  1.383 .      A
C123  C124  1.392 .      A
C124  C125  1.386 1_655  A
C125  C124  1.386 1_455  A
C125  C126  1.371 .      A
C126  N42   1.349 .      A
C129  N44   1.392 .      A
C129  N45   1.374 .      A
N44   C130  1.352 .      A
C130  C131  1.372 1_455  A
C130  C135  1.363 .      A
C131  C130  1.372 1_655  A
C131  C132  1.371 .      A
C132  C133  1.374 .      A
C133  C134  1.372 1_655  A
C134  C133  1.372 1_455  A
C134  C135  1.374 .      A
C135  N45   1.350 .      A
C138  N47   1.402 .      A
C138  N48   1.399 .      A
N47   C139  1.355 .      A
C139  C140  1.367 1_455  A
C139  C144  1.359 .      A
C140  C139  1.367 1_655  A
C140  C141  1.371 .      A
C141  C142  1.371 .      A
C142  C143  1.372 1_655  A
C143  C142  1.372 1_455  A
C143  C144  1.370 .      A
C144  N48   1.345 .      A
C147  N50   1.373 .      A
C147  N51   1.381 .      A
N50   C148  1.344 .      A
C148  C149  1.368 .      A
C148  C153  1.365 .      A
C149  C150  1.386 .      A
C150  C151  1.391 .      A
C151  C152  1.385 .      A
C152  C153  1.369 .      A
C153  N51   1.347 .      A
C156  N53   1.394 .      A
C156  N54   1.386 .      A
N53   C157  1.351 .      A
C157  C158  1.368 .      A
C157  C162  1.370 .      A
C158  C159  1.383 .      A
C159  C160  1.387 .      A
C160  C161  1.383 .      A
C161  C162  1.368 .      A
C162  N54   1.346 .      A
C165  N56   1.377 .      A
C165  N57   1.385 1_565  A
N56   C166  1.343 .      A
C166  C167  1.375 .      A
C166  C171  1.369 1_565  A
C167  C168  1.381 .      A
C168  C169  1.387 1_565  A
C169  C168  1.387 1_545  A
C169  C170  1.384 .      A
C170  C171  1.373 .      A
C171  C166  1.369 1_545  A
C171  N57   1.358 .      A
N57   C165  1.385 1_545  A
C174  N59   1.388 .      A
C174  N60   1.387 .      A
N59   C175  1.335 .      A
C175  C176  1.375 .      A
C175  C180  1.360 .      A
C176  C177  1.378 .      A
C177  C178  1.381 .      A
C178  C179  1.381 .      A
C179  C180  1.377 .      A
C180  N60   1.363 .      A
C183  N62   1.380 .      A
C183  N63   1.394 .      A
N62   C184  1.327 .      A
C184  C185  1.347 .      A
C184  C189  1.330 .      A
C185  C186  1.359 .      A
C186  C187  1.365 .      A
C187  C188  1.372 .      A
C188  C189  1.357 .      A
C189  N63   1.336 .      A
C192  N65   1.387 .      A
C192  N66   1.379 .      A
N65   C193  1.331 .      A
C193  C194  1.361 .      A
C193  C198  1.347 .      A
C194  C195  1.372 .      A
C195  C196  1.361 .      A
C196  C197  1.362 .      A
C197  C198  1.368 .      A
C198  N66   1.357 .      A
C201  N68   1.379 .      A
C201  N69   1.394 .      A
N68   C202  1.343 .      A
C202  C203  1.377 .      A
C202  C207  1.368 .      A
C203  C204  1.381 .      A
C204  C205  1.388 .      A
C205  C206  1.386 .      A
C206  C207  1.383 .      A
C207  N69   1.361 .      A
C210  N71   1.370 1_545  A
C210  N72   1.373 .      A
N71   C210  1.370 1_565  A
N71   C211  1.360 1_455  A
C211  N71   1.360 1_655  A
C211  C212  1.377 .      A
C211  C216  1.369 1_565  A
C212  C213  1.385 .      A
C213  C214  1.389 1_565  A
C214  C213  1.389 1_545  A
C214  C215  1.382 .      A
C215  C216  1.372 .      A
C216  C211  1.369 1_545  A
C216  N72   1.345 1_655  A
N72   C216  1.345 1_455  A
C219  N74   1.381 .      A
C219  N75   1.388 .      A
N74   C220  1.342 .      A
C220  C221  1.356 .      A
C220  C225  1.346 .      A
C221  C222  1.374 .      A
C222  C223  1.369 .      A
C223  C224  1.367 .      A
C224  C225  1.351 .      A
C225  N75   1.326 .      A
C228  N77   1.385 1_655  A
C228  N78   1.389 .      A
N77   C228  1.385 1_455  A
N77   C229  1.350 1_455  A
C229  N77   1.350 1_655  A
C229  C230  1.367 .      A
C229  C234  1.354 .      A
C230  C231  1.384 .      A
C231  C232  1.388 .      A
C232  C233  1.384 .      A
C233  C234  1.368 .      A
C234  N78   1.337 .      A
C237  N80   1.388 .      A
C237  N81   1.399 .      A
N80   C238  1.329 .      A
C238  C239  1.360 .      A
C238  C243  1.333 .      A
C239  C240  1.381 .      A
C240  C241  1.388 .      A
C241  C242  1.348 .      A
C242  C243  1.326 .      A
C243  N81   1.319 .      A
C246  N83   1.390 .      A
C246  N84   1.381 .      A
N83   C247  1.351 .      A
C247  C248  1.365 .      A
C247  C252  1.361 .      A
C248  C249  1.384 .      A
C249  C250  1.388 .      A
C250  C251  1.382 .      A
C251  C252  1.372 .      A
C252  N84   1.342 .      A
C255  N86   1.355 .      A
C255  N87   1.406 .      A
N86   C256  1.345 .      A
C256  C257  1.375 1_554  A
C256  C261  1.373 .      A
C257  C256  1.375 1_556  A
C257  C258  1.382 .      A
C258  C259  1.385 1_556  A
C259  C258  1.385 1_554  A
C259  C260  1.382 .      A
C260  C261  1.374 .      A
C261  N87   1.357 .      A
C264  N89   1.386 .      A
C264  N90   1.366 .      A
N89   C265  1.354 .      A
C265  C266  1.372 .      A
C265  C270  1.360 .      A
C266  C267  1.378 .      A
C267  C268  1.376 .      A
C268  C269  1.364 .      A
C269  C270  1.362 .      A
C270  N90   1.336 .      A
C273  N92   1.393 .      A
C273  N93   1.385 .      A
N92   C274  1.331 .      A
C274  C275  1.345 .      A
C274  C279  1.340 .      A
C275  C276  1.376 .      A
C276  C277  1.365 .      A
C277  C278  1.360 .      A
C278  C279  1.346 .      A
C279  N93   1.332 .      A
C282  N95   1.372 .      A
C282  N96   1.391 .      A
N95   C283  1.347 .      A
C283  C284  1.375 .      A
C283  C288  1.383 .      A
C284  C285  1.379 .      A
C285  C286  1.386 .      A
C286  C287  1.377 .      A
C287  C288  1.372 .      A
C288  N96   1.342 .      A
C291  N98   1.388 .      A
C291  N99   1.393 .      A
N98   C292  1.347 .      A
C292  C293  1.374 .      A
C292  C297  1.366 .      A
C293  C294  1.379 .      A
C294  C295  1.380 .      A
C295  C296  1.379 .      A
C296  C297  1.369 .      A
C297  N99   1.354 .      A
C300  N101  1.370 .      A
C300  N102  1.399 .      A
N101  C301  1.336 .      A
C301  C302  1.372 .      A
C301  C306  1.368 .      A
C302  C303  1.379 .      A
C303  C304  1.387 .      A
C304  C305  1.387 .      A
C305  C306  1.370 .      A
C306  N102  1.360 .      A
C309  N104  1.368 .      A
C309  N105  1.371 1_545  A
N104  C310  1.344 .      A
C310  C311  1.372 .      A
C310  C315  1.364 1_545  A
C311  C312  1.383 .      A
C312  C313  1.389 .      A
C313  C314  1.385 1_545  A
C314  C313  1.385 1_565  A
C314  C315  1.371 .      A
C315  C310  1.364 1_565  A
C315  N105  1.350 .      A
N105  C309  1.371 1_565  A
C318  N107  1.388 .      A
C318  N108  1.396 .      A
N107  C319  1.324 .      A
C319  C320  1.363 .      A
C319  C324  1.328 .      A
C320  C321  1.373 .      A
C321  C322  1.386 .      A
C322  C323  1.387 .      A
C323  C324  1.364 .      A
C324  N108  1.350 .      A
C327  N110  1.386 .      A
C327  N111  1.365 .      A
N110  C328  1.346 .      A
C328  C329  1.373 .      A
C328  C333  1.347 .      A
C329  C330  1.382 .      A
C330  C331  1.385 .      A
C331  C332  1.380 .      A
C332  C333  1.369 .      A
C333  N111  1.340 .      A
C336  N113  1.383 .      A
C336  N114  1.384 1_655  A
N113  C337  1.322 .      A
C337  C338  1.322 .      A
C337  C342  1.346 .      A
C338  C339  1.355 .      A
C339  C340  1.380 .      A
C340  C341  1.354 .      A
C341  C342  1.350 .      A
C342  N114  1.326 1_655  A
N114  C336  1.384 1_455  A
N114  C342  1.326 1_455  A
C345  N116  1.375 .      A
C345  N117  1.372 .      A
N116  C346  1.344 .      A
C346  C347  1.374 .      A
C346  C351  1.362 .      A
C347  C348  1.380 .      A
C348  C349  1.384 .      A
C349  C350  1.382 .      A
C350  C351  1.373 .      A
C351  N117  1.350 .      A
C354  N119  1.378 .      A
C354  N120  1.374 .      A
N119  C355  1.351 .      A
C355  C356  1.372 1_554  A
C355  C360  1.371 .      A
C356  C355  1.372 1_556  A
C356  C357  1.386 1_556  A
C357  C356  1.386 1_554  A
C357  C358  1.391 .      A
C358  C359  1.384 .      A
C359  C360  1.372 .      A
C360  N120  1.346 .      A
C363  N122  1.380 .      A
C363  N123  1.389 .      A
N122  C364  1.350 .      A
C364  C365  1.378 .      A
C364  C369  1.369 .      A
C365  C366  1.376 .      A
C366  C367  1.377 .      A
C367  C368  1.378 .      A
C368  C369  1.377 .      A
C369  N123  1.350 .      A
C372  N125  1.399 .      A
C372  N126  1.388 .      A
N125  C373  1.334 .      A
C373  C374  1.355 .      A
C373  C378  1.343 .      A
C374  C375  1.374 .      A
C375  C376  1.372 .      A
C376  C377  1.374 .      A
C377  C378  1.358 .      A
C378  N126  1.348 .      A
C381  N128  1.405 .      A
C381  N129  1.386 1_655  A
N128  C382  1.354 .      A
C382  C383  1.357 .      A
C382  C387  1.363 1_655  A
C383  C384  1.383 1_655  A
C384  C383  1.383 1_455  A
C384  C385  1.380 .      A
C385  C386  1.369 .      A
C386  C387  1.366 .      A
C387  C382  1.363 1_455  A
C387  N129  1.326 .      A
N129  C381  1.386 1_455  A
C390  N131  1.377 .      A
C390  N132  1.391 .      A
N131  C391  1.356 .      A
C391  C392  1.370 1_556  A
C391  C396  1.366 .      A
C392  C391  1.370 1_554  A
C392  C393  1.386 .      A
C393  C394  1.386 .      A
C394  C395  1.379 .      A
C395  C396  1.369 1_554  A
C396  C395  1.369 1_556  A
C396  N132  1.340 .      A
C399  N134  1.380 .      A
C399  N135  1.377 .      A
N134  C400  1.339 .      A
C400  C401  1.376 .      A
C400  C405  1.352 .      A
C401  C402  1.373 .      A
C402  C403  1.378 .      A
C403  C404  1.377 .      A
C404  C405  1.376 .      A
C405  N135  1.346 .      A
C408  N137  1.380 .      A
C408  N138  1.368 .      A
N137  C409  1.348 .      A
C409  C410  1.373 .      A
C409  C414  1.355 .      A
C410  C411  1.377 .      A
C411  C412  1.385 .      A
C412  C413  1.386 .      A
C413  C414  1.366 .      A
C414  N138  1.343 .      A
C417  N140  1.388 .      A
C417  N141  1.386 .      A
N140  C418  1.342 1_556  A
C418  N140  1.342 1_554  A
C418  C419  1.380 .      A
C418  C423  1.369 .      A
C419  C420  1.377 .      A
C420  C421  1.379 .      A
C421  C422  1.380 .      A
C422  C423  1.359 .      A
C423  N141  1.361 1_554  A
N141  C423  1.361 1_556  A
C426  N143  1.386 .      A
C426  N144  1.378 .      A
N143  C427  1.352 .      A
C427  C428  1.370 .      A
C427  C432  1.356 .      A
C428  C429  1.384 .      A
C429  C430  1.385 .      A
C430  C431  1.382 .      A
C431  C432  1.384 .      A
C432  N144  1.355 .      A
C435  N146  1.386 .      A
C435  N147  1.386 .      A
N146  C436  1.322 .      A
C436  C437  1.334 .      A
C436  C441  1.371 .      A
C437  C438  1.353 .      A
C438  C439  1.367 .      A
C439  C440  1.371 .      A
C440  C441  1.360 .      A
C441  N147  1.343 .      A
C444  N149  1.388 .      A
C444  N150  1.397 .      A
N149  C445  1.353 .      A
C445  C446  1.372 .      A
C445  C450  1.367 .      A
C446  C447  1.383 .      A
C447  C448  1.390 .      A
C448  C449  1.383 .      A
C449  C450  1.368 .      A
C450  N150  1.340 .      A
C453  N152  1.388 .      A
C453  N153  1.379 .      A
N152  C454  1.351 .      A
C454  C455  1.368 .      A
C454  C459  1.361 .      A
C455  C456  1.370 .      A
C456  C457  1.372 .      A
C457  C458  1.379 .      A
C458  C459  1.371 .      A
C459  N153  1.347 .      A
C462  N155  1.389 .      A
C462  N156  1.377 .      A
N155  C463  1.341 .      A
C463  C464  1.362 .      A
C463  C468  1.366 .      A
C464  C465  1.373 .      A
C465  C466  1.381 .      A
C466  C467  1.376 .      A
C467  C468  1.365 .      A
C468  N156  1.348 .      A
C471  N158  1.386 .      A
C471  N159  1.382 .      A
N158  C472  1.342 .      A
C472  C473  1.370 .      A
C472  C477  1.364 .      A
C473  C474  1.380 .      A
C474  C475  1.386 .      A
C475  C476  1.385 .      A
C476  C477  1.372 .      A
C477  N159  1.353 .      A
C480  N161  1.393 .      A
C480  N162  1.396 .      A
N161  C481  1.330 .      A
C481  C482  1.372 .      A
C481  C486  1.346 .      A
C482  C483  1.374 .      A
C483  C484  1.377 .      A
C484  C485  1.382 .      A
C485  C486  1.368 .      A
C486  N162  1.365 .      A
C489  N164  1.380 .      A
C489  N165  1.373 .      A
N164  C490  1.348 .      A
C490  C491  1.367 .      A
C490  C495  1.360 .      A
C491  C492  1.375 .      A
C492  C493  1.378 .      A
C493  C494  1.369 .      A
C494  C495  1.367 .      A
C495  N165  1.335 .      A
C498  N167  1.376 .      A
C498  N168  1.388 .      A
N167  C499  1.352 .      A
C499  C500  1.373 .      A
C499  C504  1.362 .      A
C500  C501  1.385 .      A
C501  C502  1.388 .      A
C502  C503  1.382 .      A
C503  C504  1.372 .      A
C504  N168  1.341 .      A
