data_str_m1_o12435_CGS
_audit_creation_date              2015-10-01T06:32:29-0700
_symmetry_space_group_name_H-M    P1
_symmetry_Int_Tables_number       1
_space_group_crystal_system       triclinic
loop_
_symmetry_equiv_pos_as_xyz
  x,y,z
_cell_length_a                    17.0002125
_cell_length_b                    29.7732560
_cell_length_c                    31.7023169
_cell_angle_alpha                 91.9862702
_cell_angle_beta                  88.5119842
_cell_angle_gamma                 93.6183339
_cell_volume                      16000.0228051

loop_
_atom_site_label
_atom_site_type_symbol
_atom_site_description
_atom_site_fract_x
_atom_site_fract_y
_atom_site_fract_z
_atom_type_partial_charge
Zn1   Zn    Zn3+2 0.371818 0.968882 0.826900 0.000000
Zn2   Zn    Zn3+2 0.252498 0.659287 0.332634 0.000000
Zn3   Zn    Zn3+2 0.249660 0.454998 0.334805 0.000000
Zn4   Zn    Zn3+2 0.345139 0.163058 0.796551 0.000000
Zn5   Zn    Zn3+2 0.156101 0.969826 0.977923 0.000000
Zn6   Zn    Zn3+2 0.983268 0.462950 0.001046 0.000000
Zn7   Zn    Zn3+2 0.869656 0.172400 0.635226 0.000000
Zn8   Zn    Zn3+2 0.770509 0.466499 0.143895 0.000000
Zn9   Zn    Zn3+2 0.763137 0.669355 0.137409 0.000000
Zn10  Zn    Zn3+2 0.886230 0.972129 0.640295 0.000000
Zn11  Zn    Zn3+2 0.478201 0.317320 0.600980 0.000000
Zn12  Zn    Zn3+2 0.964884 0.823396 0.865966 0.000000
Zn13  Zn    Zn3+2 0.174081 0.336061 0.100228 0.000000
Zn14  Zn    Zn3+2 0.665140 0.320001 0.350639 0.000000
Zn15  Zn    Zn3+2 0.674402 0.806723 0.355199 0.000000
Zn16  Zn    Zn3+2 0.186671 0.817420 0.110968 0.000000
Zn17  Zn    Zn3+2 0.967007 0.312085 0.855964 0.000000
Zn18  Zn    Zn3+2 0.469861 0.746939 0.209427 0.000000
Zn19  Zn    Zn3+2 0.155546 0.868687 0.710269 0.000000
Zn20  Zn    Zn3+2 0.966175 0.366242 0.256213 0.000000
Zn21  Zn    Zn3+2 0.656452 0.264887 0.754561 0.000000
Zn22  Zn    Zn3+2 0.670850 0.872229 0.766567 0.000000
Zn23  Zn    Zn3+2 0.976214 0.761498 0.258335 0.000000
Zn24  Zn    Zn3+2 0.644706 0.956868 0.501377 0.000000
Zn25  Zn    Zn3+2 0.473671 0.375752 0.204951 0.000000
Zn26  Zn    Zn3+2 0.137089 0.182013 0.958522 0.000000
Zn27  Zn    Zn3+2 0.998268 0.682686 0.002913 0.000000
Zn28  Zn    Zn3+2 0.486016 0.674377 0.466711 0.000000
Zn29  Zn    Zn3+2 0.494974 0.458682 0.460351 0.000000
Zn30  Zn    Zn3+2 0.161197 0.280771 0.696395 0.000000
Zn31  Zn    Zn3+2 0.643125 0.171435 0.491385 0.000000
Zn32  Zn    Zn3+2 0.476453 0.820197 0.615742 0.000000
Br1   Br    Br    0.380509 0.985410 0.651171 0.000000
C1    C     C_R   0.421485 0.022604 0.696513 0.000000
C2    C     C_R   0.442049 0.067599 0.690025 0.000000
C3    C     C_R   0.441940 0.098273 0.723881 0.000000
C4    C     C_R   0.422116 0.081706 0.762392 0.000000
N1    N     N_R   0.387339 0.103162 0.795010 0.000000
C5    C     C_R   0.374076 0.070522 0.823942 0.000000
N2    N     N_R   0.396540 0.029610 0.809163 0.000000
C6    C     C_R   0.422197 0.037301 0.769701 0.000000
C7    C     C_R   0.418939 0.006378 0.736784 0.000000
H1    H     H_    0.444047 0.079454 0.658268 0.000000
H2    H     H_    0.441978 0.133947 0.719311 0.000000
H3    H     H_    0.341165 0.075392 0.853178 0.000000
H4    H     H_    0.405802 0.971147 0.741816 0.000000
Br2   Br    Br    0.326475 0.508144 0.166449 0.000000
C8    C     C_R   0.269857 0.535190 0.211162 0.000000
C9    C     C_R   0.257450 0.580748 0.210861 0.000000
C10   C     C_R   0.232588 0.602699 0.247333 0.000000
C11   C     C_R   0.226537 0.578405 0.283410 0.000000
N3    N     N_R   0.225624 0.594925 0.323198 0.000000
C12   C     C_R   0.233495 0.557880 0.346914 0.000000
N4    N     N_R   0.241102 0.519401 0.322589 0.000000
C13   C     C_R   0.235985 0.533604 0.283029 0.000000
C14   C     C_R   0.252533 0.510409 0.246416 0.000000
H5    H     H_    0.271302 0.599524 0.182758 0.000000
H6    H     H_    0.225640 0.638488 0.247995 0.000000
H7    H     H_    0.240486 0.559530 0.380738 0.000000
H8    H     H_    0.260667 0.475017 0.245579 0.000000
Br3   Br    Br    0.286298 0.070885 0.608364 0.000000
C15   C     C_R   0.273817 0.125023 0.640701 0.000000
C16   C     C_R   0.238823 0.158939 0.621145 0.000000
C17   C     C_R   0.222828 0.197782 0.643271 0.000000
C18   C     C_R   0.238724 0.199952 0.685335 0.000000
N5    N     N_R   0.212357 0.229658 0.713617 0.000000
C19   C     C_R   0.238806 0.216406 0.750897 0.000000
N6    N     N_R   0.283132 0.179748 0.746712 0.000000
C20   C     C_R   0.278228 0.168831 0.704794 0.000000
C21   C     C_R   0.293221 0.129564 0.683082 0.000000
H9    H     H_    0.218757 0.153268 0.589367 0.000000
H10   H     H_    0.193551 0.224001 0.628509 0.000000
H11   H     H_    0.224256 0.232846 0.780467 0.000000
H12   H     H_    0.307137 0.100937 0.699777 0.000000
Br4   Br    Br    0.432986 0.100492 0.023441 0.000000
C22   C     C_R   0.407823 0.057156 0.979413 0.000000
C23   C     C_R   0.459391 0.052720 0.945020 0.000000
C24   C     C_R   0.440229 0.022788 0.912019 0.000000
C25   C     C_R   0.370725 0.996974 0.915502 0.000000
N7    N     N_R   0.337733 0.969157 0.886029 0.000000
C26   C     C_R   0.268297 0.953646 0.904421 0.000000
N8    N     N_R   0.255211 0.972974 0.943380 0.000000
C27   C     C_R   0.321174 0.000021 0.949533 0.000000
C28   C     C_R   0.337383 0.031157 0.981550 0.000000
H13   H     H_    0.513734 0.073573 0.943554 0.000000
H14   H     H_    0.478641 0.019949 0.884486 0.000000
H15   H     H_    0.224806 0.932439 0.887882 0.000000
H16   H     H_    0.296238 0.036735 0.006864 0.000000
Br5   Br    Br    0.553895 0.372985 0.008870 0.000000
C29   C     C_R   0.659931 0.396746 0.014396 0.000000
C30   C     C_R   0.703619 0.407787 0.978231 0.000000
C31   C     C_R   0.780750 0.425016 0.980997 0.000000
C32   C     C_R   0.812319 0.430475 0.020342 0.000000
N9    N     N_R   0.885211 0.446470 0.030782 0.000000
C33   C     C_R   0.881040 0.450853 0.073362 0.000000
N10   N     N_R   0.808145 0.439521 0.089941 0.000000
C34   C     C_R   0.767193 0.424223 0.055906 0.000000
C35   C     C_R   0.691506 0.405210 0.054012 0.000000
H17   H     H_    0.677067 0.402929 0.947659 0.000000
H18   H     H_    0.813045 0.435511 0.953113 0.000000
H19   H     H_    0.930724 0.463450 0.091077 0.000000
H20   H     H_    0.657814 0.396607 0.082192 0.000000
Br6   Br    Br    0.773616 0.362539 0.653293 0.000000
C36   C     C_R   0.864827 0.330812 0.659065 0.000000
C37   C     C_R   0.931795 0.354954 0.672997 0.000000
C38   C     C_R   0.000890 0.334022 0.676482 0.000000
C39   C     C_R   0.000892 0.289004 0.666298 0.000000
N11   N     N_R   0.062388 0.262723 0.665842 0.000000
C40   C     C_R   0.031205 0.222701 0.649564 0.000000
N12   N     N_R   0.951693 0.222248 0.643922 0.000000
C41   C     C_R   0.935362 0.265198 0.652733 0.000000
C42   C     C_R   0.865611 0.285277 0.648333 0.000000
H21   H     H_    0.930457 0.390728 0.679852 0.000000
H22   H     H_    0.054279 0.353465 0.683251 0.000000
H23   H     H_    0.065497 0.194345 0.642524 0.000000
H24   H     H_    0.813857 0.266680 0.636287 0.000000
Br7   Br    Br    0.085805 0.164746 0.483831 0.000000
C43   C     C_R   0.974733 0.161596 0.494502 0.000000
C44   C     C_R   0.923551 0.157993 0.460764 0.000000
C45   C     C_R   0.843155 0.161464 0.467366 0.000000
C46   C     C_R   0.816807 0.168603 0.508128 0.000000
N13   N     N_R   0.743315 0.176239 0.522084 0.000000
C47   C     C_R   0.751389 0.182316 0.564617 0.000000
N14   N     N_R   0.825955 0.176087 0.577686 0.000000
C48   C     C_R   0.866208 0.169109 0.541261 0.000000
C49   C     C_R   0.945803 0.165534 0.535635 0.000000
H25   H     H_    0.947131 0.154341 0.428921 0.000000
H26   H     H_    0.803495 0.160498 0.441243 0.000000
H27   H     H_    0.703281 0.191070 0.585382 0.000000
H28   H     H_    0.984907 0.168178 0.562064 0.000000
Br8   Br    Br    0.194222 0.031206 0.708091 0.000000
C50   C     C_R   0.110451 0.061450 0.685476 0.000000
C51   C     C_R   0.099769 0.106616 0.694853 0.000000
C52   C     C_R   0.031695 0.125830 0.683706 0.000000
C53   C     C_R   0.979617 0.100644 0.659149 0.000000
N15   N     N_R   0.910503 0.111844 0.643529 0.000000
C54   C     C_R   0.873918 0.070884 0.633446 0.000000
N16   N     N_R   0.918339 0.035796 0.641914 0.000000
C55   C     C_R   0.985840 0.055635 0.655425 0.000000
C56   C     C_R   0.051104 0.035246 0.667058 0.000000
H29   H     H_    0.139564 0.125442 0.715453 0.000000
H30   H     H_    0.017091 0.157694 0.697774 0.000000
H31   H     H_    0.815403 0.066272 0.621110 0.000000
H32   H     H_    0.056690 0.999878 0.663264 0.000000
Br9   Br    Br    0.100732 0.533719 0.150807 0.000000
C57   C     C_R   0.002456 0.559584 0.144985 0.000000
C58   C     C_R   0.999261 0.605634 0.141660 0.000000
C59   C     C_R   0.927424 0.624304 0.138327 0.000000
C60   C     C_R   0.860212 0.595868 0.136475 0.000000
N17   N     N_R   0.784313 0.606429 0.134984 0.000000
C61   C     C_R   0.742857 0.565893 0.136098 0.000000
N18   N     N_R   0.790842 0.530977 0.138163 0.000000
C62   C     C_R   0.864009 0.551010 0.138296 0.000000
C63   C     C_R   0.934261 0.532013 0.144438 0.000000
H33   H     H_    0.052928 0.627118 0.142400 0.000000
H34   H     H_    0.925942 0.660120 0.136142 0.000000
H35   H     H_    0.679288 0.562225 0.137445 0.000000
H36   H     H_    0.937201 0.496918 0.150523 0.000000
Br10  Br    Br    0.671169 0.475411 0.764171 0.000000
C64   C     C_R   0.628514 0.428009 0.728092 0.000000
C65   C     C_R   0.581398 0.438177 0.694902 0.000000
C66   C     C_R   0.550619 0.404463 0.667791 0.000000
C67   C     C_R   0.567895 0.361068 0.675134 0.000000
N19   N     N_R   0.545772 0.323507 0.652575 0.000000
C68   C     C_R   0.578134 0.290444 0.673884 0.000000
N20   N     N_R   0.618259 0.305705 0.709332 0.000000
C69   C     C_R   0.611979 0.350713 0.708530 0.000000
C70   C     C_R   0.644563 0.383858 0.735204 0.000000
H37   H     H_    0.569230 0.472795 0.690035 0.000000
H38   H     H_    0.514302 0.412190 0.641881 0.000000
H39   H     H_    0.571460 0.256144 0.663036 0.000000
H40   H     H_    0.681989 0.375986 0.760639 0.000000
Br11  Br    Br    0.067067 0.347358 0.531306 0.000000
C71   C     C_R   0.163536 0.339114 0.558491 0.000000
C72   C     C_R   0.233048 0.338194 0.535021 0.000000
C73   C     C_R   0.303128 0.331301 0.554288 0.000000
C74   C     C_R   0.302712 0.328522 0.597401 0.000000
N21   N     N_R   0.362914 0.318224 0.621474 0.000000
C75   C     C_R   0.325539 0.307837 0.659250 0.000000
N22   N     N_R   0.245176 0.311678 0.659018 0.000000
C76   C     C_R   0.233480 0.325755 0.619895 0.000000
C77   C     C_R   0.163119 0.331252 0.601076 0.000000
H41   H     H_    0.231527 0.341681 0.501396 0.000000
H42   H     H_    0.355582 0.325401 0.535640 0.000000
H43   H     H_    0.355296 0.294095 0.685147 0.000000
H44   H     H_    0.108723 0.329941 0.618342 0.000000
Br12  Br    Br    0.303379 0.108918 0.486674 0.000000
C78   C     C_R   0.363543 0.157211 0.513884 0.000000
C79   C     C_R   0.325824 0.191756 0.534451 0.000000
C80   C     C_R   0.368430 0.225139 0.556953 0.000000
C81   C     C_R   0.449155 0.226560 0.553807 0.000000
N23   N     N_R   0.502133 0.258946 0.567980 0.000000
C82   C     C_R   0.572455 0.244072 0.551990 0.000000
N24   N     N_R   0.564169 0.203877 0.529139 0.000000
C83   C     C_R   0.486011 0.193994 0.531307 0.000000
C84   C     C_R   0.444686 0.157793 0.513165 0.000000
H45   H     H_    0.262440 0.192130 0.533650 0.000000
H46   H     H_    0.337802 0.249134 0.575437 0.000000
H47   H     H_    0.628316 0.263087 0.555284 0.000000
H48   H     H_    0.474235 0.130338 0.499440 0.000000
Br13  Br    Br    0.817491 0.462771 0.521346 0.000000
C85   C     C_R   0.720935 0.428274 0.531345 0.000000
C86   C     C_R   0.719847 0.389836 0.554973 0.000000
C87   C     C_R   0.648900 0.368043 0.567550 0.000000
C88   C     C_R   0.580791 0.384611 0.554016 0.000000
N25   N     N_R   0.505668 0.369895 0.562488 0.000000
C89   C     C_R   0.463650 0.397009 0.538131 0.000000
N26   N     N_R   0.510289 0.425922 0.514169 0.000000
C90   C     C_R   0.583024 0.418791 0.526684 0.000000
C91   C     C_R   0.651771 0.442472 0.516064 0.000000
H49   H     H_    0.775022 0.377862 0.564573 0.000000
H50   H     H_    0.647535 0.339054 0.587077 0.000000
H51   H     H_    0.400750 0.395612 0.536256 0.000000
H52   H     H_    0.651400 0.472765 0.498697 0.000000
Br14  Br    Br    0.942351 0.697462 0.663650 0.000000
C92   C     C_R   0.960433 0.738041 0.710838 0.000000
C93   C     C_R   0.918924 0.730278 0.748472 0.000000
C94   C     C_R   0.933678 0.757706 0.783824 0.000000
C95   C     C_R   0.990899 0.792149 0.780348 0.000000
N27   N     N_R   0.018739 0.820421 0.811211 0.000000
C96   C     C_R   0.080780 0.843447 0.792480 0.000000
N28   N     N_R   0.088978 0.832697 0.750325 0.000000
C97   C     C_R   0.031909 0.799767 0.743836 0.000000
C98   C     C_R   0.016366 0.773946 0.707889 0.000000
H53   H     H_    0.875933 0.702036 0.750371 0.000000
H54   H     H_    0.903741 0.750675 0.813536 0.000000
H55   H     H_    0.118293 0.867772 0.809582 0.000000
H56   H     H_    0.049437 0.779814 0.678818 0.000000
Br15  Br    Br    0.536797 0.791385 0.931063 0.000000
C99   C     C_R   0.637504 0.797035 0.903252 0.000000
C100  C     C_R   0.702108 0.780281 0.921536 0.000000
C101  C     C_R   0.776234 0.787819 0.903413 0.000000
C102  C     C_R   0.783322 0.809959 0.866176 0.000000
N29   N     N_R   0.850134 0.825718 0.846628 0.000000
C103  C     C_R   0.822334 0.846201 0.812010 0.000000
N30   N     N_R   0.741189 0.844590 0.810323 0.000000
C104  C     C_R   0.719069 0.822981 0.846047 0.000000
C105  C     C_R   0.646108 0.819290 0.865700 0.000000
H57   H     H_    0.695057 0.763269 0.951103 0.000000
H58   H     H_    0.826596 0.777109 0.918543 0.000000
H59   H     H_    0.860597 0.863154 0.789020 0.000000
H60   H     H_    0.597885 0.836261 0.854895 0.000000
Br16  Br    Br    0.822429 0.003347 0.015931 0.000000
C106  C     C_R   0.875961 0.964829 0.977193 0.000000
C107  C     C_R   0.833074 0.933478 0.952374 0.000000
C108  C     C_R   0.871214 0.903823 0.925658 0.000000
C109  C     C_R   0.952209 0.906227 0.924240 0.000000
N31   N     N_R   0.001041 0.879022 0.902806 0.000000
C110  C     C_R   0.074330 0.895646 0.915914 0.000000
N32   N     N_R   0.071923 0.932395 0.943732 0.000000
C111  C     C_R   0.994096 0.937597 0.948224 0.000000
C112  C     C_R   0.957355 0.967261 0.974865 0.000000
H61   H     H_    0.769388 0.931680 0.954422 0.000000
H62   H     H_    0.837158 0.879619 0.907327 0.000000
H63   H     H_    0.127870 0.879728 0.906954 0.000000
H64   H     H_    0.990536 0.991107 0.994075 0.000000
Br17  Br    Br    0.218853 0.697677 0.801721 0.000000
C113  C     C_R   0.141439 0.698582 0.845960 0.000000
C114  C     C_R   0.136161 0.664116 0.874275 0.000000
C115  C     C_R   0.086379 0.666613 0.909138 0.000000
C116  C     C_R   0.042368 0.703525 0.914199 0.000000
N33   N     N_R   0.997848 0.714824 0.947945 0.000000
C117  C     C_R   0.966618 0.753788 0.936203 0.000000
N34   N     N_R   0.990773 0.767108 0.896744 0.000000
C118  C     C_R   0.040978 0.735252 0.884389 0.000000
C119  C     C_R   0.093198 0.734299 0.850431 0.000000
H65   H     H_    0.173411 0.636128 0.869964 0.000000
H66   H     H_    0.082977 0.640327 0.931637 0.000000
H67   H     H_    0.928974 0.773110 0.956229 0.000000
H68   H     H_    0.101668 0.761138 0.828987 0.000000
Br18  Br    Br    0.128968 0.149955 0.166942 0.000000
C120  C     C_R   0.087156 0.207015 0.179187 0.000000
C121  C     C_R   0.032496 0.211745 0.212197 0.000000
C122  C     C_R   0.005586 0.253571 0.223503 0.000000
C123  C     C_R   0.035203 0.289975 0.201442 0.000000
N35   N     N_R   0.023728 0.334121 0.208687 0.000000
C124  C     C_R   0.065073 0.354227 0.175953 0.000000
N36   N     N_R   0.101881 0.324271 0.149518 0.000000
C125  C     C_R   0.083534 0.284459 0.166958 0.000000
C126  C     C_R   0.112039 0.243617 0.155451 0.000000
H69   H     H_    0.011767 0.182614 0.229689 0.000000
H70   H     H_    0.962040 0.256809 0.248318 0.000000
H71   H     H_    0.070023 0.390233 0.172083 0.000000
H72   H     H_    0.154505 0.240368 0.129790 0.000000
Br19  Br    Br    0.590796 0.265423 0.057021 0.000000
C127  C     C_R   0.491514 0.283887 0.078129 0.000000
C128  C     C_R   0.422242 0.263822 0.062146 0.000000
C129  C     C_R   0.349835 0.278229 0.076011 0.000000
C130  C     C_R   0.348480 0.313060 0.105709 0.000000
N37   N     N_R   0.286847 0.335323 0.122391 0.000000
C131  C     C_R   0.319704 0.357648 0.156838 0.000000
N38   N     N_R   0.398773 0.351336 0.160581 0.000000
C132  C     C_R   0.415482 0.325753 0.126448 0.000000
C133  C     C_R   0.488384 0.315359 0.111060 0.000000
H73   H     H_    0.424780 0.236862 0.038511 0.000000
H74   H     H_    0.297442 0.259765 0.065766 0.000000
H75   H     H_    0.286980 0.378842 0.178362 0.000000
H76   H     H_    0.541617 0.330596 0.124745 0.000000
Br20  Br    Br    0.392837 0.320103 0.907422 0.000000
C134  C     C_R   0.314360 0.314527 0.950771 0.000000
C135  C     C_R   0.314682 0.347108 0.982814 0.000000
C136  C     C_R   0.263400 0.342184 0.016776 0.000000
C137  C     C_R   0.214514 0.303782 0.018373 0.000000
N39   N     N_R   0.168829 0.290498 0.051342 0.000000
C138  C     C_R   0.140688 0.247926 0.038397 0.000000
N40   N     N_R   0.169708 0.234502 0.999130 0.000000
C139  C     C_R   0.215505 0.271015 0.987665 0.000000
C140  C     C_R   0.262178 0.276904 0.952127 0.000000
H77   H     H_    0.356941 0.375763 0.981849 0.000000
H78   H     H_    0.267539 0.365953 0.042835 0.000000
H79   H     H_    0.099856 0.227405 0.057206 0.000000
H80   H     H_    0.260734 0.252785 0.926706 0.000000
Br21  Br    Br    0.283258 0.575448 0.029942 0.000000
C141  C     C_R   0.239595 0.518342 0.047015 0.000000
C142  C     C_R   0.284822 0.490539 0.068886 0.000000
C143  C     C_R   0.255089 0.448339 0.081227 0.000000
C144  C     C_R   0.179284 0.435155 0.070756 0.000000
N41   N     N_R   0.140258 0.394609 0.075576 0.000000
C145  C     C_R   0.070841 0.399627 0.055386 0.000000
N42   N     N_R   0.066314 0.441324 0.038526 0.000000
C146  C     C_R   0.135254 0.462676 0.048818 0.000000
C147  C     C_R   0.163951 0.504317 0.036504 0.000000
H81   H     H_    0.343784 0.502825 0.076375 0.000000
H82   H     H_    0.290727 0.426341 0.097676 0.000000
H83   H     H_    0.025718 0.372674 0.051442 0.000000
H84   H     H_    0.130878 0.524726 0.017259 0.000000
Br22  Br    Br    0.073794 0.239530 0.379021 0.000000
C148  C     C_R   0.976212 0.261829 0.363826 0.000000
C149  C     C_R   0.910295 0.255311 0.390141 0.000000
C150  C     C_R   0.839355 0.272309 0.380409 0.000000
C151  C     C_R   0.835572 0.294705 0.343502 0.000000
N43   N     N_R   0.776951 0.319092 0.330521 0.000000
C152  C     C_R   0.809264 0.339827 0.295735 0.000000
N44   N     N_R   0.885544 0.329758 0.287460 0.000000
C153  C     C_R   0.900164 0.300812 0.317545 0.000000
C154  C     C_R   0.972166 0.286047 0.327627 0.000000
H85   H     H_    0.915351 0.238591 0.419473 0.000000
H86   H     H_    0.791126 0.270438 0.402763 0.000000
H87   H     H_    0.779368 0.364119 0.278500 0.000000
H88   H     H_    0.024440 0.293791 0.308473 0.000000
Br23  Br    Br    0.898606 0.491794 0.371389 0.000000
C155  C     C_R   0.792303 0.473237 0.383855 0.000000
C156  C     C_R   0.749022 0.503332 0.407346 0.000000
C157  C     C_R   0.672387 0.492052 0.418945 0.000000
C158  C     C_R   0.642154 0.449815 0.408027 0.000000
N45   N     N_R   0.571999 0.431302 0.419942 0.000000
C159  C     C_R   0.572622 0.388076 0.403157 0.000000
N46   N     N_R   0.641248 0.379249 0.381694 0.000000
C160  C     C_R   0.683946 0.419243 0.385393 0.000000
C161  C     C_R   0.759782 0.430731 0.371824 0.000000
H89   H     H_    0.776202 0.535474 0.417533 0.000000
H90   H     H_    0.639412 0.514870 0.438224 0.000000
H91   H     H_    0.524865 0.362926 0.406936 0.000000
H92   H     H_    0.793598 0.407418 0.353774 0.000000
Br24  Br    Br    0.566993 0.140841 0.265165 0.000000
C162  C     C_R   0.606606 0.161774 0.318496 0.000000
C163  C     C_R   0.635838 0.131433 0.345400 0.000000
C164  C     C_R   0.654979 0.145033 0.386170 0.000000
C165  C     C_R   0.646055 0.189156 0.398172 0.000000
N47   N     N_R   0.651237 0.208315 0.437045 0.000000
C166  C     C_R   0.648523 0.253701 0.429166 0.000000
N48   N     N_R   0.640355 0.262492 0.386888 0.000000
C167  C     C_R   0.633276 0.220457 0.369323 0.000000
C168  C     C_R   0.605522 0.206941 0.330410 0.000000
H93   H     H_    0.639364 0.096550 0.335301 0.000000
H94   H     H_    0.676441 0.121591 0.407564 0.000000
H95   H     H_    0.655135 0.279874 0.453538 0.000000
H96   H     H_    0.577056 0.229747 0.311276 0.000000
Br25  Br    Br    0.631402 0.195995 0.143846 0.000000
C169  C     C_R   0.634837 0.238567 0.190112 0.000000
C170  C     C_R   0.687833 0.233798 0.221825 0.000000
C171  C     C_R   0.684661 0.260358 0.258272 0.000000
C172  C     C_R   0.629110 0.292124 0.261437 0.000000
N49   N     N_R   0.611071 0.318822 0.295092 0.000000
C173  C     C_R   0.558031 0.346210 0.279323 0.000000
N50   N     N_R   0.540426 0.336142 0.237868 0.000000
C174  C     C_R   0.584012 0.300645 0.228225 0.000000
C175  C     C_R   0.582634 0.272516 0.192976 0.000000
H97   H     H_    0.728460 0.207280 0.219179 0.000000
H98   H     H_    0.721929 0.254011 0.284060 0.000000
H99   H     H_    0.534928 0.374198 0.297237 0.000000
H100  H     H_    0.537963 0.273667 0.170174 0.000000
Br26  Br    Br    0.569845 0.939823 0.171134 0.000000
C176  C     C_R   0.578850 0.900372 0.216591 0.000000
C177  C     C_R   0.617558 0.915911 0.252925 0.000000
C178  C     C_R   0.626886 0.887448 0.285870 0.000000
C179  C     C_R   0.596512 0.843852 0.281367 0.000000
N51   N     N_R   0.601581 0.809794 0.307856 0.000000
C180  C     C_R   0.562649 0.774220 0.287323 0.000000
N52   N     N_R   0.534145 0.785252 0.249337 0.000000
C181  C     C_R   0.557268 0.829021 0.246241 0.000000
C182  C     C_R   0.547508 0.856352 0.213051 0.000000
H101  H     H_    0.640985 0.950483 0.255373 0.000000
H102  H     H_    0.655413 0.899527 0.314314 0.000000
H103  H     H_    0.558007 0.740444 0.298973 0.000000
H104  H     H_    0.517822 0.843865 0.184879 0.000000
Br27  Br    Br    0.806544 0.617497 0.487750 0.000000
C183  C     C_R   0.758340 0.657174 0.451758 0.000000
C184  C     C_R   0.804638 0.683767 0.424574 0.000000
C185  C     C_R   0.770725 0.712665 0.398069 0.000000
C186  C     C_R   0.690569 0.716953 0.401720 0.000000
N53   N     N_R   0.645974 0.748160 0.385521 0.000000
C187  C     C_R   0.572211 0.736911 0.402221 0.000000
N54   N     N_R   0.570228 0.700717 0.427980 0.000000
C188  C     C_R   0.645419 0.689585 0.427529 0.000000
C189  C     C_R   0.677416 0.659283 0.452728 0.000000
H105  H     H_    0.867820 0.681220 0.423446 0.000000
H106  H     H_    0.807789 0.731285 0.376078 0.000000
H107  H     H_    0.521974 0.756690 0.398039 0.000000
H108  H     H_    0.641250 0.638878 0.473840 0.000000
Br28  Br    Br    0.018968 0.964723 0.291899 0.000000
C190  C     C_R   0.941997 0.917486 0.304639 0.000000
C191  C     C_R   0.873470 0.927242 0.326932 0.000000
C192  C     C_R   0.816493 0.893467 0.336130 0.000000
C193  C     C_R   0.829929 0.850081 0.322773 0.000000
N55   N     N_R   0.782399 0.812185 0.326637 0.000000
C194  C     C_R   0.825092 0.779974 0.306942 0.000000
N56   N     N_R   0.897634 0.796089 0.292145 0.000000
C195  C     C_R   0.898076 0.840499 0.301935 0.000000
C196  C     C_R   0.954782 0.873667 0.291706 0.000000
H109  H     H_    0.864232 0.961619 0.336963 0.000000
H110  H     H_    0.763751 0.901819 0.353146 0.000000
H111  H     H_    0.802052 0.745759 0.302927 0.000000
H112  H     H_    0.008125 0.865899 0.274457 0.000000
Br29  Br    Br    0.903919 0.838908 0.535604 0.000000
C197  C     C_R   0.832086 0.844850 0.492049 0.000000
C198  C     C_R   0.839521 0.817928 0.456434 0.000000
C199  C     C_R   0.786490 0.819975 0.425043 0.000000
C200  C     C_R   0.730396 0.850798 0.428417 0.000000
N57   N     N_R   0.673118 0.855901 0.401113 0.000000
C201  C     C_R   0.636153 0.892327 0.418643 0.000000
N58   N     N_R   0.668871 0.908713 0.456042 0.000000
C202  C     C_R   0.726639 0.880269 0.461477 0.000000
C203  C     C_R   0.773616 0.875144 0.495644 0.000000
H113  H     H_    0.885082 0.794178 0.453864 0.000000
H114  H     H_    0.790989 0.798423 0.398278 0.000000
H115  H     H_    0.584987 0.905515 0.405200 0.000000
H116  H     H_    0.763974 0.891058 0.525505 0.000000
Br30  Br    Br    0.333452 0.878409 0.325012 0.000000
C204  C     C_R   0.310874 0.855680 0.269486 0.000000
C205  C     C_R   0.249838 0.872286 0.247836 0.000000
C206  C     C_R   0.234491 0.857199 0.206997 0.000000
C207  C     C_R   0.282898 0.826485 0.188099 0.000000
N59   N     N_R   0.279906 0.808191 0.148525 0.000000
C208  C     C_R   0.342039 0.780648 0.147237 0.000000
N60   N     N_R   0.382218 0.781159 0.184566 0.000000
C209  C     C_R   0.343136 0.810529 0.209281 0.000000
C210  C     C_R   0.356911 0.823659 0.250627 0.000000
H117  H     H_    0.214466 0.897496 0.262835 0.000000
H118  H     H_    0.188529 0.871548 0.190101 0.000000
H119  H     H_    0.355453 0.759643 0.120102 0.000000
H120  H     H_    0.401608 0.809736 0.268542 0.000000
Br31  Br    Br    0.916963 0.943718 0.106497 0.000000
C211  C     C_R   0.944883 0.894826 0.138955 0.000000
C212  C     C_R   0.894820 0.879605 0.171438 0.000000
C213  C     C_R   0.914734 0.844634 0.195848 0.000000
C214  C     C_R   0.987048 0.827420 0.188395 0.000000
N61   N     N_R   0.020689 0.795119 0.209216 0.000000
C215  C     C_R   0.087501 0.788129 0.185698 0.000000
N62   N     N_R   0.097160 0.815765 0.152067 0.000000
C216  C     C_R   0.033583 0.840420 0.154947 0.000000
C217  C     C_R   0.014162 0.874211 0.129529 0.000000
H121  H     H_    0.839633 0.895047 0.177581 0.000000
H122  H     H_    0.873992 0.831519 0.219540 0.000000
H123  H     H_    0.128210 0.763106 0.192745 0.000000
H124  H     H_    0.051400 0.885024 0.103433 0.000000
Br32  Br    Br    0.359363 0.983220 0.185482 0.000000
C218  C     C_R   0.297965 0.969601 0.136720 0.000000
C219  C     C_R   0.276230 0.004161 0.112187 0.000000
C220  C     C_R   0.234501 0.994562 0.075814 0.000000
C221  C     C_R   0.213852 0.950340 0.065386 0.000000
N63   N     N_R   0.176017 0.933564 0.030948 0.000000
C222  C     C_R   0.164997 0.888227 0.039317 0.000000
N64   N     N_R   0.195583 0.876850 0.077303 0.000000
C223  C     C_R   0.228324 0.916772 0.091747 0.000000
C224  C     C_R   0.274328 0.925392 0.126341 0.000000
H125  H     H_    0.293051 0.038725 0.121169 0.000000
H126  H     H_    0.216138 0.021426 0.057536 0.000000
H127  H     H_    0.134812 0.863974 0.018245 0.000000
H128  H     H_    0.295495 0.898773 0.143657 0.000000
Br33  Br    Br    0.340345 0.661285 0.941219 0.000000
C225  C     C_R   0.286578 0.695340 0.983673 0.000000
C226  C     C_R   0.327007 0.730829 0.005145 0.000000
C227  C     C_R   0.289106 0.755857 0.036192 0.000000
C228  C     C_R   0.210979 0.744430 0.044549 0.000000
N65   N     N_R   0.162278 0.765071 0.071814 0.000000
C229  C     C_R   0.090546 0.743061 0.064630 0.000000
N66   N     N_R   0.093044 0.709850 0.033630 0.000000
C230  C     C_R   0.170271 0.710933 0.022364 0.000000
C231  C     C_R   0.207278 0.685002 0.992297 0.000000
H129  H     H_    0.388525 0.738884 0.997565 0.000000
H130  H     H_    0.319554 0.784028 0.052458 0.000000
H131  H     H_    0.036989 0.752701 0.080431 0.000000
H132  H     H_    0.176910 0.656584 0.976849 0.000000
Br34  Br    Br    0.568658 0.262919 0.939876 0.000000
C232  C     C_R   0.659585 0.283415 0.908068 0.000000
C233  C     C_R   0.729366 0.294814 0.928423 0.000000
C234  C     C_R   0.797194 0.305493 0.905173 0.000000
C235  C     C_R   0.792579 0.306165 0.861997 0.000000
N67   N     N_R   0.853875 0.308281 0.834553 0.000000
C236  C     C_R   0.818690 0.299352 0.796080 0.000000
N68   N     N_R   0.737824 0.290866 0.799141 0.000000
C237  C     C_R   0.724055 0.295133 0.841499 0.000000
C238  C     C_R   0.656660 0.283103 0.864527 0.000000
H133  H     H_    0.731659 0.292911 0.962354 0.000000
H134  H     H_    0.853197 0.309292 0.920418 0.000000
H135  H     H_    0.852118 0.295797 0.766862 0.000000
H136  H     H_    0.603143 0.271214 0.850412 0.000000
Br35  Br    Br    0.046186 0.498791 0.798209 0.000000
C239  C     C_R   0.075982 0.439813 0.782251 0.000000
C240  C     C_R   0.130557 0.434086 0.749361 0.000000
C241  C     C_R   0.150762 0.391392 0.736301 0.000000
C242  C     C_R   0.116640 0.355484 0.757660 0.000000
N69   N     N_R   0.122368 0.311355 0.748601 0.000000
C243  C     C_R   0.075211 0.290802 0.778929 0.000000
N70   N     N_R   0.039915 0.320703 0.805857 0.000000
C244  C     C_R   0.065705 0.361082 0.790915 0.000000
C245  C     C_R   0.042203 0.403013 0.803150 0.000000
H137  H     H_    0.156029 0.463126 0.733247 0.000000
H138  H     H_    0.191051 0.386497 0.709864 0.000000
H139  H     H_    0.063719 0.254724 0.780060 0.000000
H140  H     H_    0.997494 0.407448 0.827412 0.000000
Br36  Br    Br    0.298164 0.466100 0.935529 0.000000
C246  C     C_R   0.202587 0.431699 0.923361 0.000000
C247  C     C_R   0.204347 0.392612 0.898433 0.000000
C248  C     C_R   0.135299 0.368343 0.887147 0.000000
C249  C     C_R   0.065417 0.383460 0.902983 0.000000
N71   N     N_R   0.991544 0.364964 0.897924 0.000000
C250  C     C_R   0.948509 0.389817 0.926582 0.000000
N72   N     N_R   0.992869 0.423467 0.947619 0.000000
C251  C     C_R   0.065133 0.419135 0.930824 0.000000
C252  C     C_R   0.131971 0.445100 0.940173 0.000000
H141  H     H_    0.260613 0.381300 0.887953 0.000000
H142  H     H_    0.137301 0.337853 0.867901 0.000000
H143  H     H_    0.887554 0.381572 0.933716 0.000000
H144  H     H_    0.129168 0.475436 0.959244 0.000000
Br37  Br    Br    0.784883 0.107145 0.963322 0.000000
C253  C     C_R   0.849088 0.152157 0.935404 0.000000
C254  C     C_R   0.817964 0.175398 0.903191 0.000000
C255  C     C_R   0.862005 0.210066 0.884142 0.000000
C256  C     C_R   0.935852 0.221792 0.899057 0.000000
N73   N     N_R   0.987802 0.255511 0.887016 0.000000
C257  C     C_R   0.054715 0.246383 0.907436 0.000000
N74   N     N_R   0.045451 0.209152 0.931904 0.000000
C258  C     C_R   0.968978 0.195777 0.927428 0.000000
C259  C     C_R   0.926650 0.161075 0.946775 0.000000
H145  H     H_    0.758779 0.166349 0.892890 0.000000
H146  H     H_    0.839514 0.225561 0.857309 0.000000
H147  H     H_    0.109563 0.266471 0.904536 0.000000
H148  H     H_    0.952348 0.141690 0.970382 0.000000
Br38  Br    Br    0.578872 0.552455 0.222974 0.000000
C260  C     C_R   0.510908 0.592679 0.251340 0.000000
C261  C     C_R   0.467945 0.578076 0.286531 0.000000
C262  C     C_R   0.411190 0.604144 0.304698 0.000000
C263  C     C_R   0.398328 0.644063 0.286386 0.000000
N75   N     N_R   0.341090 0.672132 0.295706 0.000000
C264  C     C_R   0.356327 0.706792 0.269619 0.000000
N76   N     N_R   0.420504 0.700896 0.244075 0.000000
C265  C     C_R   0.444572 0.660412 0.254456 0.000000
C266  C     C_R   0.501826 0.635016 0.235848 0.000000
H149  H     H_    0.477222 0.545542 0.299003 0.000000
H150  H     H_    0.378367 0.593081 0.332279 0.000000
H151  H     H_    0.320679 0.735434 0.269122 0.000000
H152  H     H_    0.535268 0.645422 0.208444 0.000000
Br39  Br    Br    0.527001 0.621562 0.001180 0.000000
C267  C     C_R   0.527050 0.648142 0.056666 0.000000
C268  C     C_R   0.457040 0.662455 0.074702 0.000000
C269  C     C_R   0.456533 0.685071 0.113605 0.000000
C270  C     C_R   0.527471 0.694294 0.132510 0.000000
N77   N     N_R   0.542605 0.717867 0.168738 0.000000
C271  C     C_R   0.620907 0.712615 0.174369 0.000000
N78   N     N_R   0.653822 0.686564 0.143153 0.000000
C272  C     C_R   0.594391 0.676713 0.116706 0.000000
C273  C     C_R   0.596676 0.653626 0.078563 0.000000
H153  H     H_    0.402667 0.656378 0.057967 0.000000
H154  H     H_    0.402251 0.694443 0.128601 0.000000
H155  H     H_    0.652727 0.726269 0.201470 0.000000
H156  H     H_    0.651060 0.641487 0.065514 0.000000
Br40  Br    Br    0.945584 0.967259 0.830986 0.000000
C274  C     C_R   0.054749 0.970011 0.815817 0.000000
C275  C     C_R   0.108081 0.995737 0.840329 0.000000
C276  C     C_R   0.187839 0.995237 0.831296 0.000000
C277  C     C_R   0.211563 0.965998 0.799779 0.000000
N79   N     N_R   0.283395 0.950636 0.793022 0.000000
C278  C     C_R   0.274117 0.920261 0.760325 0.000000
N80   N     N_R   0.198614 0.915723 0.747332 0.000000
C279  C     C_R   0.160081 0.944089 0.773430 0.000000
C280  C     C_R   0.080375 0.945492 0.780891 0.000000
H157  H     H_    0.087387 0.015065 0.867383 0.000000
H158  H     H_    0.229544 0.014823 0.850538 0.000000
H159  H     H_    0.320322 0.899919 0.747912 0.000000
H160  H     H_    0.039145 0.923540 0.764140 0.000000
Br41  Br    Br    0.148199 0.666042 0.699658 0.000000
C281  C     C_R   0.220608 0.713955 0.682740 0.000000
C282  C     C_R   0.285141 0.704280 0.657454 0.000000
C283  C     C_R   0.337550 0.738489 0.644235 0.000000
C284  C     C_R   0.322614 0.782220 0.655079 0.000000
N81   N     N_R   0.365748 0.820289 0.645432 0.000000
C285  C     C_R   0.319936 0.853321 0.662745 0.000000
N82   N     N_R   0.250822 0.836767 0.682377 0.000000
C286  C     C_R   0.256523 0.791868 0.677928 0.000000
C287  C     C_R   0.207619 0.758113 0.694400 0.000000
H161  H     H_    0.294820 0.669749 0.648161 0.000000
H162  H     H_    0.386101 0.730281 0.624515 0.000000
H163  H     H_    0.336272 0.888767 0.660898 0.000000
H164  H     H_    0.162384 0.765289 0.716976 0.000000
Br42  Br    Br    0.082982 0.911652 0.482319 0.000000
C288  C     C_R   0.087177 0.907066 0.542023 0.000000
C289  C     C_R   0.149444 0.886873 0.559403 0.000000
C290  C     C_R   0.151284 0.881343 0.602445 0.000000
C291  C     C_R   0.091368 0.897567 0.627307 0.000000
N83   N     N_R   0.081087 0.895249 0.669431 0.000000
C292  C     C_R   0.010909 0.915439 0.676647 0.000000
N84   N     N_R   0.979715 0.931503 0.641086 0.000000
C293  C     C_R   0.031024 0.918526 0.610408 0.000000
C294  C     C_R   0.026765 0.922518 0.567593 0.000000
H165  H     H_    0.195750 0.874337 0.539076 0.000000
H166  H     H_    0.198071 0.864239 0.615383 0.000000
H167  H     H_    0.981823 0.918944 0.706873 0.000000
H168  H     H_    0.975500 0.933890 0.553631 0.000000
Br43  Br    Br    0.885481 0.377723 0.447895 0.000000
C295  C     C_R   0.968818 0.398536 0.410854 0.000000
C296  C     C_R   0.034384 0.422576 0.426991 0.000000
C297  C     C_R   0.095469 0.436686 0.400142 0.000000
C298  C     C_R   0.090331 0.423751 0.358202 0.000000
N85   N     N_R   0.145237 0.430076 0.327849 0.000000
C299  C     C_R   0.111389 0.411964 0.292149 0.000000
N86   N     N_R   0.037640 0.393262 0.299659 0.000000
C300  C     C_R   0.026185 0.401128 0.341855 0.000000
C301  C     C_R   0.962699 0.389893 0.367837 0.000000
H169  H     H_    0.037526 0.430426 0.460472 0.000000
H170  H     H_    0.146372 0.455970 0.412171 0.000000
H171  H     H_    0.140283 0.411901 0.261375 0.000000
H172  H     H_    0.908600 0.375770 0.356072 0.000000
Br44  Br    Br    0.023020 0.566721 0.305149 0.000000
C302  C     C_R   0.950817 0.528476 0.273405 0.000000
C303  C     C_R   0.890465 0.547095 0.253293 0.000000
C304  C     C_R   0.838247 0.520489 0.229457 0.000000
C305  C     C_R   0.854456 0.476367 0.222292 0.000000
N87   N     N_R   0.827279 0.447704 0.191609 0.000000
C306  C     C_R   0.862112 0.408919 0.198667 0.000000
N88   N     N_R   0.912003 0.413460 0.231641 0.000000
C307  C     C_R   0.908906 0.456927 0.244488 0.000000
C308  C     C_R   0.958728 0.482631 0.270506 0.000000
H173  H     H_    0.887019 0.582885 0.254517 0.000000
H174  H     H_    0.789416 0.534994 0.215307 0.000000
H175  H     H_    0.853339 0.378419 0.179415 0.000000
H176  H     H_    0.006692 0.469622 0.285948 0.000000
Br45  Br    Br    0.291821 0.360783 0.802905 0.000000
C309  C     C_R   0.378775 0.324325 0.802716 0.000000
C310  C     C_R   0.453421 0.344710 0.796785 0.000000
C311  C     C_R   0.517333 0.318711 0.793079 0.000000
C312  C     C_R   0.503604 0.273096 0.792625 0.000000
N89   N     N_R   0.555953 0.242330 0.783090 0.000000
C313  C     C_R   0.513250 0.202345 0.789207 0.000000
N90   N     N_R   0.435930 0.208057 0.800306 0.000000
C314  C     C_R   0.432296 0.253122 0.802311 0.000000
C315  C     C_R   0.368104 0.278348 0.808647 0.000000
H177  H     H_    0.461401 0.380902 0.794925 0.000000
H178  H     H_    0.576339 0.333461 0.791073 0.000000
H179  H     H_    0.535409 0.169874 0.781023 0.000000
H180  H     H_    0.312017 0.263491 0.818737 0.000000
Br46  Br    Br    0.559390 0.100906 0.585597 0.000000
C316  C     C_R   0.602070 0.130654 0.634387 0.000000
C317  C     C_R   0.552878 0.155967 0.659295 0.000000
C318  C     C_R   0.581349 0.180988 0.693454 0.000000
C319  C     C_R   0.661000 0.184024 0.699280 0.000000
N91   N     N_R   0.702239 0.215595 0.722379 0.000000
C320  C     C_R   0.778004 0.211859 0.708427 0.000000
N92   N     N_R   0.784272 0.179967 0.676827 0.000000
C321  C     C_R   0.710242 0.161861 0.672851 0.000000
C322  C     C_R   0.682015 0.132201 0.641812 0.000000
H181  H     H_    0.491821 0.157318 0.651052 0.000000
H182  H     H_    0.542554 0.202533 0.710394 0.000000
H183  H     H_    0.826041 0.235042 0.717885 0.000000
H184  H     H_    0.721083 0.115268 0.620270 0.000000
Br47  Br    Br    0.434397 0.727512 0.800995 0.000000
C323  C     C_R   0.437223 0.791570 0.805583 0.000000
C324  C     C_R   0.371279 0.813169 0.820376 0.000000
C325  C     C_R   0.373693 0.859689 0.824641 0.000000
C326  C     C_R   0.443014 0.883266 0.813937 0.000000
N93   N     N_R   0.458385 0.928017 0.815498 0.000000
C327  C     C_R   0.536633 0.932998 0.803862 0.000000
N94   N     N_R   0.568840 0.892788 0.793295 0.000000
C328  C     C_R   0.507735 0.862366 0.800121 0.000000
C329  C     C_R   0.506212 0.816174 0.795068 0.000000
H185  H     H_    0.317955 0.793535 0.828905 0.000000
H186  H     H_    0.323014 0.876625 0.836647 0.000000
H187  H     H_    0.568384 0.965419 0.802189 0.000000
H188  H     H_    0.558003 0.799183 0.784896 0.000000
Br48  Br    Br    0.903323 0.811390 0.639745 0.000000
C330  C     C_R   0.792522 0.803807 0.646308 0.000000
C331  C     C_R   0.747777 0.796300 0.610476 0.000000
C332  C     C_R   0.667423 0.799917 0.612536 0.000000
C333  C     C_R   0.633637 0.809253 0.651294 0.000000
N95   N     N_R   0.558825 0.819592 0.659498 0.000000
C334  C     C_R   0.560080 0.833797 0.700853 0.000000
N96   N     N_R   0.632980 0.832926 0.718228 0.000000
C335  C     C_R   0.677241 0.815717 0.686641 0.000000
C336  C     C_R   0.757300 0.812337 0.685388 0.000000
H189  H     H_    0.776264 0.790054 0.580255 0.000000
H190  H     H_    0.633812 0.798018 0.584095 0.000000
H191  H     H_    0.510799 0.849155 0.716205 0.000000
H192  H     H_    0.792313 0.820544 0.712898 0.000000
Br49  Br    Br    0.742189 0.044340 0.860542 0.000000
C337  C     C_R   0.770009 0.018982 0.806694 0.000000
C338  C     C_R   0.815943 0.044465 0.778337 0.000000
C339  C     C_R   0.836774 0.026654 0.738913 0.000000
C340  C     C_R   0.808609 0.983588 0.728253 0.000000
N97   N     N_R   0.816271 0.959827 0.691299 0.000000
C341  C     C_R   0.770561 0.921415 0.698160 0.000000
N98   N     N_R   0.737402 0.919872 0.738077 0.000000
C342  C     C_R   0.762679 0.959257 0.756128 0.000000
C343  C     C_R   0.743594 0.975405 0.795838 0.000000
H193  H     H_    0.835689 0.078640 0.787162 0.000000
H194  H     H_    0.871848 0.047029 0.717534 0.000000
H195  H     H_    0.761323 0.895944 0.673789 0.000000
H196  H     H_    0.707694 0.955237 0.817524 0.000000
Br50  Br    Br    0.260397 0.830830 0.427695 0.000000
C344  C     C_R   0.195240 0.802843 0.385002 0.000000
C345  C     C_R   0.128756 0.823205 0.372841 0.000000
C346  C     C_R   0.081536 0.803292 0.341698 0.000000
C347  C     C_R   0.100171 0.762407 0.324419 0.000000
N99   N     N_R   0.063433 0.737684 0.293435 0.000000
C348  C     C_R   0.105259 0.699428 0.290940 0.000000
N100  N     N_R   0.166383 0.700488 0.318849 0.000000
C349  C     C_R   0.162356 0.741155 0.338344 0.000000
C350  C     C_R   0.213679 0.761861 0.366842 0.000000
H197  H     H_    0.114147 0.855041 0.387454 0.000000
H198  H     H_    0.030110 0.818733 0.332909 0.000000
H199  H     H_    0.092819 0.671959 0.268440 0.000000
H200  H     H_    0.267596 0.747584 0.374669 0.000000
Br51  Br    Br    0.812670 0.604192 0.352885 0.000000
C351  C     C_R   0.805398 0.635586 0.302311 0.000000
C352  C     C_R   0.745895 0.621719 0.274617 0.000000
C353  C     C_R   0.746014 0.638274 0.234409 0.000000
C354  C     C_R   0.805666 0.669047 0.223700 0.000000
N101  N     N_R   0.816705 0.690083 0.187119 0.000000
C355  C     C_R   0.880127 0.719037 0.193734 0.000000
N102  N     N_R   0.909480 0.715730 0.232879 0.000000
C356  C     C_R   0.862048 0.683782 0.250985 0.000000
C357  C     C_R   0.864162 0.667695 0.290969 0.000000
H201  H     H_    0.701280 0.596378 0.284090 0.000000
H202  H     H_    0.700755 0.627679 0.212346 0.000000
H203  H     H_    0.904302 0.741910 0.170372 0.000000
H204  H     H_    0.910794 0.678570 0.312239 0.000000
Br52  Br    Br    0.594630 0.980694 0.715939 0.000000
C358  C     C_R   0.569898 0.967000 0.659315 0.000000
C359  C     C_R   0.595899 0.998336 0.630387 0.000000
C360  C     C_R   0.586877 0.988867 0.588197 0.000000
C361  C     C_R   0.553543 0.947622 0.576397 0.000000
N103  N     N_R   0.563199 0.927679 0.538623 0.000000
C362  C     C_R   0.533156 0.884299 0.544156 0.000000
N104  N     N_R   0.506096 0.877137 0.584729 0.000000
C363  C     C_R   0.522721 0.917529 0.604389 0.000000
C364  C     C_R   0.529768 0.926788 0.646882 0.000000
H205  H     H_    0.627587 0.029088 0.640946 0.000000
H206  H     H_    0.613484 0.011172 0.565324 0.000000
H207  H     H_    0.540796 0.857270 0.521056 0.000000
H208  H     H_    0.505912 0.903795 0.669753 0.000000
Br53  Br    Br    0.389333 0.090355 0.367477 0.000000
C365  C     C_R   0.461737 0.066989 0.404724 0.000000
C366  C     C_R   0.463786 0.020671 0.408281 0.000000
C367  C     C_R   0.516149 0.002987 0.434961 0.000000
C368  C     C_R   0.565722 0.032592 0.457249 0.000000
N105  N     N_R   0.620963 0.022253 0.484153 0.000000
C369  C     C_R   0.651882 0.064532 0.497600 0.000000
N106  N     N_R   0.616747 0.100360 0.480468 0.000000
C370  C     C_R   0.563275 0.078398 0.454627 0.000000
C371  C     C_R   0.511332 0.096366 0.428139 0.000000
H209  H     H_    0.424163 0.998291 0.390053 0.000000
H210  H     H_    0.517869 0.967088 0.438151 0.000000
H211  H     H_    0.698477 0.069208 0.520186 0.000000
H212  H     H_    0.508256 0.132322 0.425817 0.000000
Br54  Br    Br    0.056402 0.045998 0.490226 0.000000
C372  C     C_R   0.950728 0.026038 0.504266 0.000000
C373  C     C_R   0.894300 0.022564 0.473169 0.000000
C374  C     C_R   0.819297 0.003963 0.481990 0.000000
C375  C     C_R   0.804210 0.988326 0.521793 0.000000
N107  N     N_R   0.737733 0.967236 0.536466 0.000000
C376  C     C_R   0.755526 0.956331 0.576637 0.000000
N108  N     N_R   0.830731 0.969874 0.586822 0.000000
C377  C     C_R   0.859247 0.990833 0.551944 0.000000
C378  C     C_R   0.932580 0.011760 0.544654 0.000000
H213  H     H_    0.909574 0.033604 0.441712 0.000000
H214  H     H_    0.775270 0.000451 0.457927 0.000000
H215  H     H_    0.715329 0.938192 0.597836 0.000000
H216  H     H_    0.977451 0.013564 0.568205 0.000000
Br55  Br    Br    0.303577 0.222693 0.247381 0.000000
C379  C     C_R   0.302483 0.284802 0.263955 0.000000
C380  C     C_R   0.244468 0.299440 0.291393 0.000000
C381  C     C_R   0.243170 0.344433 0.303436 0.000000
C382  C     C_R   0.301014 0.374589 0.288108 0.000000
N109  N     N_R   0.312824 0.419691 0.295043 0.000000
C383  C     C_R   0.377070 0.431064 0.270045 0.000000
N110  N     N_R   0.402963 0.394947 0.247571 0.000000
C384  C     C_R   0.355652 0.360135 0.260467 0.000000
C385  C     C_R   0.358595 0.315386 0.247890 0.000000
H217  H     H_    0.199338 0.275607 0.303228 0.000000
H218  H     H_    0.195662 0.354136 0.323222 0.000000
H219  H     H_    0.402955 0.464988 0.267423 0.000000
H220  H     H_    0.402496 0.303616 0.225841 0.000000
Br56  Br    Br    0.560963 0.504157 0.010251 0.000000
C386  C     C_R   0.548607 0.482799 0.066107 0.000000
C387  C     C_R   0.478728 0.460032 0.078430 0.000000
C388  C     C_R   0.469223 0.442534 0.118279 0.000000
C389  C     C_R   0.533161 0.444975 0.143871 0.000000
N111  N     N_R   0.543810 0.421940 0.179048 0.000000
C390  C     C_R   0.622721 0.427997 0.185286 0.000000
N112  N     N_R   0.660212 0.453862 0.155462 0.000000
C391  C     C_R   0.602704 0.464917 0.130524 0.000000
C392  C     C_R   0.611741 0.485897 0.092661 0.000000
H221  H     H_    0.432470 0.454428 0.055876 0.000000
H222  H     H_    0.414428 0.425727 0.127594 0.000000
H223  H     H_    0.653219 0.410679 0.208748 0.000000
H224  H     H_    0.668391 0.500038 0.081823 0.000000
Br57  Br    Br    0.023058 0.067747 0.775675 0.000000
C393  C     C_R   0.084834 0.100630 0.816046 0.000000
C394  C     C_R   0.048130 0.104765 0.854843 0.000000
C395  C     C_R   0.086383 0.126732 0.887327 0.000000
C396  C     C_R   0.159497 0.147077 0.879747 0.000000
N113  N     N_R   0.203608 0.171813 0.907442 0.000000
C397  C     C_R   0.273473 0.179643 0.885401 0.000000
N114  N     N_R   0.270676 0.162862 0.844739 0.000000
C398  C     C_R   0.197953 0.142188 0.842407 0.000000
C399  C     C_R   0.162346 0.118001 0.809300 0.000000
H225  H     H_    0.989513 0.089356 0.859930 0.000000
H226  H     H_    0.058332 0.126695 0.917716 0.000000
H227  H     H_    0.325348 0.197415 0.898202 0.000000
H228  H     H_    0.193331 0.112511 0.779692 0.000000
Br58  Br    Br    0.931121 0.138702 0.114496 0.000000
C400  C     C_R   0.999717 0.106235 0.077902 0.000000
C401  C     C_R   0.009184 0.060973 0.084425 0.000000
C402  C     C_R   0.054067 0.035785 0.056465 0.000000
C403  C     C_R   0.088868 0.057028 0.022293 0.000000
N115  N     N_R   0.130673 0.038649 0.989809 0.000000
C404  C     C_R   0.152387 0.076250 0.966559 0.000000
N116  N     N_R   0.123791 0.116239 0.982816 0.000000
C405  C     C_R   0.083490 0.102403 0.017558 0.000000
C406  C     C_R   0.038226 0.127632 0.044484 0.000000
H229  H     H_    0.979509 0.045065 0.111054 0.000000
H230  H     H_    0.059630 0.000318 0.060830 0.000000
H231  H     H_    0.188034 0.074394 0.937907 0.000000
H232  H     H_    0.030105 0.162491 0.038792 0.000000
Br59  Br    Br    0.742514 0.863409 0.095850 0.000000
C407  C     C_R   0.805052 0.814360 0.079931 0.000000
C408  C     C_R   0.870421 0.820722 0.052955 0.000000
C409  C     C_R   0.911830 0.784408 0.038283 0.000000
C410  C     C_R   0.882674 0.742037 0.048782 0.000000
N117  N     N_R   0.909005 0.701333 0.037221 0.000000
C411  C     C_R   0.863951 0.672263 0.060880 0.000000
N118  N     N_R   0.813841 0.693487 0.087811 0.000000
C412  C     C_R   0.823969 0.736836 0.078220 0.000000
C413  C     C_R   0.784250 0.772155 0.094964 0.000000
H233  H     H_    0.888954 0.854237 0.043170 0.000000
H234  H     H_    0.965443 0.789739 0.019758 0.000000
H235  H     H_    0.871847 0.636598 0.060359 0.000000
H236  H     H_    0.735769 0.766983 0.117304 0.000000
Br60  Br    Br    0.806665 0.510376 0.858063 0.000000
C414  C     C_R   0.862675 0.544458 0.900860 0.000000
C415  C     C_R   0.859409 0.590953 0.903443 0.000000
C416  C     C_R   0.900073 0.616223 0.934240 0.000000
C417  C     C_R   0.944411 0.594011 0.961533 0.000000
N119  N     N_R   0.987358 0.611968 0.993841 0.000000
C418  C     C_R   0.010124 0.573666 0.012850 0.000000
N120  N     N_R   0.985400 0.533344 0.992152 0.000000
C419  C     C_R   0.944823 0.548127 0.960022 0.000000
C420  C     C_R   0.905006 0.522550 0.929680 0.000000
H237  H     H_    0.824441 0.607523 0.881369 0.000000
H238  H     H_    0.894726 0.652011 0.937104 0.000000
H239  H     H_    0.041640 0.575239 0.042081 0.000000
H240  H     H_    0.906658 0.486548 0.927960 0.000000
Br61  Br    Br    0.170240 0.714750 0.561356 0.000000
C421  C     C_R   0.206721 0.698584 0.505916 0.000000
C422  C     C_R   0.152319 0.689509 0.474237 0.000000
C423  C     C_R   0.177350 0.678775 0.433472 0.000000
C424  C     C_R   0.256962 0.677257 0.425968 0.000000
N121  N     N_R   0.294396 0.668874 0.389030 0.000000
C425  C     C_R   0.371956 0.670683 0.399113 0.000000
N122  N     N_R   0.383894 0.680192 0.440798 0.000000
C426  C     C_R   0.310426 0.684970 0.456934 0.000000
C427  C     C_R   0.286901 0.696313 0.497516 0.000000
H241  H     H_    0.090073 0.691325 0.481435 0.000000
H242  H     H_    0.135727 0.672005 0.408506 0.000000
H243  H     H_    0.419243 0.664436 0.376741 0.000000
H244  H     H_    0.328631 0.704439 0.522014 0.000000
Br62  Br    Br    0.602107 0.660138 0.690720 0.000000
C428  C     C_R   0.573767 0.675773 0.635583 0.000000
C429  C     C_R   0.586674 0.646539 0.601501 0.000000
C430  C     C_R   0.562513 0.656377 0.561746 0.000000
C431  C     C_R   0.527228 0.696154 0.556930 0.000000
N123  N     N_R   0.494971 0.711092 0.522089 0.000000
C432  C     C_R   0.472805 0.753311 0.534945 0.000000
N124  N     N_R   0.488197 0.764017 0.576687 0.000000
C433  C     C_R   0.520876 0.726629 0.589528 0.000000
C434  C     C_R   0.540099 0.716123 0.629854 0.000000
H245  H     H_    0.613898 0.615314 0.606234 0.000000
H246  H     H_    0.571891 0.633170 0.535769 0.000000
H247  H     H_    0.445837 0.775747 0.514315 0.000000
H248  H     H_    0.526363 0.737267 0.656890 0.000000
Br63  Br    Br    0.278804 0.496662 0.591601 0.000000
C435  C     C_R   0.346472 0.533133 0.556046 0.000000
C436  C     C_R   0.345162 0.579668 0.559383 0.000000
C437  C     C_R   0.392196 0.606491 0.532892 0.000000
C438  C     C_R   0.441232 0.585927 0.504210 0.000000
N125  N     N_R   0.488307 0.605426 0.474319 0.000000
C439  C     C_R   0.519209 0.568576 0.453563 0.000000
N126  N     N_R   0.493835 0.527673 0.470522 0.000000
C440  C     C_R   0.444216 0.540425 0.501809 0.000000
C441  C     C_R   0.395844 0.513049 0.526671 0.000000
H249  H     H_    0.306212 0.595038 0.582362 0.000000
H250  H     H_    0.390562 0.642400 0.535184 0.000000
H251  H     H_    0.555507 0.571456 0.425182 0.000000
H252  H     H_    0.394261 0.477013 0.522930 0.000000
Br64  Br    Br    0.373791 0.266362 0.449599 0.000000
C442  C     C_R   0.336919 0.323208 0.436679 0.000000
C443  C     C_R   0.266507 0.325098 0.416059 0.000000
C444  C     C_R   0.243239 0.365714 0.402515 0.000000
C445  C     C_R   0.292403 0.403534 0.409017 0.000000
N127  N     N_R   0.293100 0.443862 0.390472 0.000000
C446  C     C_R   0.356468 0.467351 0.407598 0.000000
N128  N     N_R   0.395093 0.442695 0.434984 0.000000
C447  C     C_R   0.355490 0.402369 0.434000 0.000000
C448  C     C_R   0.380619 0.362421 0.447463 0.000000
H253  H     H_    0.230613 0.294516 0.409612 0.000000
H254  H     H_    0.187473 0.366943 0.388038 0.000000
H255  H     H_    0.379489 0.499685 0.396659 0.000000
H256  H     H_    0.435780 0.360794 0.463001 0.000000

loop_
_geom_bond_atom_site_label_1
_geom_bond_atom_site_label_2
_geom_bond_distance
_geom_bond_site_symmetry_2
_ccdc_geom_bond_type
Zn1   N2    1.930 1_565  S
Zn1   N7    1.948 .      S
Zn1   N79   1.910 .      S
Zn1   N93   1.986 .      S
Zn2   N3    1.956 .      S
Zn2   N75   1.911 .      S
Zn2   N100  2.034 .      S
Zn2   N121  1.947 .      S
Zn3   N4    1.984 .      S
Zn3   N85   1.896 .      S
Zn3   N109  1.956 .      S
Zn3   N127  1.977 .      S
Zn4   N1    1.962 .      S
Zn4   N6    2.015 .      S
Zn4   N90   1.982 .      S
Zn4   N114  1.958 .      S
Zn5   N8    1.984 .      S
Zn5   N32   2.064 .      S
Zn5   N63   2.075 1_556  S
Zn5   N115  2.139 1_565  S
Zn6   N9    1.938 .      S
Zn6   N42   2.019 1_655  S
Zn6   N72   2.037 1_554  S
Zn6   N120  2.122 1_554  S
Zn7   N12   1.988 .      S
Zn7   N14   1.997 .      S
Zn7   N15   2.001 .      S
Zn7   N92   1.954 .      S
Zn8   N10   1.973 .      S
Zn8   N18   1.943 .      S
Zn8   N87   1.933 .      S
Zn8   N112  1.917 .      S
Zn9   N17   1.929 .      S
Zn9   N78   1.961 .      S
Zn9   N101  1.905 .      S
Zn9   N118  1.913 .      S
Zn10  N16   1.939 1_565  S
Zn10  N84   2.058 .      S
Zn10  N97   2.012 .      S
Zn10  N108  1.958 .      S
Zn11  N19   2.020 .      S
Zn11  N21   2.050 .      S
Zn11  N23   2.055 .      S
Zn11  N25   2.042 .      S
Zn12  N27   1.943 1_655  S
Zn12  N29   2.066 .      S
Zn12  N31   2.064 1_655  S
Zn12  N34   2.045 .      S
Zn13  N36   1.989 .      S
Zn13  N37   2.060 .      S
Zn13  N39   2.024 .      S
Zn13  N41   2.055 .      S
Zn14  N43   1.991 .      S
Zn14  N46   2.048 .      S
Zn14  N48   2.110 .      S
Zn14  N49   2.006 .      S
Zn15  N51   1.978 .      S
Zn15  N53   2.045 .      S
Zn15  N55   2.026 .      S
Zn15  N57   2.029 .      S
Zn16  N59   2.045 .      S
Zn16  N62   1.977 .      S
Zn16  N64   2.093 .      S
Zn16  N65   1.988 .      S
Zn17  N67   2.051 .      S
Zn17  N70   2.003 1_655  S
Zn17  N71   2.055 .      S
Zn17  N73   2.035 .      S
Zn18  N52   1.978 .      S
Zn18  N60   2.046 .      S
Zn18  N76   1.924 .      S
Zn18  N77   1.979 .      S
Zn19  N28   1.977 .      S
Zn19  N80   1.918 .      S
Zn19  N82   2.091 .      S
Zn19  N83   2.046 .      S
Zn20  N35   2.021 1_655  S
Zn20  N44   1.964 .      S
Zn20  N86   1.977 1_655  S
Zn20  N88   1.926 .      S
Zn21  N20   2.055 .      S
Zn21  N68   2.098 .      S
Zn21  N89   2.001 .      S
Zn21  N91   1.949 .      S
Zn22  N30   2.079 .      S
Zn22  N94   2.030 .      S
Zn22  N96   1.991 .      S
Zn22  N98   1.985 .      S
Zn23  N56   2.004 .      S
Zn23  N61   1.987 1_655  S
Zn23  N99   2.052 1_655  S
Zn23  N102  1.890 .      S
Zn24  N58   2.047 .      S
Zn24  N103  1.976 .      S
Zn24  N105  2.106 1_565  S
Zn24  N107  1.960 .      S
Zn25  N38   2.008 .      S
Zn25  N50   2.021 .      S
Zn25  N110  1.883 .      S
Zn25  N111  1.951 .      S
Zn26  N40   2.048 .      S
Zn26  N74   2.017 .      S
Zn26  N113  1.977 .      S
Zn26  N116  2.126 .      S
Zn27  N33   2.017 1_554  S
Zn27  N66   2.015 1_655  S
Zn27  N117  1.942 .      S
Zn27  N119  2.112 1_554  S
Zn28  N54   2.001 .      S
Zn28  N122  1.960 .      S
Zn28  N123  2.040 .      S
Zn28  N125  2.078 .      S
Zn29  N26   2.025 .      S
Zn29  N45   1.999 .      S
Zn29  N126  2.069 .      S
Zn29  N128  1.923 .      S
Zn30  N5    1.903 .      S
Zn30  N11   1.996 .      S
Zn30  N22   2.028 .      S
Zn30  N69   1.980 .      S
Zn31  N13   1.978 .      S
Zn31  N24   2.041 .      S
Zn31  N47   2.072 .      S
Zn31  N106  2.153 .      S
Zn32  N81   2.082 .      S
Zn32  N95   1.998 .      S
Zn32  N104  2.019 .      S
Zn32  N124  2.063 .      S
Br1   C1    1.903 1_565  S
C1    Br1   1.903 1_545  S
C2    H1    1.077 .      S
C3    H2    1.077 .      S
C5    H3    1.080 .      S
N2    Zn1   1.930 1_545  S
C7    H4    1.075 1_545  S
H4    C7    1.075 1_565  S
Br2   C8    1.879 .      S
C9    H5    1.081 .      S
C10   H6    1.079 .      S
C12   H7    1.081 .      S
C14   H8    1.071 .      S
Br3   C15   1.900 .      S
C16   H9    1.076 .      S
C17   H10   1.078 .      S
C19   H11   1.073 .      S
C21   H12   1.061 .      S
Br4   C22   1.906 1_554  S
C22   Br4   1.906 1_556  S
C23   H13   1.081 .      S
C24   H14   1.081 .      S
C26   H15   1.076 .      S
C28   H16   1.066 1_556  S
H16   C28   1.066 1_554  S
Br5   C29   1.905 .      S
C30   H17   1.081 .      S
C31   H18   1.074 .      S
C33   H19   1.067 .      S
C35   H20   1.078 .      S
Br6   C36   1.882 .      S
C37   H21   1.081 .      S
C38   H22   1.068 .      S
C40   H23   1.070 .      S
C42   H24   1.081 .      S
Br7   C43   1.907 1_455  S
C43   Br7   1.907 1_655  S
C44   H25   1.081 .      S
C45   H26   1.080 .      S
C47   H27   1.076 .      S
C49   H28   1.081 .      S
Br8   C50   1.901 .      S
C51   H29   1.071 .      S
C52   H30   1.075 .      S
C54   H31   1.077 .      S
N16   Zn10  1.939 1_545  S
C56   H32   1.066 1_545  S
H32   C56   1.066 1_565  S
Br9   C57   1.899 .      S
C58   H33   1.081 1_655  S
C59   H34   1.073 .      S
C61   H35   1.079 .      S
C63   H36   1.074 .      S
H33   C58   1.081 1_455  S
Br10  C64   1.905 .      S
C65   H37   1.081 .      S
C66   H38   1.080 .      S
C68   H39   1.066 .      S
C70   H40   1.081 .      S
Br11  C71   1.906 .      S
C72   H41   1.076 .      S
C73   H42   1.077 .      S
C75   H43   1.081 .      S
C77   H44   1.062 .      S
Br12  C78   1.906 .      S
C79   H45   1.079 .      S
C80   H46   1.062 .      S
C82   H47   1.080 .      S
C84   H48   1.061 .      S
Br13  C85   1.906 .      S
C86   H49   1.079 .      S
C87   H50   1.078 .      S
C89   H51   1.071 .      S
C91   H52   1.073 .      S
Br14  C92   1.909 .      S
C93   H53   1.081 .      S
C94   H54   1.080 .      S
N27   Zn12  1.943 1_455  S
C96   H55   1.076 .      S
C98   H56   1.081 .      S
Br15  C99   1.906 .      S
C100  H57   1.081 .      S
C101  H58   1.064 .      S
C103  H59   1.081 .      S
C105  H60   1.060 .      S
Br16  C106  1.905 1_544  S
C106  Br16  1.905 1_566  S
C107  H61   1.081 .      S
C108  H62   1.062 .      S
N31   Zn12  2.064 1_455  S
C110  H63   1.080 .      S
C112  H64   1.063 .      S
Br17  C113  1.899 .      S
C114  H65   1.081 .      S
C115  H66   1.075 .      S
N33   Zn27  2.017 1_556  S
C117  H67   1.069 .      S
C119  H68   1.067 .      S
Br18  C120  1.906 .      S
C121  H69   1.081 .      S
C122  H70   1.072 1_455  S
N35   Zn20  2.021 1_455  S
C124  H71   1.081 .      S
C126  H72   1.079 .      S
H70   C122  1.072 1_655  S
Br19  C127  1.906 .      S
C128  H73   1.081 .      S
C129  H74   1.069 .      S
C131  H75   1.081 .      S
C133  H76   1.081 .      S
Br20  C134  1.894 .      S
C135  H77   1.081 .      S
C136  H78   1.070 .      S
C138  H79   1.077 .      S
C140  H80   1.060 .      S
Br21  C141  1.902 .      S
C142  H81   1.075 .      S
C143  H82   1.076 .      S
C145  H83   1.081 .      S
N42   Zn6   2.019 1_455  S
C147  H84   1.070 .      S
Br22  C148  1.905 1_455  S
C148  Br22  1.905 1_655  S
C149  H85   1.078 .      S
C150  H86   1.070 .      S
C152  H87   1.081 .      S
C154  H88   1.080 1_655  S
H88   C154  1.080 1_455  S
Br23  C155  1.892 .      S
C156  H89   1.079 .      S
C157  H90   1.073 .      S
C159  H91   1.076 .      S
C161  H92   1.070 .      S
Br24  C162  1.906 .      S
C163  H93   1.081 .      S
C164  H94   1.076 .      S
C166  H95   1.081 .      S
C168  H96   1.072 .      S
Br25  C169  1.905 .      S
C170  H97   1.081 .      S
C171  H98   1.076 .      S
C173  H99   1.081 .      S
C175  H100  1.065 .      S
Br26  C176  1.906 .      S
C177  H101  1.081 .      S
C178  H102  1.075 .      S
C180  H103  1.081 .      S
C182  H104  1.080 .      S
Br27  C183  1.906 .      S
C184  H105  1.081 .      S
C185  H106  1.073 .      S
C187  H107  1.081 .      S
C189  H108  1.075 .      S
Br28  C190  1.906 1_455  S
C190  Br28  1.906 1_655  S
C191  H109  1.081 .      S
C192  H110  1.073 .      S
C194  H111  1.073 .      S
C196  H112  1.080 1_655  S
H112  C196  1.080 1_455  S
Br29  C197  1.887 .      S
C198  H113  1.081 .      S
C199  H114  1.050 .      S
C201  H115  1.080 .      S
C203  H116  1.057 .      S
Br30  C204  1.904 .      S
C205  H117  1.081 .      S
C206  H118  1.077 .      S
C208  H119  1.074 .      S
C210  H120  1.073 .      S
Br31  C211  1.903 .      S
C212  H121  1.081 .      S
C213  H122  1.075 .      S
N61   Zn23  1.987 1_455  S
C215  H123  1.081 .      S
C217  H124  1.074 .      S
Br32  C218  1.905 .      S
C219  H125  1.081 .      S
C220  H126  1.071 1_565  S
N63   Zn5   2.075 1_554  S
C222  H127  1.081 .      S
C224  H128  1.066 .      S
H126  C220  1.071 1_545  S
Br33  C225  1.906 .      S
C226  H129  1.081 1_554  S
C227  H130  1.080 .      S
C229  H131  1.078 .      S
N66   Zn27  2.015 1_455  S
C231  H132  1.073 .      S
H129  C226  1.081 1_556  S
Br34  C232  1.903 .      S
C233  H133  1.081 .      S
C234  H134  1.077 .      S
C236  H135  1.080 .      S
C238  H136  1.060 .      S
Br35  C239  1.906 .      S
C240  H137  1.081 .      S
C241  H138  1.080 .      S
C243  H139  1.081 .      S
N70   Zn17  2.003 1_455  S
C245  H140  1.078 1_455  S
H140  C245  1.078 1_655  S
Br36  C246  1.906 .      S
C247  H141  1.075 .      S
C248  H142  1.078 .      S
C250  H143  1.070 .      S
N72   Zn6   2.037 1_556  S
C252  H144  1.072 .      S
Br37  C253  1.902 .      S
C254  H145  1.081 .      S
C255  H146  1.072 .      S
C257  H147  1.079 .      S
C259  H148  1.078 .      S
Br38  C260  1.904 .      S
C261  H149  1.081 .      S
C262  H150  1.075 .      S
C264  H151  1.078 .      S
C266  H152  1.070 .      S
Br39  C267  1.904 .      S
C268  H153  1.080 .      S
C269  H154  1.075 .      S
C271  H155  1.081 .      S
C273  H156  1.081 .      S
Br40  C274  1.902 1_655  S
C274  Br40  1.902 1_455  S
C275  H157  1.080 1_565  S
C276  H158  1.077 1_565  S
C278  H159  1.080 .      S
C280  H160  1.067 .      S
H157  C275  1.080 1_545  S
H158  C276  1.077 1_545  S
Br41  C281  1.907 .      S
C282  H161  1.081 .      S
C283  H162  1.058 .      S
C285  H163  1.077 .      S
C287  H164  1.063 .      S
Br42  C288  1.906 .      S
C289  H165  1.081 .      S
C290  H166  1.069 .      S
C292  H167  1.072 1_455  S
C294  H168  1.067 1_455  S
H167  C292  1.072 1_655  S
H168  C294  1.067 1_655  S
Br43  C295  1.904 .      S
C296  H169  1.081 .      S
C297  H170  1.078 .      S
C299  H171  1.081 .      S
N86   Zn20  1.977 1_455  S
C301  H172  1.058 .      S
Br44  C302  1.904 1_455  S
C302  Br44  1.904 1_655  S
C303  H173  1.070 .      S
C304  H174  1.075 .      S
C306  H175  1.081 .      S
C308  H176  1.062 1_655  S
H176  C308  1.062 1_455  S
Br45  C309  1.888 .      S
C310  H177  1.081 .      S
C311  H178  1.071 .      S
C313  H179  1.080 .      S
C315  H180  1.071 .      S
Br46  C316  1.894 .      S
C317  H181  1.080 .      S
C318  H182  1.071 .      S
C320  H183  1.077 .      S
C322  H184  1.075 .      S
Br47  C323  1.905 .      S
C324  H185  1.081 .      S
C325  H186  1.080 .      S
C327  H187  1.078 .      S
C329  H188  1.079 .      S
Br48  C330  1.890 .      S
C331  H189  1.078 .      S
C332  H190  1.078 .      S
C334  H191  1.077 .      S
C336  H192  1.081 .      S
Br49  C337  1.903 .      S
C338  H193  1.081 .      S
C339  H194  1.070 .      S
C341  H195  1.071 .      S
C343  H196  1.080 .      S
Br50  C344  1.907 .      S
C345  H197  1.081 .      S
C346  H198  1.061 .      S
N99   Zn23  2.052 1_455  S
C348  H199  1.081 .      S
C350  H200  1.073 .      S
Br51  C351  1.894 .      S
C352  H201  1.080 .      S
C353  H202  1.078 .      S
C355  H203  1.079 .      S
C357  H204  1.081 .      S
Br52  C358  1.879 .      S
C359  H205  1.080 1_565  S
C360  H206  1.072 1_565  S
C362  H207  1.081 .      S
C364  H208  1.069 .      S
H205  C359  1.080 1_545  S
H206  C360  1.072 1_545  S
Br53  C365  1.906 .      S
C366  H209  1.081 1_545  S
C367  H210  1.079 1_545  S
N105  Zn24  2.106 1_545  S
C369  H211  1.081 .      S
C371  H212  1.080 .      S
H209  C366  1.081 1_565  S
H210  C367  1.079 1_565  S
Br54  C372  1.903 1_455  S
C372  Br54  1.903 1_655  S
C373  H213  1.081 .      S
C374  H214  1.080 .      S
C376  H215  1.079 .      S
C378  H216  1.079 .      S
Br55  C379  1.906 .      S
C380  H217  1.081 .      S
C381  H218  1.058 .      S
C383  H219  1.081 .      S
C385  H220  1.076 .      S
Br56  C386  1.904 .      S
C387  H221  1.078 .      S
C388  H222  1.069 .      S
C390  H223  1.081 .      S
C392  H224  1.079 .      S
Br57  C393  1.885 .      S
C394  H225  1.081 1_455  S
C395  H226  1.064 .      S
C397  H227  1.080 .      S
C399  H228  1.077 .      S
H225  C394  1.081 1_655  S
Br58  C400  1.906 .      S
C401  H229  1.080 1_455  S
C402  H230  1.080 .      S
N115  Zn5   2.139 1_545  S
C404  H231  1.081 .      S
C406  H232  1.078 .      S
H229  C401  1.080 1_655  S
Br59  C407  1.906 .      S
C408  H233  1.081 .      S
C409  H234  1.078 .      S
C411  H235  1.078 .      S
C413  H236  1.080 .      S
Br60  C414  1.904 .      S
C415  H237  1.081 .      S
C416  H238  1.076 .      S
N119  Zn27  2.112 1_556  S
C418  H239  1.081 .      S
N120  Zn6   2.122 1_556  S
C420  H240  1.073 .      S
Br61  C421  1.905 .      S
C422  H241  1.081 .      S
C423  H242  1.081 .      S
C425  H243  1.079 .      S
C427  H244  1.077 .      S
Br62  C428  1.906 .      S
C429  H245  1.081 .      S
C430  H246  1.072 .      S
C432  H247  1.081 .      S
C434  H248  1.075 .      S
Br63  C435  1.906 .      S
C436  H249  1.081 .      S
C437  H250  1.071 .      S
C439  H251  1.081 .      S
C441  H252  1.074 .      S
Br64  C442  1.903 .      S
C443  H253  1.080 .      S
C444  H254  1.067 .      S
C446  H255  1.081 .      S
C448  H256  1.075 .      S
C1    C2    1.384 .      A
C1    C7    1.379 .      A
C2    C3    1.385 .      A
C3    C4    1.359 .      A
C4    N1    1.341 .      A
C4    C6    1.350 .      A
N1    C5    1.364 .      A
C5    N2    1.363 .      A
N2    C6    1.337 .      A
C6    C7    1.367 .      A
C8    C9    1.386 .      A
C8    C14   1.376 .      A
C9    C10   1.378 .      A
C10   C11   1.373 .      A
C11   N3    1.338 .      A
C11   C13   1.353 .      A
N3    C12   1.371 .      A
C12   N4    1.370 .      A
N4    C13   1.344 .      A
C13   C14   1.362 .      A
C15   C16   1.377 .      A
C15   C21   1.392 .      A
C16   C17   1.370 .      A
C17   C18   1.366 .      A
C18   N5    1.327 .      A
C18   C20   1.353 .      A
N5    C19   1.355 .      A
C19   N6    1.366 .      A
N6    C20   1.361 .      A
C20   C21   1.371 .      A
C22   C23   1.389 .      A
C22   C28   1.386 .      A
C23   C24   1.383 .      A
C24   C25   1.372 1_545  A
C25   C24   1.372 1_565  A
C25   N7    1.337 .      A
C25   C27   1.356 1_565  A
N7    C26   1.364 .      A
C26   N8    1.363 .      A
N8    C27   1.353 1_565  A
C27   C25   1.356 1_545  A
C27   N8    1.353 1_545  A
C27   C28   1.372 .      A
C29   C30   1.388 1_554  A
C29   C35   1.387 .      A
C30   C29   1.388 1_556  A
C30   C31   1.381 .      A
C31   C32   1.371 1_556  A
C32   C31   1.371 1_554  A
C32   N9    1.345 .      A
C32   C34   1.359 .      A
N9    C33   1.352 .      A
C33   N10   1.361 .      A
N10   C34   1.350 .      A
C34   C35   1.375 .      A
C36   C37   1.382 .      A
C36   C42   1.387 .      A
C37   C38   1.373 1_655  A
C38   C37   1.373 1_455  A
C38   C39   1.368 .      A
C39   N11   1.344 .      A
C39   C41   1.354 1_455  A
N11   C40   1.363 .      A
C40   N12   1.367 1_455  A
N12   C40   1.367 1_655  A
N12   C41   1.344 .      A
C41   C39   1.354 1_655  A
C41   C42   1.374 .      A
C43   C44   1.393 .      A
C43   C49   1.385 .      A
C44   C45   1.387 .      A
C45   C46   1.371 .      A
C46   N13   1.345 .      A
C46   C48   1.361 .      A
N13   C47   1.364 .      A
C47   N14   1.369 .      A
N14   C48   1.344 .      A
C48   C49   1.371 .      A
C50   C51   1.389 .      A
C50   C56   1.366 .      A
C51   C52   1.382 .      A
C52   C53   1.365 1_455  A
C53   C52   1.365 1_655  A
C53   N15   1.352 .      A
C53   C55   1.352 .      A
N15   C54   1.365 .      A
C54   N16   1.365 .      A
N16   C55   1.331 .      A
C55   C56   1.363 1_655  A
C56   C55   1.363 1_455  A
C57   C58   1.383 1_455  A
C57   C63   1.378 1_455  A
C58   C57   1.383 1_655  A
C58   C59   1.381 .      A
C59   C60   1.380 .      A
C60   N17   1.350 .      A
C60   C62   1.344 .      A
N17   C61   1.360 .      A
C61   N18   1.366 .      A
N18   C62   1.345 .      A
C62   C63   1.374 .      A
C63   C57   1.378 1_655  A
C64   C65   1.392 .      A
C64   C70   1.386 .      A
C65   C66   1.385 .      A
C66   C67   1.372 .      A
C67   N19   1.345 .      A
C67   C69   1.368 .      A
N19   C68   1.364 .      A
C68   N20   1.378 .      A
N20   C69   1.352 .      A
C69   C70   1.376 .      A
C71   C72   1.381 .      A
C71   C77   1.378 .      A
C72   C73   1.383 .      A
C73   C74   1.372 .      A
C74   N21   1.349 .      A
C74   C76   1.360 .      A
N21   C75   1.377 .      A
C75   N22   1.378 .      A
N22   C76   1.346 .      A
C76   C77   1.372 .      A
C78   C79   1.382 .      A
C78   C84   1.378 .      A
C79   C80   1.381 .      A
C80   C81   1.371 .      A
C81   N23   1.351 .      A
C81   C83   1.359 .      A
N23   C82   1.379 .      A
C82   N24   1.379 .      A
N24   C83   1.343 .      A
C83   C84   1.367 .      A
C85   C86   1.388 .      A
C85   C91   1.379 .      A
C86   C87   1.389 .      A
C87   C88   1.371 .      A
C88   N25   1.347 .      A
C88   C90   1.357 .      A
N25   C89   1.379 .      A
C89   N26   1.369 .      A
N26   C90   1.340 .      A
C90   C91   1.367 .      A
C92   C93   1.389 .      A
C92   C98   1.389 1_655  A
C93   C94   1.382 .      A
C94   C95   1.373 .      A
C95   N27   1.344 1_655  A
C95   C97   1.354 1_655  A
N27   C95   1.344 1_455  A
N27   C96   1.356 .      A
C96   N28   1.369 .      A
N28   C97   1.350 .      A
C97   C95   1.354 1_455  A
C97   C98   1.374 .      A
C98   C92   1.389 1_455  A
C99   C100  1.383 .      A
C99   C105  1.382 .      A
C100  C101  1.380 .      A
C101  C102  1.371 .      A
C102  N29   1.346 .      A
C102  C104  1.363 .      A
N29   C103  1.382 .      A
C103  N30   1.380 .      A
N30   C104  1.355 .      A
C104  C105  1.373 .      A
C106  C107  1.384 .      A
C106  C112  1.381 .      A
C107  C108  1.382 .      A
C108  C109  1.374 .      A
C109  N31   1.351 1_655  A
C109  C111  1.361 .      A
N31   C109  1.351 1_455  A
N31   C110  1.380 .      A
C110  N32   1.383 .      A
N32   C111  1.345 1_455  A
C111  N32   1.345 1_655  A
C111  C112  1.369 .      A
C113  C114  1.384 .      A
C113  C119  1.385 .      A
C114  C115  1.377 .      A
C115  C116  1.371 .      A
C116  N33   1.340 1_455  A
C116  C118  1.361 .      A
N33   C116  1.340 1_655  A
N33   C117  1.373 .      A
C117  N34   1.370 .      A
N34   C118  1.357 1_655  A
C118  N34   1.357 1_455  A
C118  C119  1.378 .      A
C120  C121  1.391 .      A
C120  C126  1.384 .      A
C121  C122  1.386 .      A
C122  C123  1.372 .      A
C123  N35   1.352 .      A
C123  C125  1.362 .      A
N35   C124  1.372 .      A
C124  N36   1.371 .      A
N36   C125  1.341 .      A
C125  C126  1.372 .      A
C127  C128  1.386 .      A
C127  C133  1.381 .      A
C128  C129  1.385 .      A
C129  C130  1.377 .      A
C130  N37   1.361 .      A
C130  C132  1.356 .      A
N37   C131  1.371 .      A
C131  N38   1.378 .      A
N38   C132  1.336 .      A
C132  C133  1.370 .      A
C134  C135  1.380 .      A
C134  C140  1.385 .      A
C135  C136  1.374 1_556  A
C136  C135  1.374 1_554  A
C136  C137  1.372 .      A
C137  N39   1.342 .      A
C137  C139  1.355 1_554  A
N39   C138  1.379 .      A
C138  N40   1.382 1_554  A
N40   C138  1.382 1_556  A
N40   C139  1.351 .      A
C139  C137  1.355 1_556  A
C139  C140  1.371 .      A
C141  C142  1.380 .      A
C141  C147  1.373 .      A
C142  C143  1.390 .      A
C143  C144  1.369 .      A
C144  N41   1.352 .      A
C144  C146  1.364 .      A
N41   C145  1.376 .      A
C145  N42   1.376 .      A
N42   C146  1.340 .      A
C146  C147  1.369 .      A
C148  C149  1.387 .      A
C148  C154  1.382 .      A
C149  C150  1.383 .      A
C150  C151  1.372 .      A
C151  N43   1.350 .      A
C151  C153  1.362 .      A
N43   C152  1.368 .      A
C152  N44   1.366 .      A
N44   C153  1.346 .      A
C153  C154  1.375 .      A
C155  C156  1.381 .      A
C155  C161  1.394 .      A
C156  C157  1.369 .      A
C157  C158  1.365 .      A
C158  N45   1.333 .      A
C158  C160  1.363 .      A
N45   C159  1.376 .      A
C159  N46   1.370 .      A
N46   C160  1.358 .      A
C160  C161  1.375 .      A
C162  C163  1.387 .      A
C162  C168  1.385 .      A
C163  C164  1.382 .      A
C164  C165  1.372 .      A
C165  N47   1.343 .      A
C165  C167  1.359 .      A
N47   C166  1.386 .      A
C166  N48   1.387 .      A
N48   C167  1.352 .      A
C167  C168  1.370 .      A
C169  C170  1.384 .      A
C169  C175  1.386 .      A
C170  C171  1.379 .      A
C171  C172  1.378 .      A
C172  N49   1.349 .      A
C172  C174  1.359 .      A
N49   C173  1.368 .      A
C173  N50   1.374 .      A
N50   C174  1.351 .      A
C174  C175  1.373 .      A
C176  C177  1.392 .      A
C176  C182  1.385 .      A
C177  C178  1.386 .      A
C178  C179  1.370 .      A
C179  N51   1.347 .      A
C179  C181  1.359 .      A
N51   C180  1.367 .      A
C180  N52   1.368 .      A
N52   C181  1.343 .      A
C181  C182  1.372 .      A
C183  C184  1.387 .      A
C183  C189  1.381 .      A
C184  C185  1.384 .      A
C185  C186  1.378 .      A
C186  N53   1.358 .      A
C186  C188  1.363 .      A
N53   C187  1.375 .      A
C187  N54   1.373 .      A
N54   C188  1.340 .      A
C188  C189  1.372 .      A
C190  C191  1.388 .      A
C190  C196  1.383 .      A
C191  C192  1.385 .      A
C192  C193  1.376 .      A
C193  N55   1.353 .      A
C193  C195  1.360 .      A
N55   C194  1.363 .      A
C194  N56   1.372 .      A
N56   C195  1.347 .      A
C195  C196  1.377 .      A
C197  C198  1.370 .      A
C197  C203  1.384 .      A
C198  C199  1.366 .      A
C199  C200  1.364 .      A
C200  N57   1.339 .      A
C200  C202  1.346 .      A
N57   C201  1.381 .      A
C201  N58   1.383 .      A
N58   C202  1.355 .      A
C202  C203  1.381 .      A
C204  C205  1.385 .      A
C204  C210  1.382 .      A
C205  C206  1.381 .      A
C206  C207  1.380 .      A
C207  N59   1.351 .      A
C207  C209  1.358 .      A
N59   C208  1.376 .      A
C208  N60   1.381 .      A
N60   C209  1.349 .      A
C209  C210  1.376 .      A
C211  C212  1.389 .      A
C211  C217  1.383 1_655  A
C212  C213  1.383 .      A
C213  C214  1.373 .      A
C214  N61   1.349 1_655  A
C214  C216  1.359 1_655  A
N61   C214  1.349 1_455  A
N61   C215  1.365 .      A
C215  N62   1.369 .      A
N62   C216  1.344 .      A
C216  C214  1.359 1_455  A
C216  C217  1.372 .      A
C217  C211  1.383 1_455  A
C218  C219  1.385 1_565  A
C218  C224  1.383 .      A
C219  C218  1.385 1_545  A
C219  C220  1.382 1_545  A
C220  C219  1.382 1_565  A
C220  C221  1.372 .      A
C221  N63   1.347 .      A
C221  C223  1.363 .      A
N63   C222  1.385 .      A
C222  N64   1.385 .      A
N64   C223  1.351 .      A
C223  C224  1.371 .      A
C225  C226  1.391 1_556  A
C225  C231  1.386 .      A
C226  C225  1.391 1_554  A
C226  C227  1.384 .      A
C227  C228  1.371 .      A
C228  N65   1.342 .      A
C228  C230  1.363 .      A
N65   C229  1.368 .      A
C229  N66   1.372 .      A
N66   C230  1.350 .      A
C230  C231  1.371 1_554  A
C231  C230  1.371 1_556  A
C232  C233  1.383 .      A
C232  C238  1.382 .      A
C233  C234  1.378 .      A
C234  C235  1.374 .      A
C235  N67   1.340 .      A
C235  C237  1.365 .      A
N67   C236  1.383 .      A
C236  N68   1.384 .      A
N68   C237  1.360 .      A
C237  C238  1.377 .      A
C239  C240  1.391 .      A
C239  C245  1.386 .      A
C240  C241  1.384 .      A
C241  C242  1.375 .      A
C242  N69   1.344 .      A
C242  C244  1.359 .      A
N69   C243  1.371 .      A
C243  N70   1.367 .      A
N70   C244  1.351 .      A
C244  C245  1.375 .      A
C246  C247  1.385 .      A
C246  C252  1.377 .      A
C247  C248  1.387 .      A
C248  C249  1.374 .      A
C249  N71   1.350 1_455  A
C249  C251  1.357 .      A
N71   C249  1.350 1_655  A
N71   C250  1.377 .      A
C250  N72   1.379 .      A
N72   C251  1.338 1_655  A
C251  N72   1.338 1_455  A
C251  C252  1.366 .      A
C253  C254  1.387 .      A
C253  C259  1.383 .      A
C254  C255  1.383 .      A
C255  C256  1.373 .      A
C256  N73   1.353 .      A
C256  C258  1.362 .      A
N73   C257  1.370 1_655  A
C257  N73   1.370 1_455  A
C257  N74   1.373 .      A
N74   C258  1.345 1_455  A
C258  N74   1.345 1_655  A
C258  C259  1.374 .      A
C260  C261  1.385 .      A
C260  C266  1.388 .      A
C261  C262  1.378 .      A
C262  C263  1.373 .      A
C263  N75   1.343 .      A
C263  C265  1.351 .      A
N75   C264  1.353 .      A
C264  N76   1.358 .      A
N76   C265  1.351 .      A
C265  C266  1.378 .      A
C267  C268  1.392 .      A
C267  C273  1.386 .      A
C268  C269  1.385 .      A
C269  C270  1.369 .      A
C270  N77   1.347 .      A
C270  C272  1.359 .      A
N77   C271  1.367 .      A
C271  N78   1.366 .      A
N78   C272  1.341 .      A
C272  C273  1.371 .      A
C274  C275  1.386 .      A
C274  C280  1.381 .      A
C275  C276  1.379 .      A
C276  C277  1.372 .      A
C277  N79   1.340 .      A
C277  C279  1.348 .      A
N79   C278  1.357 .      A
C278  N80   1.355 .      A
N80   C279  1.349 .      A
C279  C280  1.372 .      A
C281  C282  1.381 .      A
C281  C287  1.383 .      A
C282  C283  1.379 .      A
C283  C284  1.373 .      A
C284  N81   1.350 .      A
C284  C286  1.361 .      A
N81   C285  1.383 .      A
C285  N82   1.386 .      A
N82   C286  1.349 .      A
C286  C287  1.372 .      A
C288  C289  1.385 .      A
C288  C294  1.383 .      A
C289  C290  1.381 .      A
C290  C291  1.373 .      A
C291  N83   1.346 .      A
C291  C293  1.364 .      A
N83   C292  1.380 .      A
C292  N84   1.372 1_455  A
N84   C292  1.372 1_655  A
N84   C293  1.352 1_655  A
C293  N84   1.352 1_455  A
C293  C294  1.371 .      A
C295  C296  1.386 1_655  A
C295  C301  1.384 .      A
C296  C295  1.386 1_455  A
C296  C297  1.380 .      A
C297  C298  1.375 .      A
C298  N85   1.333 .      A
C298  C300  1.351 .      A
N85   C299  1.362 .      A
C299  N86   1.358 .      A
N86   C300  1.361 .      A
C300  C301  1.372 1_455  A
C301  C300  1.372 1_655  A
C302  C303  1.377 .      A
C302  C308  1.380 .      A
C303  C304  1.375 .      A
C304  C305  1.369 .      A
C305  N87   1.343 .      A
C305  C307  1.348 .      A
N87   C306  1.358 .      A
C306  N88   1.361 .      A
N88   C307  1.347 .      A
C307  C308  1.376 .      A
C309  C310  1.383 .      A
C309  C315  1.388 .      A
C310  C311  1.374 .      A
C311  C312  1.363 .      A
C312  N89   1.339 .      A
C312  C314  1.349 .      A
N89   C313  1.372 .      A
C313  N90   1.371 .      A
N90   C314  1.346 .      A
C314  C315  1.370 .      A
C316  C317  1.377 .      A
C316  C322  1.383 .      A
C317  C318  1.374 .      A
C318  C319  1.368 .      A
C319  N91   1.344 .      A
C319  C321  1.354 .      A
N91   C320  1.361 .      A
C320  N92   1.363 .      A
N92   C321  1.345 .      A
C321  C322  1.374 .      A
C323  C324  1.390 .      A
C323  C329  1.383 .      A
C324  C325  1.385 .      A
C325  C326  1.374 .      A
C326  N93   1.341 .      A
C326  C328  1.354 .      A
N93   C327  1.372 .      A
C327  N94   1.375 .      A
N94   C328  1.353 .      A
C328  C329  1.378 .      A
C330  C331  1.387 .      A
C330  C336  1.385 .      A
C331  C332  1.377 .      A
C332  C333  1.370 .      A
C333  N95   1.344 .      A
C333  C335  1.361 .      A
N95   C334  1.364 .      A
C334  N96   1.371 .      A
N96   C335  1.344 .      A
C335  C336  1.371 .      A
C337  C338  1.389 .      A
C337  C343  1.381 1_545  A
C338  C339  1.387 .      A
C339  C340  1.374 1_545  A
C340  C339  1.374 1_565  A
C340  N97   1.355 .      A
C340  C342  1.361 .      A
N97   C341  1.362 .      A
C341  N98   1.373 .      A
N98   C342  1.338 .      A
C342  C343  1.370 .      A
C343  C337  1.381 1_565  A
C344  C345  1.385 .      A
C344  C350  1.382 .      A
C345  C346  1.382 .      A
C346  C347  1.370 .      A
C347  N99   1.349 .      A
C347  C349  1.357 .      A
N99   C348  1.379 .      A
C348  N100  1.380 .      A
N100  C349  1.345 .      A
C349  C350  1.375 .      A
C351  C352  1.390 .      A
C351  C357  1.388 .      A
C352  C353  1.382 .      A
C353  C354  1.367 .      A
C354  N101  1.340 .      A
C354  C356  1.350 .      A
N101  C355  1.353 .      A
C355  N102  1.359 .      A
N102  C356  1.342 .      A
C356  C357  1.373 .      A
C358  C359  1.376 .      A
C358  C364  1.390 .      A
C359  C360  1.368 .      A
C360  C361  1.364 .      A
C361  N103  1.329 .      A
C361  C363  1.355 .      A
N103  C362  1.374 .      A
C362  N104  1.374 .      A
N104  C363  1.352 .      A
C363  C364  1.372 .      A
C365  C366  1.390 .      A
C365  C371  1.386 .      A
C366  C367  1.384 .      A
C367  C368  1.371 .      A
C368  N105  1.342 .      A
C368  C370  1.373 .      A
N105  C369  1.391 .      A
C369  N106  1.388 .      A
N106  C370  1.361 .      A
C370  C371  1.379 .      A
C372  C373  1.390 .      A
C372  C378  1.384 .      A
C373  C374  1.383 .      A
C374  C375  1.372 1_545  A
C375  C374  1.372 1_565  A
C375  N107  1.338 .      A
C375  C377  1.352 .      A
N107  C376  1.371 .      A
C376  N108  1.360 .      A
N108  C377  1.352 .      A
C377  C378  1.376 1_565  A
C378  C377  1.376 1_545  A
C379  C380  1.379 .      A
C379  C385  1.377 .      A
C380  C381  1.382 .      A
C381  C382  1.380 .      A
C382  N109  1.356 .      A
C382  C384  1.341 .      A
N109  C383  1.365 .      A
C383  N110  1.359 .      A
N110  C384  1.340 .      A
C384  C385  1.381 .      A
C386  C387  1.384 .      A
C386  C392  1.378 .      A
C387  C388  1.385 .      A
C388  C389  1.370 .      A
C389  N111  1.351 .      A
C389  C391  1.354 .      A
N111  C390  1.361 .      A
C390  N112  1.360 .      A
N112  C391  1.337 .      A
C391  C392  1.373 .      A
C393  C394  1.370 .      A
C393  C399  1.399 .      A
C394  C395  1.359 .      A
C395  C396  1.367 .      A
C396  N113  1.340 .      A
C396  C398  1.345 .      A
N113  C397  1.374 .      A
C397  N114  1.367 .      A
N114  C398  1.348 .      A
C398  C399  1.383 .      A
C400  C401  1.390 1_655  A
C400  C406  1.384 1_655  A
C401  C400  1.390 1_455  A
C401  C402  1.386 .      A
C402  C403  1.375 .      A
C403  N115  1.355 1_554  A
C403  C405  1.373 .      A
N115  C403  1.355 1_556  A
N115  C404  1.387 .      A
C404  N116  1.392 .      A
N116  C405  1.345 1_556  A
C405  N116  1.345 1_554  A
C405  C406  1.371 .      A
C406  C400  1.384 1_455  A
C407  C408  1.392 .      A
C407  C413  1.381 .      A
C408  C409  1.387 .      A
C409  C410  1.375 .      A
C410  N117  1.354 .      A
C410  C412  1.354 .      A
N117  C411  1.353 .      A
C411  N118  1.359 .      A
N118  C412  1.336 .      A
C412  C413  1.370 .      A
C414  C415  1.388 .      A
C414  C420  1.383 .      A
C415  C416  1.384 .      A
C416  C417  1.375 .      A
C417  N119  1.349 .      A
C417  C419  1.366 .      A
N119  C418  1.389 1_656  A
C418  N119  1.389 1_454  A
C418  N120  1.394 1_454  A
N120  C418  1.394 1_656  A
N120  C419  1.346 .      A
C419  C420  1.372 .      A
C421  C422  1.391 .      A
C421  C427  1.387 .      A
C422  C423  1.383 .      A
C423  C424  1.371 .      A
C424  N121  1.342 .      A
C424  C426  1.359 .      A
N121  C425  1.362 .      A
C425  N122  1.360 .      A
N122  C426  1.351 .      A
C426  C427  1.375 .      A
C428  C429  1.386 .      A
C428  C434  1.382 .      A
C429  C430  1.382 .      A
C430  C431  1.376 .      A
C431  N123  1.347 .      A
C431  C433  1.358 .      A
N123  C432  1.380 .      A
C432  N124  1.378 .      A
N124  C433  1.354 .      A
C433  C434  1.379 .      A
C435  C436  1.387 .      A
C435  C441  1.383 .      A
C436  C437  1.383 .      A
C437  C438  1.372 .      A
C438  N125  1.347 .      A
C438  C440  1.358 .      A
N125  C439  1.385 .      A
C439  N126  1.388 .      A
N126  C440  1.346 .      A
C440  C441  1.374 .      A
C442  C443  1.384 .      A
C442  C448  1.381 .      A
C443  C444  1.381 .      A
C444  C445  1.372 .      A
C445  N127  1.354 .      A
C445  C447  1.353 .      A
N127  C446  1.361 .      A
C446  N128  1.363 .      A
N128  C447  1.339 .      A
C447  C448  1.374 .      A
