data_str_m1_o12038_AFY
_audit_creation_date              2015-10-01T06:40:18-0700
_symmetry_space_group_name_H-M    P1
_symmetry_Int_Tables_number       1
_space_group_crystal_system       triclinic
loop_
_symmetry_equiv_pos_as_xyz
  x,y,z
_cell_length_a                    27.2874878
_cell_length_b                    26.8623338
_cell_length_c                    18.3904712
_cell_angle_alpha                 86.5790183
_cell_angle_beta                  95.7673852
_cell_angle_gamma                 116.917074
_cell_volume                      11957.5251662

loop_
_atom_site_label
_atom_site_type_symbol
_atom_site_description
_atom_site_fract_x
_atom_site_fract_y
_atom_site_fract_z
_atom_type_partial_charge
Zn1   Zn    Zn3+2 0.380332 0.777763 0.743135 0.000000
Zn2   Zn    Zn3+2 0.570515 0.163402 0.745504 0.000000
Zn3   Zn    Zn3+2 0.566976 0.967965 0.540060 0.000000
Zn4   Zn    Zn3+2 0.182341 0.964060 0.721509 0.000000
Zn5   Zn    Zn3+2 0.369865 0.162562 0.533607 0.000000
Zn6   Zn    Zn3+2 0.169443 0.777320 0.523539 0.000000
Zn7   Zn    Zn3+2 0.695516 0.633910 0.322944 0.000000
Zn8   Zn    Zn3+2 0.361701 0.966337 0.325431 0.000000
Zn9   Zn    Zn3+2 0.732655 0.636751 0.968477 0.000000
Zn10  Zn    Zn3+2 0.383600 0.968053 0.956111 0.000000
Zn11  Zn    Zn3+2 0.709880 0.830434 0.548964 0.000000
Zn12  Zn    Zn3+2 0.509505 0.437790 0.528739 0.000000
Zn13  Zn    Zn3+2 0.523143 0.638028 0.736176 0.000000
Zn14  Zn    Zn3+2 0.900643 0.631965 0.548741 0.000000
Zn15  Zn    Zn3+2 0.720240 0.435806 0.752800 0.000000
Zn16  Zn    Zn3+2 0.917595 0.826239 0.761005 0.000000
N1    N     N_2   0.631136 0.955885 0.917346 0.000000
C1    C     C_R   0.595147 0.952982 0.855358 0.000000
C2    C     C_R   0.614511 0.968328 0.788617 0.000000
C3    C     C_R   0.578520 0.951653 0.726255 0.000000
C4    C     C_R   0.523256 0.920682 0.730937 0.000000
C5    C     C_R   0.504094 0.914289 0.797825 0.000000
C6    C     C_R   0.539900 0.928884 0.859784 0.000000
C7    C     C_R   0.488651 0.887202 0.668259 0.000000
N2    N     N_R   0.507276 0.897700 0.598428 0.000000
C8    C     C_R   0.473428 0.848826 0.565336 0.000000
C9    C     C_R   0.481237 0.828669 0.502996 0.000000
C10   C     C_R   0.446696 0.773495 0.484559 0.000000
N3    N     N_2   0.449955 0.751726 0.418630 0.000000
C11   C     C_R   0.409887 0.738081 0.532380 0.000000
C12   C     C_R   0.403402 0.758250 0.595536 0.000000
C13   C     C_R   0.434986 0.813671 0.610390 0.000000
N4    N     N_R   0.442028 0.835915 0.676037 0.000000
H1    H     H_    0.670012 0.963198 0.906174 0.000000
H2    H     H_    0.613308 0.925932 0.956866 0.000000
H3    H     H_    0.658015 0.984306 0.786309 0.000000
H4    H     H_    0.594379 0.954692 0.674235 0.000000
H5    H     H_    0.461282 0.894760 0.801403 0.000000
H6    H     H_    0.525673 0.919788 0.912557 0.000000
H7    H     H_    0.516659 0.853292 0.473957 0.000000
H8    H     H_    0.416311 0.715103 0.403057 0.000000
H9    H     H_    0.466919 0.780182 0.377968 0.000000
H10   H     H_    0.386278 0.694164 0.520790 0.000000
H11   H     H_    0.375777 0.729917 0.633193 0.000000
N5    N     N_2   0.306949 0.676850 0.345787 0.000000
C14   C     C_R   0.302309 0.698180 0.411619 0.000000
C15   C     C_R   0.324032 0.755120 0.420836 0.000000
C16   C     C_R   0.317810 0.776270 0.484150 0.000000
C17   C     C_R   0.291431 0.740189 0.539704 0.000000
C18   C     C_R   0.269848 0.683195 0.530195 0.000000
C19   C     C_R   0.274995 0.662193 0.466520 0.000000
C20   C     C_R   0.277043 0.758604 0.603908 0.000000
N6    N     N_R   0.297107 0.747245 0.674151 0.000000
C21   C     C_R   0.248610 0.716285 0.703966 0.000000
C22   C     C_R   0.240302 0.685607 0.768078 0.000000
C23   C     C_R   0.187208 0.645421 0.778800 0.000000
N7    N     N_2   0.177653 0.608497 0.839481 0.000000
C24   C     C_R   0.143956 0.638923 0.727290 0.000000
C25   C     C_R   0.152715 0.674309 0.666807 0.000000
C26   C     C_R   0.204784 0.714866 0.658490 0.000000
N8    N     N_R   0.221591 0.747846 0.598886 0.000000
H12   H     H_    0.337495 0.704938 0.315079 0.000000
H13   H     H_    0.303806 0.637169 0.350471 0.000000
H14   H     H_    0.344738 0.783280 0.377607 0.000000
H15   H     H_    0.333504 0.820765 0.489623 0.000000
H16   H     H_    0.247446 0.654477 0.572380 0.000000
H17   H     H_    0.257216 0.617526 0.459832 0.000000
H18   H     H_    0.274700 0.689650 0.806179 0.000000
H19   H     H_    0.142269 0.571445 0.832833 0.000000
H20   H     H_    0.212163 0.605356 0.862330 0.000000
H21   H     H_    0.103227 0.605356 0.733635 0.000000
H22   H     H_    0.121057 0.666704 0.623007 0.000000
N9    N     N_2   0.746779 0.194068 0.403263 0.000000
C27   C     C_R   0.704553 0.172368 0.451459 0.000000
C28   C     C_R   0.658809 0.123350 0.437133 0.000000
C29   C     C_R   0.618792 0.101080 0.486230 0.000000
C30   C     C_R   0.622026 0.126831 0.550116 0.000000
C31   C     C_R   0.671256 0.174650 0.566159 0.000000
C32   C     C_R   0.711352 0.196701 0.517077 0.000000
C33   C     C_R   0.589210 0.089996 0.609084 0.000000
N10   N     N_R   0.600950 0.044672 0.612546 0.000000
C34   C     C_R   0.642162 0.063332 0.667872 0.000000
C35   C     C_R   0.686527 0.051802 0.682084 0.000000
C36   C     C_R   0.727939 0.082411 0.734925 0.000000
N11   N     N_2   0.769508 0.066371 0.757479 0.000000
C37   C     C_R   0.726900 0.126301 0.769199 0.000000
C38   C     C_R   0.682572 0.137649 0.754780 0.000000
C39   C     C_R   0.640032 0.104424 0.706430 0.000000
N12   N     N_R   0.599361 0.116050 0.677442 0.000000
H23   H     H_    0.733660 0.181146 0.350193 0.000000
H24   H     H_    0.772867 0.235930 0.409561 0.000000
H25   H     H_    0.656930 0.099659 0.390707 0.000000
H26   H     H_    0.588182 0.059339 0.478842 0.000000
H27   H     H_    0.681535 0.193488 0.618991 0.000000
H28   H     H_    0.750475 0.230663 0.531926 0.000000
H29   H     H_    0.687297 0.016831 0.658124 0.000000
H30   H     H_    0.755538 0.023912 0.755164 0.000000
H31   H     H_    0.791396 0.083845 0.805876 0.000000
H32   H     H_    0.760018 0.150993 0.808766 0.000000
H33   H     H_    0.681797 0.172413 0.780081 0.000000
N13   N     N_2   0.362758 0.244275 0.866275 0.000000
C40   C     C_R   0.378868 0.216249 0.818563 0.000000
C41   C     C_R   0.359247 0.211002 0.746372 0.000000
C42   C     C_R   0.383878 0.195141 0.696350 0.000000
C43   C     C_R   0.427435 0.182616 0.717867 0.000000
C44   C     C_R   0.444192 0.185371 0.790087 0.000000
C45   C     C_R   0.420321 0.201591 0.840884 0.000000
C46   C     C_R   0.458412 0.173082 0.663224 0.000000
N14   N     N_R   0.440763 0.173580 0.591161 0.000000
C47   C     C_R   0.484205 0.181396 0.555968 0.000000
C48   C     C_R   0.492312 0.199195 0.484718 0.000000
C49   C     C_R   0.545623 0.222453 0.464152 0.000000
N15   N     N_2   0.558041 0.250268 0.396278 0.000000
C50   C     C_R   0.588277 0.225675 0.514095 0.000000
C51   C     C_R   0.578302 0.206402 0.585155 0.000000
C52   C     C_R   0.525630 0.183091 0.604489 0.000000
N16   N     N_R   0.510751 0.174644 0.673622 0.000000
H34   H     H_    0.324389 0.242224 0.852757 0.000000
H35   H     H_    0.374805 0.242244 0.920735 0.000000
H36   H     H_    0.328659 0.224920 0.727486 0.000000
H37   H     H_    0.373134 0.199840 0.639841 0.000000
H38   H     H_    0.479945 0.180156 0.802849 0.000000
H39   H     H_    0.437135 0.207512 0.896911 0.000000
H40   H     H_    0.459881 0.202145 0.449153 0.000000
H41   H     H_    0.593563 0.254474 0.376097 0.000000
H42   H     H_    0.525488 0.248175 0.361038 0.000000
H43   H     H_    0.630133 0.247059 0.498728 0.000000
H44   H     H_    0.611377 0.214656 0.626617 0.000000
N17   N     N_2   0.401696 0.979018 0.802579 0.000000
C53   C     C_R   0.375736 0.004025 0.755300 0.000000
C54   C     C_R   0.329145 0.971262 0.714842 0.000000
C55   C     C_R   0.302552 0.992077 0.665502 0.000000
C56   C     C_R   0.314664 0.045394 0.670820 0.000000
C57   C     C_R   0.346443 0.072386 0.730957 0.000000
C58   C     C_R   0.383098 0.056114 0.767520 0.000000
C59   C     C_R   0.277116 0.063731 0.635741 0.000000
N18   N     N_R   0.228209 0.046728 0.668001 0.000000
C60   C     C_R   0.219858 0.092648 0.655790 0.000000
C61   C     C_R   0.184568 0.105998 0.689327 0.000000
C62   C     C_R   0.184777 0.157076 0.672465 0.000000
N19   N     N_2   0.148284 0.171522 0.704653 0.000000
C63   C     C_R   0.221687 0.194699 0.625406 0.000000
C64   C     C_R   0.259693 0.182454 0.596153 0.000000
C65   C     C_R   0.258391 0.131355 0.612165 0.000000
N20   N     N_R   0.296198 0.114630 0.597395 0.000000
H45   H     H_    0.373939 0.940260 0.818680 0.000000
H46   H     H_    0.433458 0.977139 0.779318 0.000000
H47   H     H_    0.306549 0.931655 0.736320 0.000000
H48   H     H_    0.265660 0.967156 0.633306 0.000000
H49   H     H_    0.338013 0.102920 0.753953 0.000000
H50   H     H_    0.408825 0.078460 0.813955 0.000000
H51   H     H_    0.157986 0.077879 0.728752 0.000000
H52   H     H_    0.140868 0.202006 0.676448 0.000000
H53   H     H_    0.114183 0.137846 0.722725 0.000000
H54   H     H_    0.222584 0.235034 0.613948 0.000000
H55   H     H_    0.291147 0.213480 0.565073 0.000000
N21   N     N_2   0.375639 0.874544 0.699299 0.000000
C66   C     C_R   0.321304 0.861048 0.679571 0.000000
C67   C     C_R   0.282652 0.835069 0.728763 0.000000
C68   C     C_R   0.231501 0.832587 0.716928 0.000000
C69   C     C_R   0.222955 0.859524 0.656209 0.000000
C70   C     C_R   0.257218 0.873589 0.601140 0.000000
C71   C     C_R   0.307163 0.875622 0.612505 0.000000
C72   C     C_R   0.172584 0.859187 0.633362 0.000000
N22   N     N_R   0.152041 0.832722 0.568976 0.000000
C73   C     C_R   0.130714 0.863328 0.531418 0.000000
C74   C     C_R   0.108090 0.855589 0.460451 0.000000
C75   C     C_R   0.094585 0.896041 0.428280 0.000000
N23   N     N_2   0.072699 0.891039 0.354659 0.000000
C76   C     C_R   0.107629 0.944093 0.466243 0.000000
C77   C     C_R   0.134592 0.951980 0.535558 0.000000
C78   C     C_R   0.139830 0.908121 0.571032 0.000000
N24   N     N_R   0.164825 0.906279 0.638288 0.000000
H56   H     H_    0.400908 0.906429 0.667565 0.000000
H57   H     H_    0.384228 0.881442 0.753614 0.000000
H58   H     H_    0.292864 0.814911 0.773367 0.000000
H59   H     H_    0.199589 0.810360 0.753234 0.000000
H60   H     H_    0.246567 0.887233 0.549843 0.000000
H61   H     H_    0.333542 0.886918 0.569143 0.000000
H62   H     H_    0.102049 0.819613 0.430493 0.000000
H63   H     H_    0.073784 0.926835 0.329840 0.000000
H64   H     H_    0.079019 0.864083 0.323758 0.000000
H65   H     H_    0.101857 0.978082 0.439050 0.000000
H66   H     H_    0.156756 0.993569 0.555806 0.000000
N25   N     N_2   0.567361 0.197640 0.245957 0.000000
C79   C     C_R   0.548650 0.149692 0.291684 0.000000
C80   C     C_R   0.575376 0.116764 0.298316 0.000000
C81   C     C_R   0.553036 0.066625 0.336308 0.000000
C82   C     C_R   0.511290 0.055033 0.380816 0.000000
C83   C     C_R   0.488858 0.091388 0.379728 0.000000
C84   C     C_R   0.503671 0.135380 0.330672 0.000000
C85   C     C_R   0.483828 0.999394 0.414677 0.000000
N26   N     N_R   0.434214 0.964554 0.376856 0.000000
C86   C     C_R   0.441185 0.919656 0.366813 0.000000
C87   C     C_R   0.411362 0.880824 0.315169 0.000000
C88   C     C_R   0.434615 0.850405 0.289063 0.000000
N27   N     N_2   0.405698 0.810563 0.234250 0.000000
C89   C     C_R   0.490445 0.868815 0.304460 0.000000
C90   C     C_R   0.519247 0.908154 0.357925 0.000000
C91   C     C_R   0.491028 0.926178 0.397800 0.000000
N28   N     N_R   0.515894 0.972244 0.438996 0.000000
H67   H     H_    0.590400 0.197079 0.205321 0.000000
H68   H     H_    0.538435 0.211753 0.230927 0.000000
H69   H     H_    0.611748 0.128202 0.269764 0.000000
H70   H     H_    0.570344 0.037786 0.333557 0.000000
H71   H     H_    0.459012 0.084887 0.416534 0.000000
H72   H     H_    0.481044 0.159656 0.325489 0.000000
H73   H     H_    0.374861 0.880343 0.288644 0.000000
H74   H     H_    0.363513 0.793400 0.234169 0.000000
H75   H     H_    0.421539 0.782907 0.228561 0.000000
H76   H     H_    0.511348 0.854476 0.270978 0.000000
H77   H     H_    0.563259 0.929333 0.363242 0.000000
N29   N     N_2   0.627394 0.048857 0.181087 0.000000
C92   C     C_R   0.569724 0.029450 0.172772 0.000000
C93   C     C_R   0.547596 0.065450 0.150741 0.000000
C94   C     C_R   0.491436 0.046856 0.147680 0.000000
C95   C     C_R   0.456579 0.991160 0.157312 0.000000
C96   C     C_R   0.478691 0.954683 0.173342 0.000000
C97   C     C_R   0.535027 0.973697 0.183177 0.000000
C98   C     C_R   0.396809 0.971486 0.146661 0.000000
N30   N     N_R   0.370238 0.970113 0.076358 0.000000
C99   C     C_R   0.322630 0.968642 0.095494 0.000000
C100  C     C_R   0.286991 0.983606 0.053231 0.000000
C101  C     C_R   0.248739 0.993355 0.085853 0.000000
N31   N     N_2   0.220325 0.020113 0.046076 0.000000
C102  C     C_R   0.242776 0.983058 0.159373 0.000000
C103  C     C_R   0.278054 0.967465 0.201908 0.000000
C104  C     C_R   0.319141 0.963786 0.169505 0.000000
N32   N     N_R   0.365252 0.966571 0.205548 0.000000
H78   H     H_    0.649950 0.091392 0.186235 0.000000
H79   H     H_    0.640228 0.024743 0.215681 0.000000
H80   H     H_    0.574198 0.109018 0.139956 0.000000
H81   H     H_    0.474803 0.076170 0.138273 0.000000
H82   H     H_    0.451582 0.910804 0.173715 0.000000
H83   H     H_    0.551992 0.944492 0.195253 0.000000
H84   H     H_    0.292863 0.994682 0.998113 0.000000
H85   H     H_    0.186670 0.017797 0.069561 0.000000
H86   H     H_    0.216293 0.015114 0.990638 0.000000
H87   H     H_    0.214365 0.992989 0.184132 0.000000
H88   H     H_    0.279065 0.966772 0.260331 0.000000
N33   N     N_2   0.480663 0.998336 0.653775 0.000000
C105  C     C_R   0.444097 0.007164 0.602369 0.000000
C106  C     C_R   0.419475 0.972486 0.544266 0.000000
C107  C     C_R   0.383998 0.982627 0.494041 0.000000
C108  C     C_R   0.377138 0.029426 0.499600 0.000000
C109  C     C_R   0.394242 0.056893 0.562785 0.000000
C110  C     C_R   0.429870 0.048034 0.612978 0.000000
C111  C     C_R   0.361241 0.056398 0.437150 0.000000
N34   N     N_R   0.358480 0.039140 0.366165 0.000000
C112  C     C_R   0.358227 0.083216 0.326652 0.000000
C113  C     C_R   0.361161 0.092785 0.252593 0.000000
C114  C     C_R   0.360806 0.141339 0.223369 0.000000
N35   N     N_2   0.357318 0.149480 0.147125 0.000000
C115  C     C_R   0.365366 0.182702 0.268836 0.000000
C116  C     C_R   0.367524 0.174581 0.343501 0.000000
C117  C     C_R   0.360639 0.123697 0.371252 0.000000
N36   N     N_R   0.362435 0.108882 0.442449 0.000000
H89   H     H_    0.500519 0.029257 0.691719 0.000000
H90   H     H_    0.504990 0.986413 0.628360 0.000000
H91   H     H_    0.427325 0.937038 0.538121 0.000000
H92   H     H_    0.363154 0.954792 0.449967 0.000000
H93   H     H_    0.378158 0.084751 0.571899 0.000000
H94   H     H_    0.446238 0.072154 0.661420 0.000000
H95   H     H_    0.365214 0.064607 0.217826 0.000000
H96   H     H_    0.344820 0.179456 0.130421 0.000000
H97   H     H_    0.338742 0.112937 0.118372 0.000000
H98   H     H_    0.369026 0.222212 0.246244 0.000000
H99   H     H_    0.377023 0.208217 0.378734 0.000000
N37   N     N_2   0.197495 0.060398 0.355853 0.000000
C118  C     C_R   0.208245 0.014360 0.374255 0.000000
C119  C     C_R   0.235822 0.012155 0.440142 0.000000
C120  C     C_R   0.246931 0.967385 0.457783 0.000000
C121  C     C_R   0.230263 0.923856 0.410004 0.000000
C122  C     C_R   0.200138 0.925225 0.345635 0.000000
C123  C     C_R   0.189267 0.970095 0.327870 0.000000
C124  C     C_R   0.253181 0.883373 0.414600 0.000000
N38   N     N_R   0.220147 0.826695 0.433541 0.000000
C125  C     C_R   0.230852 0.800593 0.381496 0.000000
C126  C     C_R   0.206872 0.744164 0.369736 0.000000
C127  C     C_R   0.213485 0.726331 0.303955 0.000000
N39   N     N_2   0.186528 0.669021 0.287451 0.000000
C128  C     C_R   0.245229 0.765017 0.253268 0.000000
C129  C     C_R   0.272942 0.821329 0.269126 0.000000
C130  C     C_R   0.268153 0.838118 0.336250 0.000000
N40   N     N_R   0.288443 0.890972 0.360528 0.000000
H100  H     H_    0.223801 0.096279 0.383335 0.000000
H101  H     H_    0.189562 0.065287 0.300696 0.000000
H102  H     H_    0.249957 0.046119 0.477785 0.000000
H103  H     H_    0.271586 0.969163 0.507499 0.000000
H104  H     H_    0.186691 0.891808 0.307071 0.000000
H105  H     H_    0.164503 0.969673 0.278157 0.000000
H106  H     H_    0.181608 0.714833 0.409363 0.000000
H107  H     H_    0.180790 0.660807 0.232485 0.000000
H108  H     H_    0.153273 0.645823 0.317220 0.000000
H109  H     H_    0.248572 0.751272 0.200801 0.000000
H110  H     H_    0.294963 0.851020 0.227696 0.000000
N41   N     N_2   0.547132 0.365493 0.081601 0.000000
C131  C     C_R   0.589220 0.405657 0.041672 0.000000
C132  C     C_R   0.580580 0.446346 0.001732 0.000000
C133  C     C_R   0.616457 0.478148 0.950392 0.000000
C134  C     C_R   0.662171 0.470971 0.940898 0.000000
C135  C     C_R   0.673754 0.434755 0.987982 0.000000
C136  C     C_R   0.636798 0.400976 0.036344 0.000000
C137  C     C_R   0.705225 0.510380 0.895728 0.000000
N42   N     N_R   0.732915 0.487736 0.857008 0.000000
C138  C     C_R   0.782116 0.509621 0.897266 0.000000
C139  C     C_R   0.820581 0.489541 0.901370 0.000000
C140  C     C_R   0.858210 0.502863 0.962059 0.000000
N43   N     N_2   0.893216 0.476886 0.973669 0.000000
C141  C     C_R   0.858230 0.537859 0.014776 0.000000
C142  C     C_R   0.821528 0.560712 0.007028 0.000000
C143  C     C_R   0.785697 0.549120 0.945397 0.000000
N44   N     N_R   0.740329 0.557840 0.936507 0.000000
H111  H     H_    0.558826 0.339554 0.114012 0.000000
H112  H     H_    0.521762 0.379324 0.101946 0.000000
H113  H     H_    0.542439 0.448705 0.004498 0.000000
H114  H     H_    0.606572 0.505881 0.914176 0.000000
H115  H     H_    0.712357 0.433026 0.988732 0.000000
H116  H     H_    0.645226 0.370563 0.069203 0.000000
H117  H     H_    0.817726 0.459592 0.862388 0.000000
H118  H     H_    0.907377 0.475566 0.027400 0.000000
H119  H     H_    0.880030 0.440700 0.945001 0.000000
H120  H     H_    0.885461 0.545497 0.064191 0.000000
H121  H     H_    0.816485 0.580648 0.052862 0.000000
N45   N     N_2   0.023397 0.711898 0.101214 0.000000
C144  C     C_R   0.982373 0.718246 0.054354 0.000000
C145  C     C_R   0.996842 0.758928 0.000689 0.000000
C146  C     C_R   0.956590 0.762390 0.952203 0.000000
C147  C     C_R   0.901382 0.727433 0.958103 0.000000
C148  C     C_R   0.887223 0.690951 0.016728 0.000000
C149  C     C_R   0.927389 0.683729 0.061648 0.000000
C150  C     C_R   0.858629 0.734247 0.908552 0.000000
N46   N     N_R   0.875956 0.784938 0.867316 0.000000
C151  C     C_R   0.843874 0.804620 0.893539 0.000000
C152  C     C_R   0.856327 0.859772 0.897457 0.000000
C153  C     C_R   0.829116 0.874752 0.944529 0.000000
N47   N     N_2   0.844497 0.931677 0.955014 0.000000
C154  C     C_R   0.788546 0.833961 0.984170 0.000000
C155  C     C_R   0.774132 0.778110 0.976634 0.000000
C156  C     C_R   0.803325 0.764342 0.932751 0.000000
N48   N     N_R   0.806867 0.715922 0.936735 0.000000
H122  H     H_    0.062187 0.731766 0.082896 0.000000
H123  H     H_    0.011820 0.671668 0.120035 0.000000
H124  H     H_    0.039715 0.786589 0.994020 0.000000
H125  H     H_    0.968897 0.790525 0.906719 0.000000
H126  H     H_    0.844653 0.667669 0.027413 0.000000
H127  H     H_    0.915605 0.651676 0.103750 0.000000
H128  H     H_    0.891310 0.890803 0.872515 0.000000
H129  H     H_    0.834643 0.939926 0.003980 0.000000
H130  H     H_    0.883223 0.958497 0.939919 0.000000
H131  H     H_    0.768504 0.845895 0.022310 0.000000
H132  H     H_    0.746430 0.747148 0.011822 0.000000
N49   N     N_2   0.510653 0.694983 0.118090 0.000000
C157  C     C_R   0.536564 0.685697 0.061482 0.000000
C158  C     C_R   0.506186 0.660705 0.997941 0.000000
C159  C     C_R   0.531614 0.652182 0.942254 0.000000
C160  C     C_R   0.587524 0.667070 0.950329 0.000000
C161  C     C_R   0.617532 0.692028 0.014183 0.000000
C162  C     C_R   0.592454 0.702017 0.069135 0.000000
C163  C     C_R   0.612090 0.650773 0.894056 0.000000
N50   N     N_R   0.580899 0.628882 0.827700 0.000000
C164  C     C_R   0.605510 0.598542 0.811432 0.000000
C165  C     C_R   0.591065 0.564123 0.756410 0.000000
C166  C     C_R   0.627353 0.546010 0.738581 0.000000
N51   N     N_2   0.622779 0.528170 0.668795 0.000000
C167  C     C_R   0.677909 0.564859 0.773858 0.000000
C168  C     C_R   0.692434 0.601600 0.828580 0.000000
C169  C     C_R   0.652664 0.610654 0.852235 0.000000
N52   N     N_R   0.659490 0.641303 0.908549 0.000000
H133  H     H_    0.472921 0.693753 0.101925 0.000000
H134  H     H_    0.536664 0.727255 0.151804 0.000000
H135  H     H_    0.462276 0.647641 0.991352 0.000000
H136  H     H_    0.506427 0.631429 0.893845 0.000000
H137  H     H_    0.660396 0.702463 0.022558 0.000000
H138  H     H_    0.616628 0.721273 0.118974 0.000000
H139  H     H_    0.564348 0.569243 0.716784 0.000000
H140  H     H_    0.660121 0.537871 0.649713 0.000000
H141  H     H_    0.589537 0.527057 0.636793 0.000000
H142  H     H_    0.706093 0.552267 0.754915 0.000000
H143  H     H_    0.733715 0.623273 0.851995 0.000000
N53   N     N_2   0.967983 0.780087 0.213309 0.000000
C170  C     C_R   0.911142 0.746723 0.195748 0.000000
C171  C     C_R   0.886963 0.690632 0.214445 0.000000
C172  C     C_R   0.831327 0.657836 0.197202 0.000000
C173  C     C_R   0.799074 0.681839 0.165199 0.000000
C174  C     C_R   0.823258 0.737885 0.146677 0.000000
C175  C     C_R   0.879278 0.770081 0.160536 0.000000
C176  C     C_R   0.739507 0.648680 0.151618 0.000000
N54   N     N_R   0.714579 0.630952 0.081543 0.000000
C177  C     C_R   0.660833 0.604445 0.095410 0.000000
C178  C     C_R   0.615490 0.576031 0.048048 0.000000
C179  C     C_R   0.563270 0.556797 0.071785 0.000000
N55   N     N_2   0.516080 0.532656 0.022162 0.000000
C180  C     C_R   0.557416 0.564835 0.143227 0.000000
C181  C     C_R   0.603566 0.591407 0.190710 0.000000
C182  C     C_R   0.654300 0.609044 0.166472 0.000000
N56   N     N_R   0.702662 0.634622 0.206205 0.000000
H144  H     H_    0.990577 0.758026 0.222770 0.000000
H145  H     H_    0.985125 0.815727 0.181585 0.000000
H146  H     H_    0.911548 0.672175 0.242270 0.000000
H147  H     H_    0.812936 0.613838 0.210704 0.000000
H148  H     H_    0.798062 0.757106 0.123312 0.000000
H149  H     H_    0.897577 0.814051 0.146247 0.000000
H150  H     H_    0.620000 0.569313 0.993638 0.000000
H151  H     H_    0.480894 0.504573 0.045227 0.000000
H152  H     H_    0.522778 0.522992 0.971986 0.000000
H153  H     H_    0.516873 0.551393 0.161351 0.000000
H154  H     H_    0.600886 0.600791 0.244691 0.000000
N57   N     N_2   0.189270 0.663481 0.049516 0.000000
C183  C     C_R   0.227881 0.707322 0.008783 0.000000
C184  C     C_R   0.214011 0.717585 0.937712 0.000000
C185  C     C_R   0.251588 0.760464 0.897423 0.000000
C186  C     C_R   0.304595 0.794947 0.927201 0.000000
C187  C     C_R   0.316664 0.784585 0.000645 0.000000
C188  C     C_R   0.279257 0.741343 0.040279 0.000000
C189  C     C_R   0.349519 0.838949 0.884152 0.000000
N58   N     N_R   0.379584 0.815702 0.852596 0.000000
C190  C     C_R   0.422570 0.831390 0.904077 0.000000
C191  C     C_R   0.453665 0.803714 0.924531 0.000000
C192  C     C_R   0.487586 0.819312 0.989315 0.000000
N59   N     N_2   0.519877 0.792059 0.013498 0.000000
C193  C     C_R   0.488217 0.860199 0.032729 0.000000
C194  C     C_R   0.456609 0.887404 0.011010 0.000000
C195  C     C_R   0.425674 0.874099 0.945659 0.000000
N60   N     N_R   0.383585 0.886470 0.926218 0.000000
H155  H     H_    0.158466 0.632492 0.018142 0.000000
H156  H     H_    0.206578 0.650204 0.093967 0.000000
H157  H     H_    0.172878 0.692584 0.913167 0.000000
H158  H     H_    0.236128 0.766889 0.844082 0.000000
H159  H     H_    0.355701 0.809081 0.029781 0.000000
H160  H     H_    0.290841 0.734510 0.096527 0.000000
H161  H     H_    0.448435 0.768235 0.894260 0.000000
H162  H     H_    0.553505 0.815093 0.048699 0.000000
H163  H     H_    0.526991 0.771805 0.973386 0.000000
H164  H     H_    0.512499 0.870004 0.084743 0.000000
H165  H     H_    0.452411 0.915187 0.046198 0.000000
N61   N     N_2   0.684357 0.054549 0.030330 0.000000
C196  C     C_R   0.637340 0.051086 0.986790 0.000000
C197  C     C_R   0.585306 0.015968 0.006455 0.000000
C198  C     C_R   0.539571 0.015894 0.967007 0.000000
C199  C     C_R   0.544373 0.044045 0.900833 0.000000
C200  C     C_R   0.596571 0.075490 0.878882 0.000000
C201  C     C_R   0.642857 0.080869 0.922442 0.000000
C202  C     C_R   0.500717 0.058698 0.870461 0.000000
N62   N     N_R   0.458712 0.044787 0.918393 0.000000
C203  C     C_R   0.472437 0.096189 0.942534 0.000000
C204  C     C_R   0.455275 0.109294 0.003189 0.000000
C205  C     C_R   0.480152 0.164444 0.025036 0.000000
N63   N     N_2   0.465000 0.179512 0.088062 0.000000
C206  C     C_R   0.520067 0.205190 0.984902 0.000000
C207  C     C_R   0.534953 0.191517 0.922407 0.000000
C208  C     C_R   0.511473 0.136720 0.901903 0.000000
N64   N     N_R   0.523728 0.114567 0.845723 0.000000
H166  H     H_    0.719394 0.069042 0.002804 0.000000
H167  H     H_    0.677103 0.020509 0.064310 0.000000
H168  H     H_    0.580183 0.988992 0.053590 0.000000
H169  H     H_    0.500606 0.994656 0.989880 0.000000
H170  H     H_    0.601628 0.100602 0.830621 0.000000
H171  H     H_    0.683407 0.108766 0.906271 0.000000
H172  H     H_    0.423843 0.077214 0.033629 0.000000
H173  H     H_    0.492514 0.218232 0.107609 0.000000
H174  H     H_    0.451105 0.148159 0.126825 0.000000
H175  H     H_    0.538783 0.248377 0.001041 0.000000
H176  H     H_    0.563466 0.223623 0.890099 0.000000
N65   N     N_2   0.271383 0.171808 0.967816 0.000000
C209  C     C_R   0.278036 0.130964 0.931001 0.000000
C210  C     C_R   0.239173 0.100346 0.876887 0.000000
C211  C     C_R   0.243275 0.057405 0.845081 0.000000
C212  C     C_R   0.286587 0.044744 0.866442 0.000000
C213  C     C_R   0.328010 0.079320 0.915033 0.000000
C214  C     C_R   0.323441 0.121452 0.948569 0.000000
C215  C     C_R   0.283173 0.990340 0.847491 0.000000
N66   N     N_R   0.234697 0.952577 0.810666 0.000000
C216  C     C_R   0.226140 0.905088 0.849056 0.000000
C217  C     C_R   0.176821 0.858732 0.856866 0.000000
C218  C     C_R   0.172846 0.824260 0.918336 0.000000
N67   N     N_2   0.124462 0.775202 0.929323 0.000000
C219  C     C_R   0.216979 0.837139 0.969777 0.000000
C220  C     C_R   0.267179 0.879914 0.956752 0.000000
C221  C     C_R   0.270815 0.913222 0.896568 0.000000
N68   N     N_R   0.311090 0.965048 0.891626 0.000000
H177  H     H_    0.231305 0.165926 0.965854 0.000000
H178  H     H_    0.293595 0.182524 0.017778 0.000000
H179  H     H_    0.203804 0.107930 0.861673 0.000000
H180  H     H_    0.209785 0.031853 0.807244 0.000000
H181  H     H_    0.361612 0.069950 0.931329 0.000000
H182  H     H_    0.355202 0.146276 0.989426 0.000000
H183  H     H_    0.142017 0.852673 0.819215 0.000000
H184  H     H_    0.124479 0.758509 0.981102 0.000000
H185  H     H_    0.117676 0.746344 0.890589 0.000000
H186  H     H_    0.213451 0.811728 0.018649 0.000000
H187  H     H_    0.301738 0.888884 0.996286 0.000000
N69   N     N_2   0.646928 0.648291 0.671487 0.000000
C222  C     C_R   0.693849 0.697044 0.673880 0.000000
C223  C     C_R   0.720983 0.722926 0.736017 0.000000
C224  C     C_R   0.767029 0.771115 0.727185 0.000000
C225  C     C_R   0.789109 0.783178 0.660760 0.000000
C226  C     C_R   0.759275 0.759022 0.600775 0.000000
C227  C     C_R   0.708973 0.721125 0.610094 0.000000
C228  C     C_R   0.822226 0.837260 0.648966 0.000000
N70   N     N_R   0.866349 0.862637 0.700005 0.000000
C229  C     C_R   0.864277 0.911325 0.707557 0.000000
C230  C     C_R   0.897142 0.953372 0.755637 0.000000
C231  C     C_R   0.888551 0.000006 0.755853 0.000000
N71   N     N_2   0.924060 0.045741 0.799936 0.000000
C232  C     C_R   0.843717 0.000857 0.714816 0.000000
C233  C     C_R   0.807386 0.955616 0.673172 0.000000
C234  C     C_R   0.821444 0.913664 0.662745 0.000000
N72   N     N_R   0.793311 0.866605 0.621908 0.000000
H188  H     H_    0.658779 0.624046 0.644958 0.000000
H189  H     H_    0.615288 0.649738 0.638374 0.000000
H190  H     H_    0.705053 0.709708 0.788611 0.000000
H191  H     H_    0.786515 0.798502 0.772486 0.000000
H192  H     H_    0.769953 0.779330 0.548987 0.000000
H193  H     H_    0.677511 0.718350 0.572135 0.000000
H194  H     H_    0.931544 0.952003 0.788636 0.000000
H195  H     H_    0.923521 0.082829 0.783711 0.000000
H196  H     H_    0.962441 0.047865 0.813720 0.000000
H197  H     H_    0.836674 0.036948 0.716382 0.000000
H198  H     H_    0.768347 0.953156 0.652903 0.000000
N73   N     N_2   0.632795 0.869833 0.187976 0.000000
C235  C     C_R   0.631853 0.878047 0.262730 0.000000
C236  C     C_R   0.667119 0.928139 0.294381 0.000000
C237  C     C_R   0.666917 0.935404 0.367839 0.000000
C238  C     C_R   0.630072 0.893246 0.411067 0.000000
C239  C     C_R   0.592493 0.845359 0.377048 0.000000
C240  C     C_R   0.594552 0.836590 0.304291 0.000000
C241  C     C_R   0.636588 0.898153 0.491954 0.000000
N74   N     N_R   0.685753 0.896629 0.517687 0.000000
C242  C     C_R   0.718650 0.951306 0.528399 0.000000
C243  C     C_R   0.774317 0.978709 0.519845 0.000000
C244  C     C_R   0.800005 0.036543 0.520109 0.000000
N75   N     N_2   0.857310 0.066113 0.514048 0.000000
C245  C     C_R   0.769239 0.065487 0.524966 0.000000
C246  C     C_R   0.712559 0.037111 0.527134 0.000000
C247  C     C_R   0.687798 0.979881 0.529218 0.000000
N76   N     N_R   0.633355 0.945378 0.515698 0.000000
H199  H     H_    0.669207 0.896353 0.166285 0.000000
H200  H     H_    0.616754 0.828577 0.173974 0.000000
H201  H     H_    0.696218 0.961593 0.262398 0.000000
H202  H     H_    0.696779 0.974865 0.390079 0.000000
H203  H     H_    0.560492 0.815589 0.407683 0.000000
H204  H     H_    0.564608 0.798306 0.278692 0.000000
H205  H     H_    0.797165 0.955591 0.512799 0.000000
H206  H     H_    0.870297 0.106517 0.494907 0.000000
H207  H     H_    0.873995 0.043552 0.491810 0.000000
H208  H     H_    0.789197 0.110628 0.524220 0.000000
H209  H     H_    0.688503 0.059374 0.526663 0.000000
N77   N     N_2   0.712199 0.881393 0.933763 0.000000
C248  C     C_R   0.698124 0.844350 0.875410 0.000000
C249  C     C_R   0.725252 0.861872 0.812853 0.000000
C250  C     C_R   0.702939 0.831217 0.750122 0.000000
C251  C     C_R   0.655677 0.781482 0.749713 0.000000
C252  C     C_R   0.631681 0.761809 0.814483 0.000000
C253  C     C_R   0.652855 0.793044 0.877156 0.000000
C254  C     C_R   0.626888 0.754575 0.679803 0.000000
N78   N     N_R   0.644013 0.777141 0.610973 0.000000
C255  C     C_R   0.599159 0.745817 0.567289 0.000000
C256  C     C_R   0.590379 0.750763 0.493675 0.000000
C257  C     C_R   0.539611 0.715161 0.460353 0.000000
N79   N     N_2   0.529790 0.716319 0.384175 0.000000
C258  C     C_R   0.497372 0.680998 0.502152 0.000000
C259  C     C_R   0.507838 0.678825 0.576473 0.000000
C260  C     C_R   0.559945 0.706419 0.605651 0.000000
N80   N     N_R   0.576207 0.707294 0.676458 0.000000
H210  H     H_    0.734691 0.922771 0.919810 0.000000
H211  H     H_    0.680849 0.872508 0.966731 0.000000
H212  H     H_    0.760576 0.902338 0.810458 0.000000
H213  H     H_    0.719740 0.848525 0.699481 0.000000
H214  H     H_    0.591653 0.726522 0.814127 0.000000
H215  H     H_    0.629746 0.780701 0.924763 0.000000
H216  H     H_    0.621275 0.782185 0.463002 0.000000
H217  H     H_    0.491731 0.686783 0.364239 0.000000
H218  H     H_    0.563599 0.724155 0.356666 0.000000
H219  H     H_    0.456120 0.657853 0.477088 0.000000
H220  H     H_    0.476374 0.661971 0.613584 0.000000
N81   N     N_2   0.642930 0.518261 0.521972 0.000000
C261  C     C_R   0.652367 0.573084 0.519838 0.000000
C262  C     C_R   0.702212 0.609440 0.503694 0.000000
C263  C     C_R   0.709740 0.659837 0.481419 0.000000
C264  C     C_R   0.668206 0.672953 0.469048 0.000000
C265  C     C_R   0.617256 0.638233 0.490900 0.000000
C266  C     C_R   0.610540 0.588553 0.522203 0.000000
C267  C     C_R   0.683666 0.721452 0.425397 0.000000
N82   N     N_R   0.697491 0.713996 0.358263 0.000000
C268  C     C_R   0.720084 0.767129 0.332813 0.000000
C269  C     C_R   0.738261 0.785344 0.264997 0.000000
C270  C     C_R   0.760160 0.842217 0.249902 0.000000
N83   N     N_2   0.778953 0.862557 0.180691 0.000000
C271  C     C_R   0.764247 0.879339 0.302613 0.000000
C272  C     C_R   0.746388 0.860429 0.371350 0.000000
C273  C     C_R   0.723889 0.804120 0.385283 0.000000
N84   N     N_R   0.703775 0.777632 0.448390 0.000000
H221  H     H_    0.661975 0.509784 0.482294 0.000000
H222  H     H_    0.602460 0.493247 0.523962 0.000000
H223  H     H_    0.732241 0.595227 0.499047 0.000000
H224  H     H_    0.746726 0.689055 0.464358 0.000000
H225  H     H_    0.582655 0.646982 0.480408 0.000000
H226  H     H_    0.569620 0.558863 0.533939 0.000000
H227  H     H_    0.735123 0.756092 0.224791 0.000000
H228  H     H_    0.779443 0.900364 0.166201 0.000000
H229  H     H_    0.761812 0.832357 0.141577 0.000000
H230  H     H_    0.782038 0.923611 0.290279 0.000000
H231  H     H_    0.749902 0.889112 0.412424 0.000000
N85   N     N_2   0.701526 0.363795 0.377929 0.000000
C274  C     C_R   0.684317 0.385640 0.432513 0.000000
C275  C     C_R   0.719849 0.414180 0.490526 0.000000
C276  C     C_R   0.699410 0.426580 0.548529 0.000000
C277  C     C_R   0.645138 0.414042 0.548622 0.000000
C278  C     C_R   0.611113 0.390874 0.487132 0.000000
C279  C     C_R   0.630413 0.375579 0.430347 0.000000
C280  C     C_R   0.623375 0.424830 0.612963 0.000000
N86   N     N_R   0.648646 0.428836 0.684485 0.000000
C281  C     C_R   0.607539 0.423052 0.723543 0.000000
C282  C     C_R   0.604215 0.412544 0.796782 0.000000
C283  C     C_R   0.554653 0.400645 0.824398 0.000000
N87   N     N_2   0.540218 0.369581 0.889868 0.000000
C284  C     C_R   0.514933 0.410003 0.782057 0.000000
C285  C     C_R   0.519215 0.419195 0.707869 0.000000
C286  C     C_R   0.563440 0.420993 0.679713 0.000000
N88   N     N_R   0.571446 0.424496 0.608378 0.000000
H232  H     H_    0.742892 0.374879 0.380664 0.000000
H233  H     H_    0.681249 0.361189 0.326938 0.000000
H234  H     H_    0.762913 0.423828 0.493512 0.000000
H235  H     H_    0.724990 0.443532 0.595793 0.000000
H236  H     H_    0.568436 0.381968 0.484872 0.000000
H237  H     H_    0.602823 0.353656 0.384892 0.000000
H238  H     H_    0.635351 0.404382 0.828199 0.000000
H239  H     H_    0.498574 0.346305 0.894369 0.000000
H240  H     H_    0.565013 0.351172 0.908550 0.000000
H241  H     H_    0.475711 0.397516 0.803464 0.000000
H242  H     H_    0.484846 0.412455 0.669823 0.000000
N89   N     N_2   0.554418 0.285096 0.787201 0.000000
C287  C     C_R   0.529881 0.295848 0.721898 0.000000
C288  C     C_R   0.482601 0.301365 0.723079 0.000000
C289  C     C_R   0.454819 0.306044 0.659405 0.000000
C290  C     C_R   0.472900 0.301707 0.595383 0.000000
C291  C     C_R   0.522475 0.301470 0.593194 0.000000
C292  C     C_R   0.551995 0.299807 0.656941 0.000000
C293  C     C_R   0.439664 0.301111 0.531079 0.000000
N90   N     N_R   0.392929 0.252320 0.508135 0.000000
C294  C     C_R   0.365730 0.274403 0.462611 0.000000
C295  C     C_R   0.314994 0.245748 0.424979 0.000000
C296  C     C_R   0.295309 0.275480 0.377063 0.000000
N91   N     N_2   0.243865 0.247534 0.336679 0.000000
C297  C     C_R   0.326917 0.332540 0.367079 0.000000
C298  C     C_R   0.377402 0.360853 0.406471 0.000000
C299  C     C_R   0.395644 0.331840 0.456697 0.000000
N92   N     N_R   0.442973 0.351395 0.501902 0.000000
H243  H     H_    0.532604 0.281272 0.831080 0.000000
H244  H     H_    0.594716 0.312932 0.795473 0.000000
H245  H     H_    0.466495 0.301629 0.773872 0.000000
H246  H     H_    0.417143 0.310029 0.659835 0.000000
H247  H     H_    0.536963 0.300062 0.541866 0.000000
H248  H     H_    0.590371 0.298522 0.654706 0.000000
H249  H     H_    0.291769 0.201037 0.431763 0.000000
H250  H     H_    0.239204 0.268266 0.289658 0.000000
H251  H     H_    0.230632 0.205318 0.331928 0.000000
H252  H     H_    0.312412 0.355380 0.327615 0.000000
H253  H     H_    0.402330 0.403595 0.394147 0.000000
N93   N     N_2   0.333641 0.368826 0.859502 0.000000
C300  C     C_R   0.371585 0.403082 0.809622 0.000000
C301  C     C_R   0.363359 0.388854 0.737008 0.000000
C302  C     C_R   0.399509 0.423356 0.687736 0.000000
C303  C     C_R   0.446006 0.471316 0.711182 0.000000
C304  C     C_R   0.453312 0.485595 0.783964 0.000000
C305  C     C_R   0.416279 0.451846 0.832798 0.000000
C306  C     C_R   0.482771 0.510721 0.657981 0.000000
N94   N     N_R   0.480033 0.490856 0.587443 0.000000
C307  C     C_R   0.455883 0.519283 0.549319 0.000000
C308  C     C_R   0.426579 0.504130 0.483204 0.000000
C309  C     C_R   0.386337 0.521328 0.463378 0.000000
N95   N     N_2   0.352789 0.503190 0.397482 0.000000
C310  C     C_R   0.375622 0.552067 0.511739 0.000000
C311  C     C_R   0.407336 0.568783 0.577388 0.000000
C312  C     C_R   0.452069 0.557383 0.592305 0.000000
N96   N     N_R   0.481047 0.561899 0.658236 0.000000
H254  H     H_    0.309454 0.328499 0.842552 0.000000
H255  H     H_    0.349613 0.373366 0.913171 0.000000
H256  H     H_    0.327785 0.351362 0.717885 0.000000
H257  H     H_    0.391004 0.412030 0.630821 0.000000
H258  H     H_    0.487284 0.524008 0.803134 0.000000
H259  H     H_    0.422486 0.464021 0.889250 0.000000
H260  H     H_    0.432580 0.476124 0.451196 0.000000
H261  H     H_    0.315796 0.504865 0.396447 0.000000
H262  H     H_    0.350587 0.467083 0.377947 0.000000
H263  H     H_    0.341844 0.562590 0.498969 0.000000
H264  H     H_    0.396046 0.589713 0.615812 0.000000
N97   N     N_2   0.418789 0.591250 0.210040 0.000000
C313  C     C_R   0.455618 0.578877 0.257987 0.000000
C314  C     C_R   0.442161 0.524791 0.279414 0.000000
C315  C     C_R   0.478987 0.513007 0.324722 0.000000
C316  C     C_R   0.528508 0.555126 0.353555 0.000000
C317  C     C_R   0.541703 0.609283 0.331071 0.000000
C318  C     C_R   0.506461 0.620485 0.281136 0.000000
C319  C     C_R   0.569989 0.539499 0.392156 0.000000
N98   N     N_R   0.547258 0.484950 0.422490 0.000000
C320  C     C_R   0.565635 0.461003 0.377389 0.000000
C321  C     C_R   0.535861 0.406823 0.355558 0.000000
C322  C     C_R   0.549171 0.390576 0.293977 0.000000
N99   N     N_2   0.519360 0.334562 0.271959 0.000000
C323  C     C_R   0.592000 0.429057 0.255150 0.000000
C324  C     C_R   0.619478 0.484669 0.274995 0.000000
C325  C     C_R   0.606632 0.500641 0.337305 0.000000
N100  N     N_R   0.617233 0.553472 0.354313 0.000000
H265  H     H_    0.378553 0.560820 0.208691 0.000000
H266  H     H_    0.424237 0.631532 0.213671 0.000000
H267  H     H_    0.403763 0.491032 0.258489 0.000000
H268  H     H_    0.468825 0.469713 0.334282 0.000000
H269  H     H_    0.581836 0.642527 0.346410 0.000000
H270  H     H_    0.519088 0.662356 0.259797 0.000000
H271  H     H_    0.500930 0.378277 0.384054 0.000000
H272  H     H_    0.519799 0.328079 0.217814 0.000000
H273  H     H_    0.481629 0.313321 0.293082 0.000000
H274  H     H_    0.602354 0.416543 0.206617 0.000000
H275  H     H_    0.645345 0.514698 0.237231 0.000000
N101  N     N_2   0.654840 0.905771 0.696129 0.000000
C326  C     C_R   0.604906 0.860274 0.713105 0.000000
C327  C     C_R   0.569074 0.828394 0.658193 0.000000
C328  C     C_R   0.522363 0.782171 0.675168 0.000000
C329  C     C_R   0.509693 0.768479 0.745728 0.000000
C330  C     C_R   0.543280 0.802595 0.800590 0.000000
C331  C     C_R   0.591149 0.848076 0.784278 0.000000
C332  C     C_R   0.461985 0.716799 0.761000 0.000000
N102  N     N_R   0.463218 0.665297 0.762075 0.000000
C333  C     C_R   0.409180 0.629853 0.763543 0.000000
C334  C     C_R   0.385302 0.572849 0.759758 0.000000
C335  C     C_R   0.328419 0.543915 0.748192 0.000000
N103  N     N_2   0.302567 0.485405 0.741901 0.000000
C336  C     C_R   0.297310 0.572907 0.736228 0.000000
C337  C     C_R   0.322530 0.630392 0.738947 0.000000
C338  C     C_R   0.377794 0.658086 0.758655 0.000000
N104  N     N_R   0.409531 0.713950 0.759139 0.000000
H276  H     H_    0.670251 0.899419 0.651092 0.000000
H277  H     H_    0.682929 0.923471 0.739880 0.000000
H278  H     H_    0.578254 0.837937 0.602044 0.000000
H279  H     H_    0.495688 0.755829 0.632507 0.000000
H280  H     H_    0.534840 0.791614 0.856434 0.000000
H281  H     H_    0.619144 0.872426 0.828234 0.000000
H282  H     H_    0.410551 0.551816 0.763133 0.000000
H283  H     H_    0.262987 0.469286 0.717454 0.000000
H284  H     H_    0.327207 0.470559 0.722120 0.000000
H285  H     H_    0.253514 0.550989 0.720983 0.000000
H286  H     H_    0.300505 0.652705 0.717994 0.000000
N105  N     N_2   0.819226 0.704871 0.770151 0.000000
C339  C     C_R   0.801782 0.655002 0.737372 0.000000
C340  C     C_R   0.807325 0.615053 0.780065 0.000000
C341  C     C_R   0.805593 0.571056 0.747861 0.000000
C342  C     C_R   0.794832 0.566233 0.674547 0.000000
C343  C     C_R   0.791640 0.607055 0.631370 0.000000
C344  C     C_R   0.793066 0.651652 0.663029 0.000000
C345  C     C_R   0.808699 0.528557 0.646250 0.000000
N106  N     N_R   0.794628 0.478887 0.685836 0.000000
C346  C     C_R   0.837464 0.468880 0.673776 0.000000
C347  C     C_R   0.851779 0.430717 0.710085 0.000000
C348  C     C_R   0.901721 0.432186 0.697136 0.000000
N107  N     N_2   0.918991 0.395099 0.735578 0.000000
C349  C     C_R   0.935500 0.470713 0.647569 0.000000
C350  C     C_R   0.921553 0.510288 0.612914 0.000000
C351  C     C_R   0.872840 0.509307 0.627580 0.000000
N108  N     N_R   0.856295 0.549156 0.609001 0.000000
H287  H     H_    0.790809 0.702718 0.803459 0.000000
H288  H     H_    0.837231 0.738678 0.737254 0.000000
H289  H     H_    0.820604 0.622718 0.837154 0.000000
H290  H     H_    0.822198 0.546188 0.778157 0.000000
H291  H     H_    0.796909 0.607665 0.574846 0.000000
H292  H     H_    0.796124 0.686691 0.629593 0.000000
H293  H     H_    0.825957 0.402186 0.749873 0.000000
H294  H     H_    0.960828 0.408003 0.738170 0.000000
H295  H     H_    0.900676 0.379504 0.783553 0.000000
H296  H     H_    0.974199 0.471324 0.637892 0.000000
H297  H     H_    0.949207 0.542257 0.577839 0.000000
N109  N     N_2   0.974717 0.582724 0.896100 0.000000
C352  C     C_R   0.952439 0.609329 0.844233 0.000000
C353  C     C_R   0.947045 0.597674 0.771689 0.000000
C354  C     C_R   0.934137 0.630284 0.720395 0.000000
C355  C     C_R   0.925199 0.674219 0.740241 0.000000
C356  C     C_R   0.929051 0.684293 0.812599 0.000000
C357  C     C_R   0.941497 0.651328 0.864743 0.000000
C358  C     C_R   0.916443 0.710996 0.682980 0.000000
N110  N     N_R   0.913929 0.696940 0.611622 0.000000
C359  C     C_R   0.928873 0.745501 0.576639 0.000000
C360  C     C_R   0.946156 0.757653 0.507554 0.000000
C361  C     C_R   0.965100 0.812152 0.483014 0.000000
N111  N     N_2   0.975544 0.824683 0.409278 0.000000
C362  C     C_R   0.967130 0.852742 0.528407 0.000000
C363  C     C_R   0.948464 0.838052 0.597476 0.000000
C364  C     C_R   0.931857 0.784849 0.621695 0.000000
N112  N     N_R   0.921682 0.765169 0.690672 0.000000
H298  H     H_    0.970354 0.544629 0.880751 0.000000
H299  H     H_    0.970421 0.587417 0.949836 0.000000
H300  H     H_    0.957546 0.566255 0.754316 0.000000
H301  H     H_    0.937716 0.624586 0.664442 0.000000
H302  H     H_    0.923706 0.719320 0.826150 0.000000
H303  H     H_    0.946074 0.660093 0.921739 0.000000
H304  H     H_    0.943575 0.725582 0.472688 0.000000
H305  H     H_    0.971591 0.859312 0.388956 0.000000
H306  H     H_    0.960347 0.790681 0.375818 0.000000
H307  H     H_    0.980020 0.895130 0.508425 0.000000
H308  H     H_    0.945493 0.866137 0.631886 0.000000
N113  N     N_2   0.046421 0.779418 0.822810 0.000000
C365  C     C_R   0.053833 0.761829 0.756321 0.000000
C366  C     C_R   0.051098 0.790966 0.693889 0.000000
C367  C     C_R   0.046976 0.768756 0.627506 0.000000
C368  C     C_R   0.045757 0.717796 0.622402 0.000000
C369  C     C_R   0.050629 0.689346 0.684949 0.000000
C370  C     C_R   0.057061 0.712387 0.752185 0.000000
C371  C     C_R   0.038557 0.694743 0.550449 0.000000
N114  N     N_R   0.986265 0.659414 0.517374 0.000000
C372  C     C_R   0.999663 0.656860 0.449175 0.000000
C373  C     C_R   0.965119 0.628080 0.390792 0.000000
C374  C     C_R   0.986533 0.632746 0.324333 0.000000
N115  N     N_2   0.953236 0.598286 0.266135 0.000000
C375  C     C_R   0.040193 0.672082 0.314645 0.000000
C376  C     C_R   0.073913 0.702968 0.373140 0.000000
C377  C     C_R   0.054776 0.690696 0.441278 0.000000
N116  N     N_R   0.082134 0.714764 0.504879 0.000000
H309  H     H_    0.024925 0.802458 0.815731 0.000000
H310  H     H_    0.032825 0.748347 0.861750 0.000000
H311  H     H_    0.049016 0.829793 0.696198 0.000000
H312  H     H_    0.042046 0.790469 0.578887 0.000000
H313  H     H_    0.045393 0.647260 0.681671 0.000000
H314  H     H_    0.058536 0.688471 0.800889 0.000000
H315  H     H_    0.922984 0.601230 0.396496 0.000000
H316  H     H_    0.965571 0.613379 0.215052 0.000000
H317  H     H_    0.911516 0.580421 0.271551 0.000000
H318  H     H_    0.055782 0.679234 0.261281 0.000000
H319  H     H_    0.112803 0.737643 0.364431 0.000000
N117  N     N_2   0.878562 0.893755 0.380334 0.000000
C378  C     C_R   0.862096 0.836163 0.391473 0.000000
C379  C     C_R   0.851153 0.812346 0.459789 0.000000
C380  C     C_R   0.840015 0.757033 0.472157 0.000000
C381  C     C_R   0.836567 0.723754 0.415430 0.000000
C382  C     C_R   0.842012 0.747165 0.346377 0.000000
C383  C     C_R   0.856947 0.803137 0.334296 0.000000
C384  C     C_R   0.814889 0.661955 0.421529 0.000000
N118  N     N_R   0.842133 0.632548 0.458443 0.000000
C385  C     C_R   0.815230 0.582766 0.425233 0.000000
C386  C     C_R   0.829692 0.539910 0.431883 0.000000
C387  C     C_R   0.809767 0.500724 0.377298 0.000000
N119  N     N_2   0.832614 0.463288 0.373624 0.000000
C388  C     C_R   0.771052 0.501497 0.322683 0.000000
C389  C     C_R   0.752671 0.541821 0.321863 0.000000
C390  C     C_R   0.774575 0.581621 0.374522 0.000000
N120  N     N_R   0.769151 0.628977 0.374833 0.000000
H320  H     H_    0.895174 0.917087 0.426843 0.000000
H321  H     H_    0.899307 0.910261 0.334279 0.000000
H322  H     H_    0.853965 0.837833 0.504703 0.000000
H323  H     H_    0.831690 0.739046 0.526049 0.000000
H324  H     H_    0.834092 0.720994 0.301233 0.000000
H325  H     H_    0.863110 0.820635 0.279651 0.000000
H326  H     H_    0.861836 0.541203 0.472018 0.000000
H327  H     H_    0.829241 0.448553 0.322057 0.000000
H328  H     H_    0.870438 0.475489 0.402472 0.000000
H329  H     H_    0.756924 0.472124 0.278531 0.000000
H330  H     H_    0.728936 0.547213 0.274995 0.000000
N121  N     N_2   0.845118 0.325265 0.571108 0.000000
C391  C     C_R   0.799739 0.315803 0.610311 0.000000
C392  C     C_R   0.756924 0.325051 0.577072 0.000000
C393  C     C_R   0.712339 0.316082 0.615016 0.000000
C394  C     C_R   0.710030 0.296941 0.685991 0.000000
C395  C     C_R   0.751862 0.285155 0.717946 0.000000
C396  C     C_R   0.796069 0.293712 0.680078 0.000000
C397  C     C_R   0.670834 0.298419 0.733518 0.000000
N122  N     N_R   0.640809 0.248256 0.771985 0.000000
C398  C     C_R   0.660828 0.264832 0.841257 0.000000
C399  C     C_R   0.658736 0.231469 0.901631 0.000000
C400  C     C_R   0.683588 0.256850 0.967766 0.000000
N123  N     N_2   0.681171 0.223872 0.031177 0.000000
C401  C     C_R   0.711249 0.314705 0.971637 0.000000
C402  C     C_R   0.715314 0.347503 0.909423 0.000000
C403  C     C_R   0.690745 0.321880 0.844610 0.000000
N124  N     N_R   0.694507 0.345877 0.777369 0.000000
H331  H     H_    0.851933 0.354013 0.528978 0.000000
H332  H     H_    0.879558 0.328659 0.603247 0.000000
H333  H     H_    0.757776 0.337578 0.520295 0.000000
H334  H     H_    0.679015 0.323565 0.589443 0.000000
H335  H     H_    0.751658 0.271419 0.774337 0.000000
H336  H     H_    0.828438 0.284587 0.706236 0.000000
H337  H     H_    0.637791 0.186801 0.897613 0.000000
H338  H     H_    0.687176 0.244322 0.079285 0.000000
H339  H     H_    0.649314 0.184037 0.028333 0.000000
H340  H     H_    0.731139 0.334494 0.023109 0.000000
H341  H     H_    0.738927 0.391679 0.911328 0.000000
N125  N     N_2   0.027794 0.073983 0.508431 0.000000
C404  C     C_R   0.032258 0.036383 0.562406 0.000000
C405  C     C_R   0.988111 0.002575 0.600801 0.000000
C406  C     C_R   0.993700 0.966253 0.653211 0.000000
C407  C     C_R   0.040748 0.960029 0.666530 0.000000
C408  C     C_R   0.085479 0.997778 0.633409 0.000000
C409  C     C_R   0.081555 0.034607 0.579870 0.000000
C410  C     C_R   0.047233 0.923232 0.726382 0.000000
N126  N     N_R   0.004246 0.892757 0.771956 0.000000
C411  C     C_R   0.032619 0.902448 0.837858 0.000000
C412  C     C_R   0.011072 0.894009 0.904206 0.000000
C413  C     C_R   0.046550 0.905023 0.966676 0.000000
N127  N     N_2   0.025811 0.895510 0.036068 0.000000
C414  C     C_R   0.102528 0.924945 0.961042 0.000000
C415  C     C_R   0.124135 0.938481 0.893576 0.000000
C416  C     C_R   0.088422 0.927652 0.831829 0.000000
N128  N     N_R   0.100225 0.939559 0.761050 0.000000
H342  H     H_    0.988059 0.063248 0.486996 0.000000
H343  H     H_    0.057044 0.086730 0.471156 0.000000
H344  H     H_    0.949255 0.004445 0.590626 0.000000
H345  H     H_    0.960661 0.940706 0.683219 0.000000
H346  H     H_    0.124176 0.998715 0.651065 0.000000
H347  H     H_    0.117591 0.062769 0.552762 0.000000
H348  H     H_    0.967516 0.878293 0.907593 0.000000
H349  H     H_    0.050910 0.889523 0.077613 0.000000
H350  H     H_    0.984392 0.868756 0.036106 0.000000
H351  H     H_    0.129640 0.931045 0.010015 0.000000
H352  H     H_    0.167743 0.957150 0.890919 0.000000

loop_
_geom_bond_atom_site_label_1
_geom_bond_atom_site_label_2
_geom_bond_distance
_geom_bond_site_symmetry_2
_ccdc_geom_bond_type
Zn1   N4    2.146 .      S
Zn1   N6    2.302 .      S
Zn1   N58   2.316 .      S
Zn1   N104  2.188 .      S
Zn2   N12   2.258 .      S
Zn2   N16   2.113 .      S
Zn2   N64   2.327 .      S
Zn2   N122  2.258 .      S
Zn3   N2    2.167 .      S
Zn3   N10   2.287 1_565  S
Zn3   N28   2.238 .      S
Zn3   N76   2.245 .      S
Zn4   N18   2.222 1_565  S
Zn4   N24   2.108 .      S
Zn4   N66   2.166 .      S
Zn4   N128  2.218 .      S
Zn5   N14   2.014 .      S
Zn5   N20   2.242 .      S
Zn5   N36   2.210 .      S
Zn5   N90   2.231 .      S
Zn6   N8    2.250 .      S
Zn6   N22   2.002 .      S
Zn6   N38   2.225 .      S
Zn6   N116  2.213 .      S
Zn7   N56   2.173 .      S
Zn7   N82   2.260 .      S
Zn7   N100  2.342 .      S
Zn7   N120  2.192 .      S
Zn8   N26   2.125 .      S
Zn8   N32   2.216 .      S
Zn8   N34   2.177 1_565  S
Zn8   N40   2.225 .      S
Zn9   N44   2.336 .      S
Zn9   N48   2.270 .      S
Zn9   N52   2.231 .      S
Zn9   N54   2.165 1_556  S
Zn10  N30   2.285 1_556  S
Zn10  N60   2.291 .      S
Zn10  N62   2.285 1_565  S
Zn10  N68   2.173 .      S
Zn11  N72   2.338 .      S
Zn11  N74   2.188 .      S
Zn11  N78   2.114 .      S
Zn11  N84   2.345 .      S
Zn12  N88   2.262 .      S
Zn12  N92   2.251 .      S
Zn12  N94   2.289 .      S
Zn12  N98   2.326 .      S
Zn13  N50   2.268 .      S
Zn13  N80   2.098 .      S
Zn13  N96   2.334 .      S
Zn13  N102  2.173 .      S
Zn14  N108  2.276 .      S
Zn14  N110  2.025 .      S
Zn14  N114  2.235 .      S
Zn14  N118  2.189 .      S
Zn15  N42   2.342 .      S
Zn15  N86   2.153 .      S
Zn15  N106  2.276 .      S
Zn15  N124  2.220 .      S
Zn16  N46   2.322 .      S
Zn16  N70   2.227 .      S
Zn16  N112  2.196 .      S
Zn16  N126  2.224 1_655  S
N1    C1    1.409 .      S
N1    H1    1.028 .      S
N1    H2    1.029 .      S
C2    H3    1.069 .      S
C3    H4    1.073 .      S
C4    C7    1.471 .      S
C5    H5    1.049 .      S
C6    H6    1.055 .      S
C9    H7    1.068 .      S
C10   N3    1.405 .      S
N3    H8    1.027 .      S
N3    H9    1.019 .      S
C11   H10   1.080 .      S
C12   H11   1.072 .      S
N5    C14   1.410 .      S
N5    H12   1.028 .      S
N5    H13   1.029 .      S
C15   H14   1.075 .      S
C16   H15   1.079 .      S
C17   C20   1.460 .      S
C18   H16   1.081 .      S
C19   H17   1.081 .      S
C22   H18   1.081 .      S
C23   N7    1.410 .      S
N7    H19   1.029 .      S
N7    H20   1.029 .      S
C24   H21   1.081 .      S
C25   H22   1.076 .      S
N9    C27   1.410 .      S
N9    H23   1.029 .      S
N9    H24   1.029 .      S
C28   H25   1.078 .      S
C29   H26   1.059 .      S
C30   C33   1.491 .      S
C31   H27   1.074 .      S
C32   H28   1.066 .      S
N10   Zn3   2.287 1_545  S
C35   H29   1.071 .      S
C36   N11   1.404 .      S
N11   H30   1.028 .      S
N11   H31   1.029 .      S
C37   H32   1.081 .      S
C38   H33   1.077 .      S
N13   C40   1.409 .      S
N13   H34   1.029 .      S
N13   H35   1.028 .      S
C41   H36   1.080 .      S
C42   H37   1.067 .      S
C43   C46   1.479 .      S
C44   H38   1.049 .      S
C45   H39   1.075 .      S
C48   H40   1.076 .      S
C49   N15   1.406 .      S
N15   H41   1.029 .      S
N15   H42   1.027 .      S
C50   H43   1.080 .      S
C51   H44   1.070 .      S
N17   C53   1.395 1_565  S
N17   H45   1.020 .      S
N17   H46   1.026 .      S
C53   N17   1.395 1_545  S
C54   H47   1.036 .      S
C55   H48   1.063 .      S
C56   C59   1.412 .      S
C57   H49   1.066 .      S
C58   H50   1.068 .      S
N18   Zn4   2.222 1_545  S
C61   H51   1.080 .      S
C62   N19   1.410 .      S
N19   H52   1.029 .      S
N19   H53   1.029 .      S
C63   H54   1.081 .      S
C64   H55   1.073 .      S
N21   C66   1.372 .      S
N21   H56   1.018 .      S
N21   H57   1.011 .      S
C67   H58   1.040 .      S
C68   H59   1.077 .      S
C69   C72   1.392 .      S
C70   H60   1.053 .      S
C71   H61   1.065 .      S
C74   H62   1.080 .      S
C75   N23   1.412 .      S
N23   H63   1.029 .      S
N23   H64   1.029 .      S
C76   H65   1.081 .      S
C77   H66   1.070 .      S
N25   C79   1.410 .      S
N25   H67   1.029 .      S
N25   H68   1.028 .      S
C80   H69   1.079 .      S
C81   H70   1.080 .      S
C82   C85   1.467 1_545  S
C83   H71   1.058 .      S
C84   H72   1.077 .      S
C85   C82   1.467 1_565  S
C87   H73   1.059 .      S
C88   N27   1.410 .      S
N27   H74   1.028 .      S
N27   H75   1.029 .      S
C89   H76   1.073 .      S
C90   H77   1.068 .      S
N29   C92   1.411 .      S
N29   H78   1.028 .      S
N29   H79   1.029 .      S
C93   H80   1.081 .      S
C94   H81   1.071 .      S
C95   C98   1.465 .      S
C96   H82   1.071 .      S
C97   H83   1.080 .      S
N30   Zn10  2.285 1_554  S
C100  H84   1.047 1_554  S
C101  N31   1.407 1_565  S
N31   C101  1.407 1_545  S
N31   H85   1.029 .      S
N31   H86   1.025 1_554  S
C102  H87   1.073 .      S
C103  H88   1.071 .      S
H84   C100  1.047 1_556  S
H86   N31   1.025 1_556  S
N33   C105  1.394 1_565  S
N33   H89   1.028 1_565  S
N33   H90   1.017 .      S
C105  N33   1.394 1_545  S
C106  H91   1.081 .      S
C107  H92   1.065 .      S
C108  C111  1.455 .      S
C109  H93   1.053 .      S
C110  H94   1.068 .      S
N34   Zn8   2.177 1_545  S
C113  H95   1.069 .      S
C114  N35   1.407 .      S
N35   H96   1.028 .      S
N35   H97   1.028 .      S
C115  H98   1.081 .      S
C116  H99   1.062 .      S
H89   N33   1.028 1_545  S
N37   C118  1.410 .      S
N37   H100  1.029 .      S
N37   H101  1.029 .      S
C119  H102  1.079 .      S
C120  H103  1.069 .      S
C121  C124  1.475 .      S
C122  H104  1.081 .      S
C123  H105  1.078 .      S
C126  H106  1.081 .      S
C127  N39   1.410 .      S
N39   H107  1.029 .      S
N39   H108  1.029 .      S
C128  H109  1.080 .      S
C129  H110  1.079 .      S
N41   C131  1.405 .      S
N41   H111  1.028 .      S
N41   H112  1.029 .      S
C132  H113  1.077 .      S
C133  H114  1.076 .      S
C134  C137  1.468 .      S
C135  H115  1.074 .      S
C136  H116  1.081 .      S
C139  H117  1.081 .      S
C140  N43   1.411 .      S
N43   H118  1.029 1_556  S
N43   H119  1.029 .      S
C141  H120  1.081 .      S
C142  H121  1.077 .      S
H118  N43   1.029 1_554  S
N45   C144  1.409 1_455  S
N45   H122  1.028 .      S
N45   H123  1.027 .      S
C144  N45   1.409 1_655  S
C145  H124  1.080 1_654  S
C146  H125  1.065 .      S
C147  C150  1.478 .      S
C148  H126  1.074 .      S
C149  H127  1.079 .      S
C152  H128  1.067 .      S
C153  N47   1.410 .      S
N47   H129  1.029 1_556  S
N47   H130  1.029 .      S
C154  H131  1.075 1_556  S
C155  H132  1.071 1_556  S
H124  C145  1.080 1_456  S
H129  N47   1.029 1_554  S
H131  C154  1.075 1_554  S
H132  C155  1.071 1_554  S
N49   C157  1.409 .      S
N49   H133  1.029 .      S
N49   H134  1.029 .      S
C158  H135  1.081 .      S
C159  H136  1.079 .      S
C160  C163  1.474 .      S
C161  H137  1.069 .      S
C162  H138  1.081 .      S
C165  H139  1.026 .      S
C166  N51   1.371 .      S
N51   H140  1.025 .      S
N51   H141  1.020 .      S
C167  H142  1.063 .      S
C168  H143  1.064 .      S
N53   C170  1.410 .      S
N53   H144  1.029 .      S
N53   H145  1.029 .      S
C171  H146  1.077 .      S
C172  H147  1.079 .      S
C173  C176  1.460 .      S
C174  H148  1.077 .      S
C175  H149  1.081 .      S
N54   Zn9   2.165 1_554  S
C178  H150  1.056 1_554  S
C179  N55   1.411 .      S
N55   H151  1.029 .      S
N55   H152  1.028 1_554  S
C180  H153  1.079 .      S
C181  H154  1.056 .      S
H150  C178  1.056 1_556  S
H152  N55   1.028 1_556  S
N57   C183  1.410 .      S
N57   H155  1.029 .      S
N57   H156  1.029 .      S
C184  H157  1.080 .      S
C185  H158  1.064 .      S
C186  C189  1.516 .      S
C187  H159  1.071 .      S
C188  H160  1.081 .      S
C191  H161  1.078 .      S
C192  N59   1.406 1_556  S
N59   C192  1.406 1_554  S
N59   H162  1.029 .      S
N59   H163  1.025 1_554  S
C193  H164  1.081 .      S
C194  H165  1.067 .      S
H163  N59   1.025 1_556  S
N61   C196  1.411 1_554  S
N61   H166  1.029 .      S
N61   H167  1.029 .      S
C196  N61   1.411 1_556  S
C197  H168  1.074 1_545  S
C198  H169  1.070 1_545  S
C199  C202  1.467 .      S
C200  H170  1.063 .      S
C201  H171  1.078 .      S
N62   Zn10  2.285 1_545  S
C204  H172  1.078 .      S
C205  N63   1.408 .      S
N63   H173  1.029 .      S
N63   H174  1.027 .      S
C206  H175  1.081 1_556  S
C207  H176  1.061 .      S
H168  C197  1.074 1_565  S
H169  C198  1.070 1_565  S
H175  C206  1.081 1_554  S
N65   C209  1.410 .      S
N65   H177  1.029 .      S
N65   H178  1.028 1_556  S
C210  H179  1.081 .      S
C211  H180  1.073 .      S
C212  C215  1.482 1_545  S
C213  H181  1.067 .      S
C214  H182  1.080 .      S
C215  C212  1.482 1_565  S
C217  H183  1.072 .      S
C218  N67   1.403 .      S
N67   H184  1.028 .      S
N67   H185  1.026 .      S
C219  H186  1.081 1_556  S
C220  H187  1.074 .      S
H178  N65   1.028 1_554  S
H186  C219  1.081 1_554  S
N69   C222  1.354 .      S
N69   H188  1.013 .      S
N69   H189  1.020 .      S
C223  H190  1.074 .      S
C224  H191  1.071 .      S
C225  C228  1.337 .      S
C226  H192  1.067 .      S
C227  H193  1.028 .      S
C230  H194  1.079 .      S
C231  N71   1.410 .      S
N71   H195  1.029 .      S
N71   H196  1.029 .      S
C232  H197  1.073 .      S
C233  H198  1.067 .      S
N73   C235  1.410 .      S
N73   H199  1.029 .      S
N73   H200  1.029 .      S
C236  H201  1.081 .      S
C237  H202  1.076 .      S
C238  C241  1.487 .      S
C239  H203  1.064 .      S
C240  H204  1.080 .      S
C243  H205  1.081 .      S
C244  N75   1.410 .      S
N75   H206  1.029 .      S
N75   H207  1.029 .      S
C245  H208  1.081 .      S
C246  H209  1.069 .      S
N77   C248  1.410 .      S
N77   H210  1.029 .      S
N77   H211  1.029 .      S
C249  H212  1.080 .      S
C250  H213  1.065 .      S
C251  C254  1.479 .      S
C252  H214  1.074 .      S
C253  H215  1.078 .      S
C256  H216  1.066 .      S
C257  N79   1.401 .      S
N79   H217  1.027 .      S
N79   H218  1.028 .      S
C258  H219  1.078 .      S
C259  H220  1.066 .      S
N81   C261  1.374 .      S
N81   H221  1.028 .      S
N81   H222  1.003 .      S
C262  H223  1.061 .      S
C263  H224  1.025 .      S
C264  C267  1.402 .      S
C265  H225  1.069 .      S
C266  H226  1.073 .      S
C269  H227  1.080 .      S
C270  N83   1.406 .      S
N83   H228  1.029 .      S
N83   H229  1.026 .      S
C271  H230  1.081 .      S
C272  H231  1.078 .      S
N85   C274  1.410 .      S
N85   H232  1.025 .      S
N85   H233  1.029 .      S
C275  H234  1.079 .      S
C276  H235  1.043 .      S
C277  C280  1.475 .      S
C278  H236  1.074 .      S
C279  H237  1.069 .      S
C282  H238  1.076 .      S
C283  N87   1.407 .      S
N87   H239  1.029 .      S
N87   H240  1.028 .      S
C284  H241  1.076 .      S
C285  H242  1.064 .      S
N89   C287  1.395 .      S
N89   H243  1.023 .      S
N89   H244  1.013 .      S
C288  H245  1.073 .      S
C289  H246  1.082 .      S
C290  C293  1.412 .      S
C291  H247  1.068 .      S
C292  H248  1.068 .      S
C295  H249  1.081 .      S
C296  N91   1.410 .      S
N91   H250  1.029 .      S
N91   H251  1.029 .      S
C297  H252  1.081 .      S
C298  H253  1.061 .      S
N93   C300  1.410 .      S
N93   H254  1.029 .      S
N93   H255  1.029 .      S
C301  H256  1.081 .      S
C302  H257  1.080 .      S
C303  C306  1.482 .      S
C304  H258  1.077 .      S
C305  H259  1.081 .      S
C308  H260  1.060 .      S
C309  N95   1.410 .      S
N95   H261  1.029 .      S
N95   H262  1.029 .      S
C310  H263  1.081 .      S
C311  H264  1.076 .      S
N97   C313  1.410 .      S
N97   H265  1.029 .      S
N97   H266  1.029 .      S
C314  H267  1.081 .      S
C315  H268  1.074 .      S
C316  C319  1.481 .      S
C317  H269  1.076 .      S
C318  H270  1.078 .      S
C321  H271  1.078 .      S
C322  N99   1.410 .      S
N99   H272  1.023 .      S
N99   H273  1.029 .      S
C323  H274  1.078 .      S
C324  H275  1.071 .      S
N101  C326  1.407 .      S
N101  H276  1.022 .      S
N101  H277  1.026 .      S
C327  H278  1.076 .      S
C328  H279  1.064 .      S
C329  C332  1.446 .      S
C330  H280  1.070 .      S
C331  H281  1.073 .      S
C334  H282  1.067 .      S
C335  N103  1.408 .      S
N103  H283  1.029 .      S
N103  H284  1.026 .      S
C336  H285  1.081 .      S
C337  H286  1.059 .      S
N105  C339  1.359 .      S
N105  H287  1.015 .      S
N105  H288  1.011 .      S
C340  H289  1.076 .      S
C341  H290  1.068 .      S
C342  C345  1.374 .      S
C343  H291  1.062 .      S
C344  H292  1.068 .      S
C347  H293  1.080 .      S
C348  N107  1.410 .      S
N107  H294  1.029 .      S
N107  H295  1.029 .      S
C349  H296  1.081 .      S
C350  H297  1.081 .      S
N109  C352  1.409 .      S
N109  H298  1.029 .      S
N109  H299  1.028 .      S
C353  H300  1.080 .      S
C354  H301  1.070 .      S
C355  C358  1.477 .      S
C356  H302  1.062 .      S
C357  H303  1.071 .      S
C360  H304  1.077 .      S
C361  N111  1.403 .      S
N111  H305  1.029 .      S
N111  H306  1.028 .      S
C362  H307  1.081 .      S
C363  H308  1.048 .      S
N113  C365  1.402 .      S
N113  H309  1.024 .      S
N113  H310  1.024 .      S
C366  H311  1.073 .      S
C367  H312  1.069 .      S
C368  C371  1.452 .      S
C369  H313  1.078 .      S
C370  H314  1.079 .      S
C373  H315  1.057 .      S
C374  N115  1.410 .      S
N115  H316  1.027 .      S
N115  H317  1.029 .      S
C375  H318  1.081 .      S
C376  H319  1.068 .      S
N117  C378  1.410 .      S
N117  H320  1.029 .      S
N117  H321  1.029 .      S
C379  H322  1.079 .      S
C380  H323  1.075 .      S
C381  C384  1.490 .      S
C382  H324  1.061 .      S
C383  H325  1.079 .      S
C386  H326  1.077 .      S
C387  N119  1.410 .      S
N119  H327  1.029 .      S
N119  H328  1.029 .      S
C388  H329  1.081 .      S
C389  H330  1.068 .      S
N121  C391  1.411 .      S
N121  H331  1.029 .      S
N121  H332  1.029 .      S
C392  H333  1.077 .      S
C393  H334  1.075 .      S
C394  C397  1.463 .      S
C395  H335  1.079 .      S
C396  H336  1.081 .      S
C399  H337  1.074 .      S
C400  N123  1.410 1_556  S
N123  C400  1.410 1_554  S
N123  H338  1.029 .      S
N123  H339  1.029 .      S
C401  H340  1.081 1_556  S
C402  H341  1.064 .      S
H340  C401  1.081 1_554  S
N125  C404  1.410 .      S
N125  H342  1.029 1_455  S
N125  H343  1.029 .      S
C405  H344  1.081 .      S
C406  H345  1.041 .      S
C407  C410  1.486 .      S
C408  H346  1.063 .      S
C409  H347  1.081 .      S
N126  Zn16  2.224 1_455  S
C412  H348  1.073 1_455  S
C413  N127  1.410 1_556  S
N127  C413  1.410 1_554  S
N127  H349  1.029 .      S
N127  H350  1.029 1_455  S
C414  H351  1.077 1_556  S
C415  H352  1.067 .      S
H342  N125  1.029 1_655  S
H348  C412  1.073 1_655  S
H350  N127  1.029 1_655  S
H351  C414  1.077 1_554  S
C1    C2    1.352 .      A
C1    C6    1.354 .      A
C2    C3    1.385 .      A
C3    C4    1.362 .      A
C4    C5    1.356 .      A
C5    C6    1.375 .      A
C7    N2    1.395 .      A
C7    N4    1.401 .      A
N2    C8    1.353 .      A
C8    C9    1.371 .      A
C8    C13   1.365 .      A
C9    C10   1.390 .      A
C10   C11   1.378 .      A
C11   C12   1.370 .      A
C12   C13   1.369 .      A
C13   N4    1.337 .      A
C14   C15   1.382 .      A
C14   C19   1.375 .      A
C15   C16   1.383 .      A
C16   C17   1.378 .      A
C17   C18   1.384 .      A
C18   C19   1.376 .      A
C20   N6    1.423 .      A
C20   N8    1.400 .      A
N6    C21   1.356 .      A
C21   C22   1.375 .      A
C21   C26   1.376 .      A
C22   C23   1.385 .      A
C23   C24   1.389 .      A
C24   C25   1.385 .      A
C25   C26   1.361 .      A
C26   N8    1.347 .      A
C27   C28   1.360 .      A
C27   C32   1.363 .      A
C28   C29   1.381 .      A
C29   C30   1.374 .      A
C30   C31   1.395 .      A
C31   C32   1.382 .      A
C33   N10   1.389 .      A
C33   N12   1.416 .      A
N10   C34   1.368 .      A
C34   C35   1.377 .      A
C34   C39   1.373 .      A
C35   C36   1.390 .      A
C36   C37   1.382 .      A
C37   C38   1.373 .      A
C38   C39   1.373 .      A
C39   N12   1.337 .      A
C40   C41   1.371 .      A
C40   C45   1.376 .      A
C41   C42   1.382 .      A
C42   C43   1.391 .      A
C43   C44   1.356 .      A
C44   C45   1.384 .      A
C46   N14   1.365 .      A
C46   N16   1.404 .      A
N14   C47   1.334 .      A
C47   C48   1.372 .      A
C47   C52   1.353 .      A
C48   C49   1.382 .      A
C49   C50   1.382 .      A
C50   C51   1.383 .      A
C51   C52   1.359 .      A
C52   N16   1.349 .      A
C53   C54   1.349 1_545  A
C53   C58   1.350 .      A
C54   C53   1.349 1_565  A
C54   C55   1.355 .      A
C55   C56   1.324 1_565  A
C56   C55   1.324 1_545  A
C56   C57   1.354 .      A
C57   C58   1.367 .      A
C59   N18   1.384 .      A
C59   N20   1.397 .      A
N18   C60   1.355 .      A
C60   C61   1.376 .      A
C60   C65   1.382 .      A
C61   C62   1.386 .      A
C62   C63   1.391 .      A
C63   C64   1.384 .      A
C64   C65   1.372 .      A
C65   N20   1.353 .      A
C66   C67   1.367 .      A
C66   C71   1.344 .      A
C67   C68   1.363 .      A
C68   C69   1.352 .      A
C69   C70   1.367 .      A
C70   C71   1.334 .      A
C72   N22   1.352 .      A
C72   N24   1.383 .      A
N22   C73   1.333 .      A
C73   C74   1.372 .      A
C73   C78   1.356 .      A
C74   C75   1.382 .      A
C75   C76   1.386 .      A
C76   C77   1.383 .      A
C77   C78   1.370 .      A
C78   N24   1.361 .      A
C79   C80   1.372 .      A
C79   C84   1.373 .      A
C80   C81   1.380 .      A
C81   C82   1.379 .      A
C82   C83   1.366 .      A
C83   C84   1.374 .      A
C85   N26   1.391 .      A
C85   N28   1.399 .      A
N26   C86   1.329 .      A
C86   C87   1.359 .      A
C86   C91   1.359 .      A
C87   C88   1.371 .      A
C88   C89   1.376 .      A
C89   C90   1.385 .      A
C90   C91   1.363 .      A
C91   N28   1.347 .      A
C92   C93   1.377 .      A
C92   C97   1.376 1_545  A
C93   C94   1.376 .      A
C94   C95   1.374 1_545  A
C95   C94   1.374 1_565  A
C95   C96   1.370 .      A
C96   C97   1.379 .      A
C97   C92   1.376 1_565  A
C98   N30   1.411 .      A
C98   N32   1.414 .      A
N30   C99   1.363 .      A
C99   C100  1.370 .      A
C99   C104  1.368 .      A
C100  C101  1.382 .      A
C101  C102  1.375 .      A
C102  C103  1.374 .      A
C103  C104  1.365 .      A
C104  N32   1.335 .      A
C105  C106  1.367 1_545  A
C105  C110  1.349 .      A
C106  C105  1.367 1_565  A
C106  C107  1.376 .      A
C107  C108  1.363 1_565  A
C108  C107  1.363 1_545  A
C108  C109  1.339 .      A
C109  C110  1.363 .      A
C111  N34   1.395 .      A
C111  N36   1.404 .      A
N34   C112  1.354 .      A
C112  C113  1.374 .      A
C112  C117  1.375 .      A
C113  C114  1.384 .      A
C114  C115  1.383 .      A
C115  C116  1.377 .      A
C116  C117  1.367 .      A
C117  N36   1.348 .      A
C118  C119  1.373 .      A
C118  C123  1.373 1_545  A
C119  C120  1.381 1_545  A
C120  C119  1.381 1_565  A
C120  C121  1.381 .      A
C121  C122  1.380 .      A
C122  C123  1.380 .      A
C123  C118  1.373 1_565  A
C124  N38   1.417 .      A
C124  N40   1.395 .      A
N38   C125  1.347 .      A
C125  C126  1.373 .      A
C125  C130  1.373 .      A
C126  C127  1.384 .      A
C127  C128  1.390 .      A
C128  C129  1.385 .      A
C129  C130  1.377 .      A
C130  N40   1.355 .      A
C131  C132  1.376 .      A
C131  C136  1.373 .      A
C132  C133  1.383 1_554  A
C133  C132  1.383 1_556  A
C133  C134  1.375 .      A
C134  C135  1.385 .      A
C135  C136  1.374 1_556  A
C136  C135  1.374 1_554  A
C137  N42   1.423 .      A
C137  N44   1.403 .      A
N42   C138  1.354 .      A
C138  C139  1.375 .      A
C138  C143  1.386 .      A
C139  C140  1.383 .      A
C140  C141  1.390 1_556  A
C141  C140  1.390 1_554  A
C141  C142  1.385 .      A
C142  C143  1.372 1_554  A
C143  C142  1.372 1_556  A
C143  N44   1.353 .      A
C144  C145  1.372 .      A
C144  C149  1.377 .      A
C145  C146  1.377 1_554  A
C146  C145  1.377 1_556  A
C146  C147  1.379 .      A
C147  C148  1.374 1_556  A
C148  C147  1.374 1_554  A
C148  C149  1.383 .      A
C150  N46   1.421 .      A
C150  N48   1.412 .      A
N46   C151  1.346 .      A
C151  C152  1.367 .      A
C151  C156  1.378 .      A
C152  C153  1.380 .      A
C153  C154  1.388 .      A
C154  C155  1.380 .      A
C155  C156  1.362 .      A
C156  N48   1.344 .      A
C157  C158  1.378 1_554  A
C157  C162  1.377 .      A
C158  C157  1.378 1_556  A
C158  C159  1.377 .      A
C159  C160  1.385 .      A
C160  C161  1.379 1_556  A
C161  C160  1.379 1_554  A
C161  C162  1.378 .      A
C163  N50   1.408 .      A
C163  N52   1.425 .      A
N50   C164  1.330 .      A
C164  C165  1.317 .      A
C164  C169  1.334 .      A
C165  C166  1.358 .      A
C166  C167  1.344 .      A
C167  C168  1.352 .      A
C168  C169  1.331 .      A
C169  N52   1.307 .      A
C170  C171  1.381 .      A
C170  C175  1.379 .      A
C171  C172  1.381 .      A
C172  C173  1.379 .      A
C173  C174  1.379 .      A
C174  C175  1.379 .      A
C176  N54   1.398 .      A
C176  N56   1.405 .      A
N54   C177  1.353 .      A
C177  C178  1.371 .      A
C177  C182  1.357 .      A
C178  C179  1.385 .      A
C179  C180  1.380 .      A
C180  C181  1.377 .      A
C181  C182  1.358 .      A
C182  N56   1.339 .      A
C183  C184  1.371 1_554  A
C183  C188  1.370 .      A
C184  C183  1.371 1_556  A
C184  C185  1.382 .      A
C185  C186  1.392 .      A
C186  C187  1.400 1_556  A
C187  C186  1.400 1_554  A
C187  C188  1.377 .      A
C189  N58   1.415 .      A
C189  N60   1.411 .      A
N58   C190  1.352 .      A
C190  C191  1.374 .      A
C190  C195  1.383 .      A
C191  C192  1.392 .      A
C192  C193  1.389 1_556  A
C193  C192  1.389 1_554  A
C193  C194  1.380 .      A
C194  C195  1.363 1_554  A
C195  C194  1.363 1_556  A
C195  N60   1.344 .      A
C196  C197  1.374 1_556  A
C196  C201  1.370 .      A
C197  C196  1.374 1_554  A
C197  C198  1.378 1_554  A
C198  C197  1.378 1_556  A
C198  C199  1.379 .      A
C199  C200  1.375 .      A
C200  C201  1.380 .      A
C202  N62   1.416 .      A
C202  N64   1.406 .      A
N62   C203  1.347 .      A
C203  C204  1.374 1_556  A
C203  C208  1.375 .      A
C204  C203  1.374 1_554  A
C204  C205  1.387 .      A
C205  C206  1.384 1_554  A
C206  C205  1.384 1_556  A
C206  C207  1.378 .      A
C207  C208  1.372 .      A
C208  N64   1.362 .      A
C209  C210  1.374 .      A
C209  C214  1.379 .      A
C210  C211  1.377 .      A
C211  C212  1.386 .      A
C212  C213  1.373 .      A
C213  C214  1.380 .      A
C215  N66   1.387 .      A
C215  N68   1.407 .      A
N66   C216  1.355 .      A
C216  C217  1.372 .      A
C216  C221  1.366 .      A
C217  C218  1.399 .      A
C218  C219  1.378 .      A
C219  C220  1.365 .      A
C220  C221  1.363 .      A
C221  N68   1.332 .      A
C222  C223  1.340 .      A
C222  C227  1.315 .      A
C223  C224  1.351 .      A
C224  C225  1.373 .      A
C225  C226  1.314 .      A
C226  C227  1.308 .      A
C228  N70   1.379 .      A
C228  N72   1.389 .      A
N70   C229  1.350 .      A
C229  C230  1.380 .      A
C229  C234  1.384 .      A
C230  C231  1.375 1_565  A
C231  C230  1.375 1_545  A
C231  C232  1.380 .      A
C232  C233  1.383 1_545  A
C233  C232  1.383 1_565  A
C233  C234  1.373 .      A
C234  N72   1.368 .      A
C235  C236  1.373 .      A
C235  C240  1.374 .      A
C236  C237  1.377 .      A
C237  C238  1.396 .      A
C238  C239  1.368 .      A
C239  C240  1.383 .      A
C241  N74   1.395 .      A
C241  N76   1.408 .      A
N74   C242  1.344 .      A
C242  C243  1.377 .      A
C242  C247  1.374 .      A
C243  C244  1.385 1_565  A
C244  C243  1.385 1_545  A
C244  C245  1.390 .      A
C245  C246  1.384 .      A
C246  C247  1.371 1_545  A
C247  C246  1.371 1_565  A
C247  N76   1.354 .      A
C248  C249  1.373 .      A
C248  C253  1.374 .      A
C249  C250  1.378 .      A
C250  C251  1.374 .      A
C251  C252  1.377 .      A
C252  C253  1.382 .      A
C254  N78   1.400 .      A
C254  N80   1.390 .      A
N78   C255  1.342 .      A
C255  C256  1.360 .      A
C255  C260  1.342 .      A
C256  C257  1.382 .      A
C257  C258  1.378 .      A
C258  C259  1.371 .      A
C259  C260  1.341 .      A
C260  N80   1.331 .      A
C261  C262  1.317 .      A
C261  C266  1.385 .      A
C262  C263  1.320 .      A
C263  C264  1.327 .      A
C264  C265  1.363 .      A
C265  C266  1.362 .      A
C267  N82   1.378 .      A
C267  N84   1.427 .      A
N82   C268  1.348 .      A
C268  C269  1.368 .      A
C268  C273  1.389 .      A
C269  C270  1.387 .      A
C270  C271  1.393 .      A
C271  C272  1.384 .      A
C272  C273  1.369 .      A
C273  N84   1.353 .      A
C274  C275  1.372 .      A
C274  C279  1.367 .      A
C275  C276  1.375 .      A
C276  C277  1.362 .      A
C277  C278  1.370 .      A
C278  C279  1.376 .      A
C280  N86   1.409 .      A
C280  N88   1.407 .      A
N86   C281  1.338 .      A
C281  C282  1.363 .      A
C281  C286  1.361 .      A
C282  C283  1.384 .      A
C283  C284  1.378 .      A
C284  C285  1.379 .      A
C285  C286  1.340 .      A
C286  N88   1.342 .      A
C287  C288  1.366 .      A
C287  C292  1.369 .      A
C288  C289  1.361 .      A
C289  C290  1.352 .      A
C290  C291  1.360 .      A
C291  C292  1.364 .      A
C293  N90   1.402 .      A
C293  N92   1.390 .      A
N90   C294  1.348 .      A
C294  C295  1.376 .      A
C294  C299  1.384 .      A
C295  C296  1.383 .      A
C296  C297  1.389 .      A
C297  C298  1.385 .      A
C298  C299  1.372 .      A
C299  N92   1.363 .      A
C300  C301  1.379 .      A
C300  C305  1.379 .      A
C301  C302  1.380 .      A
C302  C303  1.390 .      A
C303  C304  1.385 .      A
C304  C305  1.380 .      A
C306  N94   1.414 .      A
C306  N96   1.397 .      A
N94   C307  1.345 .      A
C307  C308  1.361 .      A
C307  C312  1.376 .      A
C308  C309  1.382 .      A
C309  C310  1.384 .      A
C310  C311  1.382 .      A
C311  C312  1.386 .      A
C312  N96   1.359 .      A
C313  C314  1.371 .      A
C313  C318  1.375 .      A
C314  C315  1.376 .      A
C315  C316  1.389 .      A
C316  C317  1.379 .      A
C317  C318  1.382 .      A
C319  N98   1.411 .      A
C319  N100  1.414 .      A
N98   C320  1.339 .      A
C320  C321  1.369 .      A
C320  C325  1.386 .      A
C321  C322  1.375 .      A
C322  C323  1.389 .      A
C323  C324  1.387 .      A
C324  C325  1.377 .      A
C325  N100  1.363 .      A
C326  C327  1.362 .      A
C326  C331  1.378 .      A
C327  C328  1.366 .      A
C328  C329  1.363 .      A
C329  C330  1.364 .      A
C330  C331  1.371 .      A
C332  N102  1.398 .      A
C332  N104  1.395 .      A
N102  C333  1.347 .      A
C333  C334  1.369 .      A
C333  C338  1.372 .      A
C334  C335  1.386 .      A
C335  C336  1.384 .      A
C336  C337  1.379 .      A
C337  C338  1.366 .      A
C338  N104  1.351 .      A
C339  C340  1.347 .      A
C339  C344  1.365 .      A
C340  C341  1.333 .      A
C341  C342  1.352 .      A
C342  C343  1.345 .      A
C343  C344  1.346 .      A
C345  N106  1.391 .      A
C345  N108  1.395 .      A
N106  C346  1.353 .      A
C346  C347  1.370 .      A
C346  C351  1.392 .      A
C347  C348  1.390 .      A
C348  C349  1.394 .      A
C349  C350  1.385 .      A
C350  C351  1.371 .      A
C351  N108  1.353 .      A
C352  C353  1.367 .      A
C352  C357  1.372 .      A
C353  C354  1.377 .      A
C354  C355  1.384 .      A
C355  C356  1.358 .      A
C356  C357  1.387 .      A
C358  N110  1.374 .      A
C358  N112  1.411 .      A
N110  C359  1.324 .      A
C359  C360  1.369 .      A
C359  C364  1.350 .      A
C360  C361  1.377 .      A
C361  C362  1.390 .      A
C362  C363  1.385 .      A
C363  C364  1.351 .      A
C364  N112  1.350 .      A
C365  C366  1.366 .      A
C365  C370  1.377 .      A
C366  C367  1.363 .      A
C367  C368  1.363 .      A
C368  C369  1.372 .      A
C369  C370  1.376 .      A
C371  N114  1.405 1_455  A
C371  N116  1.405 .      A
N114  C371  1.405 1_655  A
N114  C372  1.355 .      A
C372  C373  1.369 .      A
C372  C377  1.378 1_655  A
C373  C374  1.382 .      A
C374  C375  1.386 1_655  A
C375  C374  1.386 1_455  A
C375  C376  1.382 .      A
C376  C377  1.370 .      A
C377  C372  1.378 1_455  A
C377  N116  1.349 .      A
C378  C379  1.372 .      A
C378  C383  1.372 .      A
C379  C380  1.384 .      A
C380  C381  1.383 .      A
C381  C382  1.374 .      A
C382  C383  1.378 .      A
C384  N118  1.416 .      A
C384  N120  1.398 .      A
N118  C385  1.349 .      A
C385  C386  1.371 .      A
C385  C390  1.366 .      A
C386  C387  1.382 .      A
C387  C388  1.389 .      A
C388  C389  1.383 .      A
C389  C390  1.366 .      A
C390  N120  1.346 .      A
C391  C392  1.379 .      A
C391  C396  1.375 .      A
C392  C393  1.382 .      A
C393  C394  1.371 .      A
C394  C395  1.385 .      A
C395  C396  1.375 .      A
C397  N122  1.411 .      A
C397  N124  1.402 .      A
N122  C398  1.352 .      A
C398  C399  1.374 .      A
C398  C403  1.374 .      A
C399  C400  1.385 .      A
C400  C401  1.389 .      A
C401  C402  1.384 .      A
C402  C403  1.365 .      A
C403  N124  1.351 .      A
C404  C405  1.371 1_455  A
C404  C409  1.373 .      A
C405  C404  1.371 1_655  A
C405  C406  1.377 1_545  A
C406  C405  1.377 1_565  A
C406  C407  1.365 1_655  A
C407  C406  1.365 1_455  A
C407  C408  1.358 .      A
C408  C409  1.385 1_565  A
C409  C408  1.385 1_545  A
C410  N126  1.412 .      A
C410  N128  1.401 .      A
N126  C411  1.343 .      A
C411  C412  1.370 .      A
C411  C416  1.371 .      A
C412  C413  1.379 .      A
C413  C414  1.384 .      A
C414  C415  1.385 .      A
C415  C416  1.373 .      A
C416  N128  1.357 .      A
