data_str_m1_o12014_AFI
_audit_creation_date              2015-10-01T06:34:32-0700
_symmetry_space_group_name_H-M    P1
_symmetry_Int_Tables_number       1
_space_group_crystal_system       triclinic
loop_
_symmetry_equiv_pos_as_xyz
  x,y,z
_cell_length_a                    18.0414831
_cell_length_b                    29.3919733
_cell_length_c                    29.3811474
_cell_angle_alpha                 61.0361140
_cell_angle_beta                  86.0199750
_cell_angle_gamma                 87.2249137
_cell_volume                      13596.5740199

loop_
_atom_site_label
_atom_site_type_symbol
_atom_site_description
_atom_site_fract_x
_atom_site_fract_y
_atom_site_fract_z
_atom_type_partial_charge
Zn1   Zn    Zn3+2 0.968470 0.779635 0.465553 0.000000
Zn2   Zn    Zn3+2 0.855682 0.561927 0.476039 0.000000
Zn3   Zn    Zn3+2 0.839324 0.888531 0.228989 0.000000
Zn4   Zn    Zn3+2 0.963176 0.101418 0.015003 0.000000
Zn5   Zn    Zn3+2 0.971706 0.347956 0.683565 0.000000
Zn6   Zn    Zn3+2 0.489479 0.682892 0.023272 0.000000
Zn7   Zn    Zn3+2 0.862335 0.691511 0.008079 0.000000
Zn8   Zn    Zn3+2 0.356524 0.559931 0.906209 0.000000
Zn9   Zn    Zn3+2 0.356112 0.677068 0.236818 0.000000
Zn10  Zn    Zn3+2 0.349387 0.895381 0.807695 0.000000
Zn11  Zn    Zn3+2 0.982174 0.560947 0.892264 0.000000
Zn12  Zn    Zn3+2 0.465395 0.339819 0.909675 0.000000
Zn13  Zn    Zn3+2 0.978844 0.901357 0.790458 0.000000
Zn14  Zn    Zn3+2 0.475845 0.769760 0.687744 0.000000
Zn15  Zn    Zn3+2 0.478142 0.108807 0.801221 0.000000
Zn16  Zn    Zn3+2 0.979105 0.677304 0.228466 0.000000
Zn17  Zn    Zn3+2 0.463373 0.894406 0.229019 0.000000
Zn18  Zn    Zn3+2 0.478700 0.565211 0.475890 0.000000
Zn19  Zn    Zn3+2 0.346114 0.353378 0.691877 0.000000
Zn20  Zn    Zn3+2 0.329765 0.102660 0.017026 0.000000
Zn21  Zn    Zn3+2 0.848964 0.772751 0.683302 0.000000
Zn22  Zn    Zn3+2 0.840388 0.343869 0.903821 0.000000
Zn23  Zn    Zn3+2 0.851574 0.110675 0.794720 0.000000
Zn24  Zn    Zn3+2 0.338030 0.776589 0.477295 0.000000
C1    C     C_3   0.790142 0.723997 0.511881 0.000000
C2    C     C_3   0.821343 0.669453 0.531647 0.000000
C3    C     C_3   0.761130 0.629075 0.550676 0.000000
C4    C     C_R   0.883892 0.666705 0.495974 0.000000
N1    N     N_R   0.897105 0.624948 0.485525 0.000000
C5    C     C_R   0.964687 0.636167 0.462117 0.000000
C6    C     C_R   0.009733 0.603904 0.451488 0.000000
C7    C     C_R   0.071592 0.624475 0.419669 0.000000
C8    C     C_R   0.087802 0.675791 0.401986 0.000000
C9    C     C_R   0.046613 0.705617 0.419699 0.000000
C10   C     C_R   0.986311 0.683619 0.451941 0.000000
N2    N     N_R   0.939216 0.704506 0.474407 0.000000
C11   C     C_2   0.145814 0.700142 0.362237 0.000000
O1    O     O_2   0.171410 0.679715 0.336979 0.000000
O2    O     O_2   0.158756 0.750016 0.346334 0.000000
H1    H     H_    0.729344 0.725862 0.508569 0.000000
H2    H     H_    0.801091 0.737432 0.539347 0.000000
H3    H     H_    0.819843 0.751262 0.475549 0.000000
H4    H     H_    0.845953 0.660484 0.567546 0.000000
H5    H     H_    0.779553 0.595673 0.545192 0.000000
H6    H     H_    0.749415 0.615291 0.592732 0.000000
H7    H     H_    0.707739 0.645141 0.532560 0.000000
H8    H     H_    0.996911 0.563676 0.468111 0.000000
H9    H     H_    0.105424 0.600914 0.407661 0.000000
H10   H     H_    0.061048 0.744364 0.409808 0.000000
H11   H     H_    0.171553 0.772660 0.310306 0.000000
C12   C     C_3   0.051329 0.489628 0.592266 0.000000
C13   C     C_3   0.968493 0.489133 0.604394 0.000000
C14   C     C_3   0.941605 0.542808 0.587902 0.000000
C15   C     C_R   0.930094 0.461655 0.582425 0.000000
N3    N     N_R   0.892507 0.486013 0.536164 0.000000
C16   C     C_R   0.874674 0.444362 0.531644 0.000000
C17   C     C_R   0.846092 0.445305 0.489073 0.000000
C18   C     C_R   0.834263 0.398701 0.490335 0.000000
C19   C     C_R   0.848698 0.351964 0.534567 0.000000
C20   C     C_R   0.876905 0.351930 0.577428 0.000000
C21   C     C_R   0.894995 0.398571 0.573708 0.000000
N4    N     N_R   0.931220 0.407353 0.607619 0.000000
C22   C     C_2   0.836324 0.302747 0.534994 0.000000
O3    O     O_2   0.807146 0.302794 0.498767 0.000000
O4    O     O_2   0.858611 0.257363 0.574753 0.000000
H12   H     H_    0.063001 0.511585 0.549638 0.000000
H13   H     H_    0.079860 0.508176 0.611140 0.000000
H14   H     H_    0.072467 0.449522 0.606495 0.000000
H15   H     H_    0.953846 0.469135 0.645824 0.000000
H16   H     H_    0.883054 0.547457 0.577729 0.000000
H17   H     H_    0.946249 0.547384 0.622272 0.000000
H18   H     H_    0.980512 0.570341 0.557844 0.000000
H19   H     H_    0.832870 0.481672 0.455333 0.000000
H20   H     H_    0.812647 0.399326 0.456641 0.000000
H21   H     H_    0.883156 0.316394 0.612756 0.000000
H22   H     H_    0.850975 0.225143 0.574602 0.000000
C23   C     C_3   0.002712 0.926361 0.318472 0.000000
C24   C     C_3   0.999942 0.878696 0.311568 0.000000
C25   C     C_3   0.068460 0.845812 0.329802 0.000000
C26   C     C_R   0.931674 0.848924 0.338075 0.000000
N5    N     N_R   0.917576 0.833813 0.391050 0.000000
C27   C     C_R   0.848531 0.854580 0.389512 0.000000
C28   C     C_R   0.809939 0.860900 0.427845 0.000000
C29   C     C_R   0.750310 0.895993 0.413913 0.000000
C30   C     C_R   0.730089 0.923150 0.362493 0.000000
C31   C     C_R   0.762862 0.910183 0.326311 0.000000
C32   C     C_R   0.821582 0.875510 0.340711 0.000000
N6    N     N_R   0.869417 0.867580 0.308038 0.000000
C33   C     C_2   0.675473 0.966177 0.346028 0.000000
O5    O     O_2   0.648502 0.979339 0.377122 0.000000
O6    O     O_2   0.656322 0.992242 0.296126 0.000000
H23   H     H_    0.946987 0.938190 0.327404 0.000000
H24   H     H_    0.035448 0.918336 0.351143 0.000000
H25   H     H_    0.028225 0.958538 0.282650 0.000000
H26   H     H_    0.996375 0.893511 0.269620 0.000000
H27   H     H_    0.057813 0.809806 0.329564 0.000000
H28   H     H_    0.116019 0.865410 0.302231 0.000000
H29   H     H_    0.079382 0.837013 0.369700 0.000000
H30   H     H_    0.827895 0.841491 0.466879 0.000000
H31   H     H_    0.720887 0.903288 0.443053 0.000000
H32   H     H_    0.748037 0.930696 0.286649 0.000000
H33   H     H_    0.621235 0.021017 0.285224 0.000000
C34   C     C_3   0.948086 0.916271 0.095190 0.000000
C35   C     C_3   0.894358 0.960276 0.083075 0.000000
C36   C     C_3   0.816748 0.939601 0.095548 0.000000
C37   C     C_R   0.907012 0.986242 0.114362 0.000000
N7    N     N_R   0.893990 0.961409 0.168533 0.000000
C38   C     C_R   0.909612 0.000351 0.178449 0.000000
C39   C     C_R   0.898649 0.000006 0.225185 0.000000
C40   C     C_R   0.899268 0.046266 0.226492 0.000000
C41   C     C_R   0.904538 0.092995 0.180424 0.000000
C42   C     C_R   0.914725 0.092740 0.133325 0.000000
C43   C     C_R   0.922557 0.046003 0.133427 0.000000
N8    N     N_R   0.925241 0.038905 0.091358 0.000000
C44   C     C_2   0.893437 0.142246 0.181601 0.000000
O7    O     O_2   0.889296 0.142504 0.223068 0.000000
O8    O     O_2   0.886139 0.187259 0.137081 0.000000
H34   H     H_    0.938481 0.886752 0.135534 0.000000
H35   H     H_    0.936509 0.898647 0.070807 0.000000
H36   H     H_    0.005646 0.930703 0.087831 0.000000
H37   H     H_    0.903324 0.986867 0.041409 0.000000
H38   H     H_    0.774580 0.971140 0.083825 0.000000
H39   H     H_    0.808192 0.915653 0.076720 0.000000
H40   H     H_    0.810777 0.916079 0.137966 0.000000
H41   H     H_    0.881788 0.965255 0.259185 0.000000
H42   H     H_    0.888336 0.045664 0.263411 0.000000
H43   H     H_    0.908833 0.127818 0.097272 0.000000
H44   H     H_    0.878702 0.219505 0.138130 0.000000
C45   C     C_3   0.756657 0.578277 0.074817 0.000000
C46   C     C_3   0.680061 0.601875 0.058791 0.000000
C47   C     C_3   0.630264 0.576383 0.107410 0.000000
C48   C     C_R   0.676773 0.661271 0.031254 0.000000
N9    N     N_R   0.609048 0.689469 0.019773 0.000000
C49   C     C_R   0.632611 0.737155 0.006967 0.000000
C50   C     C_R   0.591448 0.776705 0.008266 0.000000
C51   C     C_R   0.629219 0.819877 0.001395 0.000000
C52   C     C_R   0.705290 0.824052 0.989239 0.000000
C53   C     C_R   0.744374 0.783427 0.989809 0.000000
C54   C     C_R   0.708036 0.739290 0.003054 0.000000
N10   N     N_R   0.739971 0.692830 0.017039 0.000000
C55   C     C_2   0.748831 0.868375 0.979450 0.000000
O9    O     O_2   0.746148 0.907713 0.937779 0.000000
O10   O     O_2   0.802237 0.862571 0.011668 0.000000
H45   H     H_    0.758851 0.554607 0.117569 0.000000
H46   H     H_    0.770411 0.551318 0.058999 0.000000
H47   H     H_    0.798265 0.608637 0.061623 0.000000
H48   H     H_    0.660078 0.588811 0.032637 0.000000
H49   H     H_    0.574993 0.595589 0.101115 0.000000
H50   H     H_    0.626950 0.534932 0.119014 0.000000
H51   H     H_    0.654727 0.574835 0.140720 0.000000
H52   H     H_    0.532544 0.772768 0.018003 0.000000
H53   H     H_    0.598661 0.849720 0.006050 0.000000
H54   H     H_    0.803300 0.785231 0.985113 0.000000
H55   H     H_    0.834313 0.891123 0.003678 0.000000
C56   C     C_3   0.266950 0.632103 0.961858 0.000000
C57   C     C_3   0.318908 0.611051 0.005040 0.000000
C58   C     C_3   0.297267 0.557724 0.049083 0.000000
C59   C     C_R   0.394667 0.611211 0.984315 0.000000
N11   N     N_R   0.411568 0.580537 0.960468 0.000000
C60   C     C_R   0.481488 0.564714 0.976515 0.000000
C61   C     C_R   0.525918 0.529501 0.969352 0.000000
C62   C     C_R   0.572825 0.498456 0.008107 0.000000
C63   C     C_R   0.565348 0.499939 0.054548 0.000000
C64   C     C_R   0.527036 0.541423 0.055910 0.000000
C65   C     C_R   0.500542 0.580768 0.010666 0.000000
N12   N     N_R   0.452745 0.617676 0.009885 0.000000
C66   C     C_2   0.590736 0.455178 0.102452 0.000000
O11   O     O_2   0.631056 0.421909 0.099929 0.000000
O12   O     O_2   0.566715 0.449212 0.149422 0.000000
H56   H     H_    0.278255 0.611099 0.940124 0.000000
H57   H     H_    0.208942 0.626767 0.976950 0.000000
H58   H     H_    0.277489 0.673977 0.936094 0.000000
H59   H     H_    0.319280 0.635156 0.022638 0.000000
H60   H     H_    0.301499 0.557197 0.086683 0.000000
H61   H     H_    0.239037 0.549304 0.046622 0.000000
H62   H     H_    0.335474 0.527188 0.049655 0.000000
H63   H     H_    0.515860 0.519910 0.939932 0.000000
H64   H     H_    0.602481 0.466739 0.005838 0.000000
H65   H     H_    0.509690 0.539978 0.092391 0.000000
H66   H     H_    0.582556 0.419213 0.180768 0.000000
C67   C     C_3   0.381334 0.567646 0.173109 0.000000
C68   C     C_3   0.356808 0.621868 0.132546 0.000000
C69   C     C_3   0.279215 0.632375 0.144789 0.000000
C70   C     C_R   0.402277 0.662191 0.132323 0.000000
N13   N     N_R   0.409345 0.657836 0.181053 0.000000
C71   C     C_R   0.481048 0.647945 0.186903 0.000000
C72   C     C_R   0.507112 0.607738 0.231413 0.000000
C73   C     C_R   0.580251 0.594107 0.230907 0.000000
C74   C     C_R   0.625922 0.624346 0.188421 0.000000
C75   C     C_R   0.594659 0.657146 0.140866 0.000000
C76   C     C_R   0.517944 0.661134 0.140395 0.000000
N14   N     N_R   0.468505 0.671179 0.102841 0.000000
C77   C     C_2   0.705766 0.613219 0.193845 0.000000
O13   O     O_2   0.747493 0.623623 0.155894 0.000000
O14   O     O_2   0.732171 0.588316 0.241830 0.000000
H67   H     H_    0.373812 0.562395 0.213039 0.000000
H68   H     H_    0.348047 0.538087 0.170951 0.000000
H69   H     H_    0.440628 0.560963 0.164996 0.000000
H70   H     H_    0.363890 0.621875 0.095279 0.000000
H71   H     H_    0.259798 0.670607 0.114250 0.000000
H72   H     H_    0.245834 0.599095 0.151302 0.000000
H73   H     H_    0.278540 0.635934 0.179684 0.000000
H74   H     H_    0.470342 0.585628 0.264881 0.000000
H75   H     H_    0.602148 0.560809 0.264285 0.000000
H76   H     H_    0.630114 0.676737 0.106973 0.000000
H77   H     H_    0.784099 0.579428 0.246593 0.000000
C78   C     C_3   0.512324 0.850554 0.831886 0.000000
C79   C     C_3   0.519383 0.824467 0.889210 0.000000
C80   C     C_3   0.537355 0.866804 0.901758 0.000000
C81   C     C_R   0.446184 0.802110 0.912094 0.000000
N15   N     N_R   0.382107 0.828014 0.885809 0.000000
C82   C     C_R   0.330195 0.799146 0.921737 0.000000
C83   C     C_R   0.256413 0.807879 0.919395 0.000000
C84   C     C_R   0.212389 0.766868 0.951704 0.000000
C85   C     C_R   0.239118 0.724678 0.994381 0.000000
C86   C     C_R   0.313466 0.724299 0.004040 0.000000
C87   C     C_R   0.359432 0.757753 0.964094 0.000000
N16   N     N_R   0.434406 0.756082 0.960433 0.000000
C88   C     C_2   0.185905 0.682322 0.024734 0.000000
O15   O     O_2   0.124368 0.685919 0.009089 0.000000
O16   O     O_2   0.204765 0.637418 0.065515 0.000000
H78   H     H_    0.472230 0.882956 0.820254 0.000000
H79   H     H_    0.565038 0.867661 0.811114 0.000000
H80   H     H_    0.491107 0.822425 0.821790 0.000000
H81   H     H_    0.562083 0.793236 0.902617 0.000000
H82   H     H_    0.512576 0.857192 0.940471 0.000000
H83   H     H_    0.598421 0.870657 0.899683 0.000000
H84   H     H_    0.514129 0.904993 0.873699 0.000000
H85   H     H_    0.233787 0.843227 0.889963 0.000000
H86   H     H_    0.155731 0.767590 0.943947 0.000000
H87   H     H_    0.337307 0.696559 0.038652 0.000000
H88   H     H_    0.168498 0.610379 0.083116 0.000000
C89   C     C_3   0.822020 0.869321 0.848852 0.000000
C90   C     C_3   0.838829 0.811076 0.874948 0.000000
C91   C     C_3   0.864029 0.789612 0.840467 0.000000
C92   C     C_R   0.905111 0.804722 0.899717 0.000000
N17   N     N_R   0.959115 0.842005 0.874576 0.000000
C93   C     C_R   0.002533 0.829462 0.914724 0.000000
C94   C     C_R   0.060658 0.856832 0.916868 0.000000
C95   C     C_R   0.094837 0.837743 0.963380 0.000000
C96   C     C_R   0.074311 0.790467 0.005427 0.000000
C97   C     C_R   0.018529 0.762522 0.001524 0.000000
C98   C     C_R   0.979673 0.784064 0.957773 0.000000
N18   N     N_R   0.917245 0.765708 0.950051 0.000000
C99   C     C_2   0.119626 0.765718 0.050569 0.000000
O17   O     O_2   0.181599 0.781687 0.048086 0.000000
O18   O     O_2   0.097410 0.721171 0.092182 0.000000
H89   H     H_    0.851198 0.889687 0.810152 0.000000
H90   H     H_    0.762708 0.879611 0.845618 0.000000
H91   H     H_    0.839970 0.884237 0.874131 0.000000
H92   H     H_    0.795381 0.787555 0.903462 0.000000
H93   H     H_    0.915940 0.806838 0.819049 0.000000
H94   H     H_    0.877448 0.748592 0.866704 0.000000
H95   H     H_    0.822133 0.795413 0.814291 0.000000
H96   H     H_    0.080982 0.891654 0.883649 0.000000
H97   H     H_    0.142996 0.857149 0.965060 0.000000
H98   H     H_    0.008362 0.723507 0.030795 0.000000
H99   H     H_    0.131435 0.701910 0.119143 0.000000
C100  C     C_3   0.804383 0.736519 0.098472 0.000000
C101  C     C_3   0.884531 0.746731 0.084152 0.000000
C102  C     C_3   0.915449 0.786241 0.095246 0.000000
C103  C     C_R   0.920502 0.694900 0.108977 0.000000
N19   N     N_R   0.940696 0.666960 0.161508 0.000000
C104  C     C_R   0.934531 0.618075 0.169451 0.000000
C105  C     C_R   0.925305 0.575248 0.216748 0.000000
C106  C     C_R   0.914350 0.528033 0.219520 0.000000
C107  C     C_R   0.908893 0.524657 0.174498 0.000000
C108  C     C_R   0.911655 0.569450 0.126129 0.000000
C109  C     C_R   0.920309 0.616435 0.124877 0.000000
N20   N     N_R   0.908406 0.664867 0.085319 0.000000
C110  C     C_2   0.890107 0.474367 0.179924 0.000000
O19   O     O_2   0.903083 0.434403 0.219825 0.000000
O20   O     O_2   0.851286 0.472203 0.143719 0.000000
H100  H     H_    0.799574 0.704044 0.137297 0.000000
H101  H     H_    0.771108 0.771711 0.090664 0.000000
H102  H     H_    0.785025 0.717540 0.078069 0.000000
H103  H     H_    0.889218 0.762815 0.041946 0.000000
H104  H     H_    0.952470 0.766391 0.127276 0.000000
H105  H     H_    0.946697 0.813467 0.059440 0.000000
H106  H     H_    0.870808 0.808858 0.103266 0.000000
H107  H     H_    0.918949 0.579690 0.250774 0.000000
H108  H     H_    0.905705 0.494305 0.257398 0.000000
H109  H     H_    0.906096 0.567481 0.090819 0.000000
H110  H     H_    0.831521 0.439225 0.151264 0.000000
C111  C     C_3   0.059651 0.590621 0.006126 0.000000
C112  C     C_3   0.017839 0.637836 0.967643 0.000000
C113  C     C_3   0.057756 0.668090 0.915257 0.000000
C114  C     C_R   0.945431 0.621808 0.961495 0.000000
N21   N     N_R   0.931508 0.589340 0.940697 0.000000
C115  C     C_R   0.857270 0.585081 0.948557 0.000000
C116  C     C_R   0.810567 0.557725 0.936007 0.000000
C117  C     C_R   0.735978 0.568298 0.935467 0.000000
C118  C     C_R   0.711606 0.611064 0.939349 0.000000
C119  C     C_R   0.759207 0.636210 0.953970 0.000000
C120  C     C_R   0.829287 0.617780 0.965659 0.000000
N22   N     N_R   0.883087 0.640013 0.977244 0.000000
C121  C     C_2   0.639053 0.633576 0.921969 0.000000
O21   O     O_2   0.610209 0.626755 0.889575 0.000000
O22   O     O_2   0.606068 0.664066 0.939918 0.000000
H111  H     H_    0.109118 0.583243 0.986597 0.000000
H112  H     H_    0.076188 0.596641 0.038283 0.000000
H113  H     H_    0.022218 0.556925 0.023462 0.000000
H114  H     H_    0.006728 0.664035 0.984590 0.000000
H115  H     H_    0.024189 0.703552 0.892002 0.000000
H116  H     H_    0.112982 0.679655 0.919874 0.000000
H117  H     H_    0.062124 0.644842 0.894952 0.000000
H118  H     H_    0.829983 0.535595 0.917706 0.000000
H119  H     H_    0.699504 0.548690 0.923629 0.000000
H120  H     H_    0.746084 0.673385 0.949122 0.000000
H121  H     H_    0.560481 0.682665 0.926923 0.000000
C122  C     C_3   0.456947 0.678146 0.868700 0.000000
C123  C     C_3   0.387591 0.690626 0.840131 0.000000
C124  C     C_3   0.368955 0.745739 0.821987 0.000000
C125  C     C_R   0.395822 0.670622 0.802402 0.000000
N23   N     N_R   0.440311 0.693901 0.755281 0.000000
C126  C     C_R   0.481923 0.652225 0.761134 0.000000
C127  C     C_R   0.549598 0.653689 0.736750 0.000000
C128  C     C_R   0.600489 0.614595 0.763614 0.000000
C129  C     C_R   0.580685 0.573589 0.812117 0.000000
C130  C     C_R   0.507676 0.567503 0.829522 0.000000
C131  C     C_R   0.459666 0.607883 0.804905 0.000000
N24   N     N_R   0.400431 0.616921 0.829277 0.000000
C132  C     C_2   0.636175 0.538237 0.846992 0.000000
O23   O     O_2   0.702183 0.546734 0.836166 0.000000
O24   O     O_2   0.614143 0.497830 0.892864 0.000000
H122  H     H_    0.503583 0.695367 0.842390 0.000000
H123  H     H_    0.450700 0.691160 0.898301 0.000000
H124  H     H_    0.472546 0.637501 0.883608 0.000000
H125  H     H_    0.343374 0.667946 0.868511 0.000000
H126  H     H_    0.323568 0.755048 0.796592 0.000000
H127  H     H_    0.351173 0.749618 0.856708 0.000000
H128  H     H_    0.417636 0.769861 0.804051 0.000000
H129  H     H_    0.563936 0.685558 0.699456 0.000000
H130  H     H_    0.656087 0.616704 0.747332 0.000000
H131  H     H_    0.490546 0.535160 0.865371 0.000000
H132  H     H_    0.649495 0.478339 0.918950 0.000000
C133  C     C_3   0.200118 0.671982 0.832693 0.000000
C134  C     C_3   0.174293 0.624800 0.831758 0.000000
C135  C     C_3   0.227235 0.609740 0.799765 0.000000
C136  C     C_R   0.169316 0.578748 0.883367 0.000000
N25   N     N_R   0.232390 0.555983 0.911859 0.000000
C137  C     C_R   0.200347 0.517657 0.955418 0.000000
C138  C     C_R   0.234210 0.487850 0.000291 0.000000
C139  C     C_R   0.192726 0.457531 0.045226 0.000000
C140  C     C_R   0.116219 0.457968 0.044226 0.000000
C141  C     C_R   0.082420 0.485596 0.996869 0.000000
C142  C     C_R   0.125364 0.516042 0.952785 0.000000
N26   N     N_R   0.101891 0.553660 0.906610 0.000000
C143  C     C_2   0.072243 0.432960 0.093866 0.000000
O25   O     O_2   0.102498 0.404511 0.134181 0.000000
O26   O     O_2   0.998542 0.441671 0.095422 0.000000
H133  H     H_    0.249604 0.687477 0.806312 0.000000
H134  H     H_    0.155244 0.701656 0.818302 0.000000
H135  H     H_    0.210731 0.662978 0.872367 0.000000
H136  H     H_    0.118931 0.635231 0.817443 0.000000
H137  H     H_    0.210779 0.571378 0.806612 0.000000
H138  H     H_    0.231776 0.638817 0.758263 0.000000
H139  H     H_    0.281195 0.603989 0.815542 0.000000
H140  H     H_    0.290272 0.494244 0.001080 0.000000
H141  H     H_    0.220297 0.437201 0.081488 0.000000
H142  H     H_    0.023970 0.487747 0.994926 0.000000
H143  H     H_    0.970108 0.423424 0.128059 0.000000
C144  C     C_3   0.270299 0.462251 0.863449 0.000000
C145  C     C_3   0.352723 0.462343 0.850334 0.000000
C146  C     C_3   0.373701 0.512165 0.802739 0.000000
C147  C     C_R   0.395618 0.451367 0.896377 0.000000
N27   N     N_R   0.390097 0.481201 0.922135 0.000000
C148  C     C_R   0.414302 0.446077 0.969468 0.000000
C149  C     C_R   0.413696 0.450151 0.014215 0.000000
C150  C     C_R   0.437245 0.409264 0.059426 0.000000
C151  C     C_R   0.462271 0.364242 0.060128 0.000000
C152  C     C_R   0.460238 0.359376 0.015628 0.000000
C153  C     C_R   0.437428 0.400855 0.970466 0.000000
N28   N     N_R   0.428965 0.402584 0.924380 0.000000
C154  C     C_2   0.494684 0.324311 0.107572 0.000000
O27   O     O_2   0.458602 0.307212 0.148988 0.000000
O28   O     O_2   0.568095 0.314035 0.107097 0.000000
H144  H     H_    0.256233 0.491289 0.876273 0.000000
H145  H     H_    0.239077 0.471120 0.828925 0.000000
H146  H     H_    0.254837 0.423333 0.895076 0.000000
H147  H     H_    0.364837 0.430802 0.840821 0.000000
H148  H     H_    0.350277 0.513453 0.768243 0.000000
H149  H     H_    0.351882 0.545158 0.807440 0.000000
H150  H     H_    0.434569 0.513495 0.797525 0.000000
H151  H     H_    0.399172 0.484969 0.015101 0.000000
H152  H     H_    0.439096 0.413499 0.093877 0.000000
H153  H     H_    0.470626 0.323322 0.017003 0.000000
H154  H     H_    0.591574 0.292011 0.139390 0.000000
C155  C     C_3   0.114329 0.592803 0.216589 0.000000
C156  C     C_3   0.158222 0.595987 0.257166 0.000000
C157  C     C_3   0.227676 0.561298 0.266246 0.000000
C158  C     C_R   0.165957 0.652866 0.239477 0.000000
N29   N     N_R   0.234143 0.678933 0.228069 0.000000
C159  C     C_R   0.211824 0.727026 0.195428 0.000000
C160  C     C_R   0.257493 0.763639 0.159355 0.000000
C161  C     C_R   0.228038 0.809652 0.123270 0.000000
C162  C     C_R   0.152220 0.816926 0.123629 0.000000
C163  C     C_R   0.105570 0.777114 0.157426 0.000000
C164  C     C_R   0.136729 0.731587 0.192388 0.000000
N30   N     N_R   0.103157 0.685532 0.221416 0.000000
C165  C     C_2   0.121077 0.860614 0.079727 0.000000
O29   O     O_2   0.159671 0.897028 0.049838 0.000000
O30   O     O_2   0.054531 0.854390 0.066651 0.000000
H155  H     H_    0.138568 0.617025 0.177199 0.000000
H156  H     H_    0.110719 0.552311 0.223806 0.000000
H157  H     H_    0.058472 0.609031 0.217112 0.000000
H158  H     H_    0.126867 0.580374 0.294716 0.000000
H159  H     H_    0.222283 0.527510 0.305944 0.000000
H160  H     H_    0.231809 0.544964 0.239245 0.000000
H161  H     H_    0.279745 0.581473 0.262063 0.000000
H162  H     H_    0.313655 0.753747 0.156039 0.000000
H163  H     H_    0.264357 0.838050 0.093091 0.000000
H164  H     H_    0.046672 0.780989 0.155519 0.000000
H165  H     H_    0.039407 0.874133 0.031755 0.000000
C166  C     C_3   0.302326 0.800458 0.301389 0.000000
C167  C     C_3   0.306059 0.791377 0.256296 0.000000
C168  C     C_3   0.271202 0.838157 0.213282 0.000000
C169  C     C_R   0.383759 0.786609 0.239211 0.000000
N31   N     N_R   0.431903 0.828838 0.219631 0.000000
C170  C     C_R   0.466710 0.825413 0.179723 0.000000
C171  C     C_R   0.503614 0.865496 0.139198 0.000000
C172  C     C_R   0.503854 0.867518 0.091617 0.000000
C173  C     C_R   0.467925 0.830189 0.086266 0.000000
C174  C     C_R   0.447475 0.784172 0.129602 0.000000
C175  C     C_R   0.444450 0.782745 0.177071 0.000000
N32   N     N_R   0.396597 0.753933 0.217620 0.000000
C176  C     C_2   0.439306 0.843796 0.035961 0.000000
O31   O     O_2   0.450241 0.886928 0.999114 0.000000
O32   O     O_2   0.390440 0.812623 0.032621 0.000000
H166  H     H_    0.258597 0.829582 0.297496 0.000000
H167  H     H_    0.288562 0.763931 0.335557 0.000000
H168  H     H_    0.356622 0.812889 0.303326 0.000000
H169  H     H_    0.275439 0.755955 0.265467 0.000000
H170  H     H_    0.293420 0.841318 0.176211 0.000000
H171  H     H_    0.210060 0.834863 0.216857 0.000000
H172  H     H_    0.287886 0.872938 0.215030 0.000000
H173  H     H_    0.520370 0.898814 0.141859 0.000000
H174  H     H_    0.525196 0.901281 0.058010 0.000000
H175  H     H_    0.422436 0.754953 0.124434 0.000000
H176  H     H_    0.363428 0.825203 0.001498 0.000000
C177  C     C_3   0.586950 0.595009 0.336451 0.000000
C178  C     C_3   0.531341 0.637021 0.331376 0.000000
C179  C     C_3   0.536002 0.685866 0.279318 0.000000
C180  C     C_R   0.454786 0.614916 0.348825 0.000000
N33   N     N_R   0.394619 0.624107 0.316783 0.000000
C181  C     C_R   0.345586 0.589618 0.352217 0.000000
C182  C     C_R   0.271932 0.588355 0.347019 0.000000
C183  C     C_R   0.226968 0.553820 0.387512 0.000000
C184  C     C_R   0.253859 0.527410 0.436355 0.000000
C185  C     C_R   0.326721 0.533047 0.442922 0.000000
C186  C     C_R   0.372393 0.563321 0.400623 0.000000
N34   N     N_R   0.439441 0.580656 0.401583 0.000000
C187  C     C_2   0.203278 0.501618 0.481925 0.000000
O33   O     O_2   0.137733 0.498148 0.476868 0.000000
O34   O     O_2   0.228138 0.485698 0.529477 0.000000
H177  H     H_    0.557848 0.562262 0.337358 0.000000
H178  H     H_    0.630963 0.611099 0.304935 0.000000
H179  H     H_    0.613643 0.580039 0.373961 0.000000
H180  H     H_    0.550546 0.648457 0.358600 0.000000
H181  H     H_    0.501704 0.715853 0.283084 0.000000
H182  H     H_    0.594280 0.698929 0.268848 0.000000
H183  H     H_    0.513691 0.681855 0.248118 0.000000
H184  H     H_    0.248337 0.616919 0.313504 0.000000
H185  H     H_    0.169293 0.551750 0.381396 0.000000
H186  H     H_    0.344714 0.517461 0.480882 0.000000
H187  H     H_    0.194527 0.473780 0.559809 0.000000
C188  C     C_3   0.087271 0.810405 0.804708 0.000000
C189  C     C_3   0.146649 0.823476 0.829810 0.000000
C190  C     C_3   0.214837 0.793453 0.828918 0.000000
C191  C     C_R   0.157372 0.880930 0.804873 0.000000
N35   N     N_R   0.223847 0.907638 0.799511 0.000000
C192  C     C_R   0.197799 0.957596 0.773088 0.000000
C193  C     C_R   0.235504 0.002810 0.754359 0.000000
C194  C     C_R   0.212304 0.045622 0.710075 0.000000
C195  C     C_R   0.145203 0.044956 0.690731 0.000000
C196  C     C_R   0.097738 0.004238 0.719961 0.000000
C197  C     C_R   0.125763 0.960146 0.760666 0.000000
N36   N     N_R   0.096015 0.912835 0.783536 0.000000
C198  C     C_2   0.127748 0.084521 0.637932 0.000000
O35   O     O_2   0.167269 0.122252 0.613696 0.000000
O36   O     O_2   0.071541 0.077221 0.614402 0.000000
H188  H     H_    0.095480 0.831761 0.762567 0.000000
H189  H     H_    0.086973 0.768237 0.818321 0.000000
H190  H     H_    0.033092 0.821200 0.815349 0.000000
H191  H     H_    0.125072 0.809706 0.869337 0.000000
H192  H     H_    0.264884 0.816386 0.822394 0.000000
H193  H     H_    0.216257 0.756166 0.865681 0.000000
H194  H     H_    0.210783 0.783536 0.797845 0.000000
H195  H     H_    0.280558 0.006034 0.773441 0.000000
H196  H     H_    0.248972 0.078160 0.689430 0.000000
H197  H     H_    0.045212 0.003854 0.705845 0.000000
H198  H     H_    0.062208 0.102017 0.578670 0.000000
C199  C     C_3   0.555816 0.900606 0.654615 0.000000
C200  C     C_3   0.532656 0.888180 0.709695 0.000000
C201  C     C_3   0.536814 0.939708 0.708625 0.000000
C202  C     C_R   0.457060 0.861975 0.725936 0.000000
N37   N     N_R   0.394951 0.881133 0.743559 0.000000
C203  C     C_R   0.341065 0.869267 0.722302 0.000000
C204  C     C_R   0.272308 0.890583 0.711561 0.000000
C205  C     C_R   0.222853 0.864960 0.699471 0.000000
C206  C     C_R   0.242203 0.818329 0.700907 0.000000
C207  C     C_R   0.316169 0.804410 0.701709 0.000000
C208  C     C_R   0.364814 0.835489 0.705712 0.000000
N38   N     N_R   0.437950 0.828637 0.707185 0.000000
C209  C     C_2   0.184997 0.782694 0.705614 0.000000
O37   O     O_2   0.119640 0.794655 0.705177 0.000000
O38   O     O_2   0.203900 0.734754 0.714731 0.000000
H199  H     H_    0.506596 0.910644 0.630704 0.000000
H200  H     H_    0.594005 0.933985 0.636754 0.000000
H201  H     H_    0.587981 0.867829 0.655269 0.000000
H202  H     H_    0.575422 0.862825 0.735272 0.000000
H203  H     H_    0.509290 0.939012 0.743048 0.000000
H204  H     H_    0.595841 0.948980 0.707901 0.000000
H205  H     H_    0.513335 0.970074 0.672435 0.000000
H206  H     H_    0.257479 0.926691 0.710545 0.000000
H207  H     H_    0.167480 0.878046 0.696623 0.000000
H208  H     H_    0.336043 0.767398 0.706984 0.000000
H209  H     H_    0.164676 0.710704 0.723123 0.000000
C210  C     C_3   0.331058 0.014962 0.877401 0.000000
C211  C     C_3   0.386197 0.976369 0.875878 0.000000
C212  C     C_3   0.347590 0.924922 0.900877 0.000000
C213  C     C_R   0.411435 0.994874 0.820488 0.000000
N39   N     N_R   0.396285 0.968066 0.793953 0.000000
C214  C     C_R   0.414258 0.004102 0.744335 0.000000
C215  C     C_R   0.393034 0.005228 0.699755 0.000000
C216  C     C_R   0.416699 0.045628 0.652194 0.000000
C217  C     C_R   0.463840 0.082467 0.650212 0.000000
C218  C     C_R   0.476231 0.084219 0.695415 0.000000
C219  C     C_R   0.446381 0.046307 0.741947 0.000000
N40   N     N_R   0.442824 0.044104 0.789182 0.000000
C220  C     C_2   0.502391 0.117896 0.600676 0.000000
O39   O     O_2   0.479801 0.124694 0.559645 0.000000
O40   O     O_2   0.566400 0.139608 0.600560 0.000000
H210  H     H_    0.275712 0.008632 0.867417 0.000000
H211  H     H_    0.329714 0.011220 0.916589 0.000000
H212  H     H_    0.350163 0.053366 0.848300 0.000000
H213  H     H_    0.434110 0.973259 0.898673 0.000000
H214  H     H_    0.390268 0.894177 0.912128 0.000000
H215  H     H_    0.316380 0.919459 0.936994 0.000000
H216  H     H_    0.307903 0.923169 0.874680 0.000000
H217  H     H_    0.359145 0.975563 0.701267 0.000000
H218  H     H_    0.403621 0.045227 0.617048 0.000000
H219  H     H_    0.510370 0.113084 0.694412 0.000000
H220  H     H_    0.593482 0.161156 0.568001 0.000000
C221  C     C_3   0.818772 0.689708 0.836392 0.000000
C222  C     C_3   0.824659 0.651971 0.817146 0.000000
C223  C     C_3   0.763349 0.659417 0.782580 0.000000
C224  C     C_R   0.897239 0.660164 0.790923 0.000000
N41   N     N_R   0.910471 0.701001 0.740646 0.000000
C225  C     C_R   0.978909 0.686120 0.729866 0.000000
C226  C     C_R   0.021781 0.709630 0.684650 0.000000
C227  C     C_R   0.080420 0.682205 0.676802 0.000000
C228  C     C_R   0.097952 0.632068 0.714535 0.000000
C229  C     C_R   0.058767 0.610806 0.762207 0.000000
C230  C     C_R   0.002000 0.639630 0.769993 0.000000
N42   N     N_R   0.955544 0.624177 0.812457 0.000000
C231  C     C_2   0.161397 0.603506 0.705629 0.000000
O41   O     O_2   0.202852 0.624657 0.667295 0.000000
O42   O     O_2   0.177959 0.554787 0.741265 0.000000
H221  H     H_    0.839010 0.726165 0.803714 0.000000
H222  H     H_    0.761471 0.693365 0.849703 0.000000
H223  H     H_    0.859008 0.677720 0.866547 0.000000
H224  H     H_    0.823651 0.611913 0.846138 0.000000
H225  H     H_    0.765424 0.626649 0.774790 0.000000
H226  H     H_    0.708674 0.660850 0.801530 0.000000
H227  H     H_    0.772661 0.694678 0.746110 0.000000
H228  H     H_    0.009152 0.747372 0.654339 0.000000
H229  H     H_    0.112650 0.701518 0.640876 0.000000
H230  H     H_    0.073432 0.573200 0.793315 0.000000
H231  H     H_    0.224711 0.539930 0.736377 0.000000
C232  C     C_3   0.933004 0.520064 0.803457 0.000000
C233  C     C_3   0.962717 0.466964 0.840032 0.000000
C234  C     C_3   0.045380 0.467517 0.846725 0.000000
C235  C     C_R   0.924023 0.452480 0.890289 0.000000
N43   N     N_R   0.932970 0.481849 0.915492 0.000000
C236  C     C_R   0.896042 0.451461 0.961734 0.000000
C237  C     C_R   0.886921 0.459036 0.004489 0.000000
C238  C     C_R   0.846116 0.424295 0.047582 0.000000
C239  C     C_R   0.815589 0.381487 0.049025 0.000000
C240  C     C_R   0.822958 0.374846 0.005233 0.000000
C241  C     C_R   0.863169 0.410035 0.961939 0.000000
N44   N     N_R   0.879635 0.408145 0.917140 0.000000
C242  C     C_2   0.778691 0.343053 0.097965 0.000000
O43   O     O_2   0.767131 0.352339 0.134052 0.000000
O44   O     O_2   0.761578 0.296237 0.104736 0.000000
H232  H     H_    0.925148 0.542783 0.823704 0.000000
H233  H     H_    0.969276 0.540515 0.768173 0.000000
H234  H     H_    0.877480 0.516193 0.793393 0.000000
H235  H     H_    0.950975 0.438882 0.826738 0.000000
H236  H     H_    0.065220 0.427304 0.871811 0.000000
H237  H     H_    0.077011 0.483546 0.808961 0.000000
H238  H     H_    0.056614 0.491193 0.865360 0.000000
H239  H     H_    0.909193 0.491524 0.005574 0.000000
H240  H     H_    0.840025 0.430576 0.080681 0.000000
H241  H     H_    0.799321 0.342884 0.004768 0.000000
H242  H     H_    0.739900 0.270751 0.137934 0.000000
C243  C     C_3   0.274235 0.338783 0.860771 0.000000
C244  C     C_3   0.324916 0.309291 0.840654 0.000000
C245  C     C_3   0.282284 0.290596 0.810764 0.000000
C246  C     C_R   0.387210 0.342321 0.808227 0.000000
N45   N     N_R   0.395501 0.362295 0.754052 0.000000
C247  C     C_R   0.453244 0.394134 0.742736 0.000000
C248  C     C_R   0.491432 0.421803 0.695838 0.000000
C249  C     C_R   0.541861 0.457371 0.691069 0.000000
C250  C     C_R   0.548283 0.468016 0.731539 0.000000
C251  C     C_R   0.512836 0.437187 0.779538 0.000000
C252  C     C_R   0.473426 0.396000 0.785746 0.000000
N46   N     N_R   0.438091 0.360085 0.829632 0.000000
C253  C     C_2   0.596830 0.509252 0.724825 0.000000
O45   O     O_2   0.617590 0.543113 0.681902 0.000000
O46   O     O_2   0.623487 0.508117 0.766258 0.000000
H243  H     H_    0.251345 0.374663 0.829668 0.000000
H244  H     H_    0.227842 0.313851 0.885309 0.000000
H245  H     H_    0.307293 0.350746 0.883038 0.000000
H246  H     H_    0.348730 0.276258 0.874256 0.000000
H247  H     H_    0.312432 0.258258 0.809232 0.000000
H248  H     H_    0.224510 0.280755 0.827147 0.000000
H249  H     H_    0.280462 0.319548 0.770600 0.000000
H250  H     H_    0.486128 0.415287 0.663760 0.000000
H251  H     H_    0.572432 0.478935 0.654303 0.000000
H252  H     H_    0.511633 0.447028 0.810248 0.000000
H253  H     H_    0.663115 0.531521 0.759859 0.000000
C254  C     C_3   0.528588 0.167464 0.000600 0.000000
C255  C     C_3   0.494005 0.209019 0.953577 0.000000
C256  C     C_3   0.499172 0.200519 0.907300 0.000000
C257  C     C_R   0.418946 0.219895 0.968570 0.000000
N47   N     N_R   0.359604 0.185065 0.993237 0.000000
C258  C     C_R   0.307655 0.218475 0.996424 0.000000
C259  C     C_R   0.232623 0.214987 0.996272 0.000000
C260  C     C_R   0.188095 0.256883 0.989994 0.000000
C261  C     C_R   0.218407 0.300900 0.986461 0.000000
C262  C     C_R   0.294298 0.306040 0.981743 0.000000
C263  C     C_R   0.336564 0.266362 0.981282 0.000000
N48   N     N_R   0.405384 0.270017 0.959760 0.000000
C264  C     C_2   0.171452 0.345864 0.977231 0.000000
O47   O     O_2   0.113141 0.352858 0.956132 0.000000
O48   O     O_2   0.194723 0.381603 0.988686 0.000000
H254  H     H_    0.508105 0.129522 0.009662 0.000000
H255  H     H_    0.589830 0.170173 0.995117 0.000000
H256  H     H_    0.509351 0.174740 0.032694 0.000000
H257  H     H_    0.525416 0.244546 0.940851 0.000000
H258  H     H_    0.465062 0.230025 0.876180 0.000000
H259  H     H_    0.558238 0.204805 0.893521 0.000000
H260  H     H_    0.481713 0.161553 0.918382 0.000000
H261  H     H_    0.209419 0.183903 0.993707 0.000000
H262  H     H_    0.129730 0.255871 0.985343 0.000000
H263  H     H_    0.318364 0.342720 0.971438 0.000000
H264  H     H_    0.164469 0.412332 0.979671 0.000000
C265  C     C_3   0.711604 0.423662 0.860170 0.000000
C266  C     C_3   0.653586 0.392479 0.853410 0.000000
C267  C     C_3   0.666332 0.376958 0.811272 0.000000
C268  C     C_R   0.652671 0.345200 0.900400 0.000000
N49   N     N_R   0.717805 0.327233 0.927019 0.000000
C269  C     C_R   0.688367 0.295096 0.975354 0.000000
C270  C     C_R   0.725621 0.266140 0.020073 0.000000
C271  C     C_R   0.685283 0.237130 0.066225 0.000000
C272  C     C_R   0.608679 0.236062 0.067327 0.000000
C273  C     C_R   0.572302 0.261412 0.021314 0.000000
C274  C     C_R   0.612123 0.292814 0.975864 0.000000
N50   N     N_R   0.585902 0.324761 0.928167 0.000000
C275  C     C_2   0.566370 0.209099 0.117457 0.000000
O49   O     O_2   0.598583 0.183855 0.157632 0.000000
O50   O     O_2   0.491998 0.214819 0.119733 0.000000
H265  H     H_    0.767423 0.407773 0.860302 0.000000
H266  H     H_    0.709696 0.464342 0.830390 0.000000
H267  H     H_    0.700950 0.421984 0.898379 0.000000
H268  H     H_    0.600281 0.411138 0.853339 0.000000
H269  H     H_    0.618760 0.353493 0.813271 0.000000
H270  H     H_    0.670174 0.410818 0.772228 0.000000
H271  H     H_    0.715651 0.350969 0.819338 0.000000
H272  H     H_    0.785335 0.264799 0.019898 0.000000
H273  H     H_    0.714628 0.214705 0.101427 0.000000
H274  H     H_    0.513997 0.255941 0.021396 0.000000
H275  H     H_    0.465086 0.200019 0.153184 0.000000
C276  C     C_3   0.020252 0.006876 0.846684 0.000000
C277  C     C_3   0.958126 0.974092 0.849667 0.000000
C278  C     C_3   0.902812 0.959319 0.894754 0.000000
C279  C     C_R   0.922655 0.999469 0.800667 0.000000
N51   N     N_R   0.889971 0.049118 0.776963 0.000000
C280  C     C_R   0.875652 0.053539 0.730257 0.000000
C281  C     C_R   0.843141 0.094738 0.689460 0.000000
C282  C     C_R   0.842036 0.095068 0.642365 0.000000
C283  C     C_R   0.876528 0.055102 0.636093 0.000000
C284  C     C_R   0.907998 0.013348 0.678238 0.000000
C285  C     C_R   0.901799 0.011475 0.725933 0.000000
N52   N     N_R   0.929642 0.975091 0.770971 0.000000
C286  C     C_2   0.880927 0.057517 0.584863 0.000000
O51   O     O_2   0.852984 0.094153 0.547831 0.000000
O52   O     O_2   0.915946 0.019363 0.578435 0.000000
H276  H     H_    0.003990 0.022748 0.872810 0.000000
H277  H     H_    0.072286 0.983604 0.857136 0.000000
H278  H     H_    0.028976 0.037802 0.805783 0.000000
H279  H     H_    0.981658 0.938235 0.851780 0.000000
H280  H     H_    0.850095 0.954334 0.882146 0.000000
H281  H     H_    0.918772 0.920561 0.926208 0.000000
H282  H     H_    0.895067 0.989028 0.907411 0.000000
H283  H     H_    0.823300 0.127359 0.693129 0.000000
H284  H     H_    0.817588 0.128164 0.609949 0.000000
H285  H     H_    0.938991 0.983797 0.673453 0.000000
H286  H     H_    0.918674 0.021065 0.544695 0.000000
C287  C     C_3   0.794591 0.906642 0.645137 0.000000
C288  C     C_3   0.818051 0.901964 0.695865 0.000000
C289  C     C_3   0.750846 0.899413 0.729652 0.000000
C290  C     C_R   0.878360 0.860916 0.721276 0.000000
N53   N     N_R   0.897118 0.833218 0.694506 0.000000
C291  C     C_R   0.966324 0.850819 0.675537 0.000000
C292  C     C_R   0.004834 0.850043 0.634156 0.000000
C293  C     C_R   0.062295 0.884228 0.609112 0.000000
C294  C     C_R   0.078925 0.919834 0.624658 0.000000
C295  C     C_R   0.044242 0.916435 0.669833 0.000000
C296  C     C_R   0.990222 0.880063 0.695987 0.000000
N54   N     N_R   0.941033 0.879569 0.732730 0.000000
C297  C     C_2   0.136078 0.958849 0.594933 0.000000
O53   O     O_2   0.163720 0.962978 0.554070 0.000000
O54   O     O_2   0.159328 0.989595 0.613026 0.000000
H287  H     H_    0.773870 0.869467 0.650539 0.000000
H288  H     H_    0.749609 0.936487 0.629778 0.000000
H289  H     H_    0.842056 0.920520 0.616072 0.000000
H290  H     H_    0.841835 0.939186 0.684760 0.000000
H291  H     H_    0.763634 0.871871 0.769196 0.000000
H292  H     H_    0.739394 0.938278 0.726357 0.000000
H293  H     H_    0.702143 0.887361 0.717556 0.000000
H294  H     H_    0.987955 0.826808 0.618370 0.000000
H295  H     H_    0.092012 0.884327 0.575892 0.000000
H296  H     H_    0.057592 0.942752 0.683210 0.000000
H297  H     H_    0.197624 0.014667 0.593628 0.000000
C298  C     C_3   0.279179 0.830791 0.590845 0.000000
C299  C     C_3   0.304148 0.774335 0.609945 0.000000
C300  C     C_3   0.250176 0.748512 0.594133 0.000000
C301  C     C_R   0.380197 0.775085 0.587929 0.000000
N55   N     N_R   0.387073 0.796066 0.533831 0.000000
C302  C     C_R   0.439691 0.831695 0.522020 0.000000
C303  C     C_R   0.451836 0.875657 0.474954 0.000000
C304  C     C_R   0.502234 0.911210 0.471518 0.000000
C305  C     C_R   0.539570 0.902522 0.514900 0.000000
C306  C     C_R   0.523473 0.859105 0.562728 0.000000
C307  C     C_R   0.471355 0.825239 0.565916 0.000000
N56   N     N_R   0.437478 0.787653 0.609791 0.000000
C308  C     C_2   0.593367 0.940620 0.510391 0.000000
O55   O     O_2   0.597246 0.983056 0.471434 0.000000
O56   O     O_2   0.638921 0.928967 0.549050 0.000000
H298  H     H_    0.282421 0.852418 0.548376 0.000000
H299  H     H_    0.221111 0.833769 0.603964 0.000000
H300  H     H_    0.317201 0.851261 0.602456 0.000000
H301  H     H_    0.305323 0.750591 0.651870 0.000000
H302  H     H_    0.236078 0.711991 0.629066 0.000000
H303  H     H_    0.198826 0.772382 0.580965 0.000000
H304  H     H_    0.275992 0.740083 0.564249 0.000000
H305  H     H_    0.420392 0.883469 0.441957 0.000000
H306  H     H_    0.511878 0.945891 0.434574 0.000000
H307  H     H_    0.549253 0.852355 0.597005 0.000000
H308  H     H_    0.674115 0.954234 0.545825 0.000000
C309  C     C_3   0.693991 0.794114 0.566159 0.000000
C310  C     C_3   0.660232 0.754069 0.617249 0.000000
C311  C     C_3   0.691566 0.699830 0.635120 0.000000
C312  C     C_R   0.661837 0.769041 0.658840 0.000000
N57   N     N_R   0.593837 0.770835 0.683123 0.000000
C313  C     C_R   0.615314 0.772247 0.723986 0.000000
C314  C     C_R   0.570039 0.763783 0.764887 0.000000
C315  C     C_R   0.599499 0.764663 0.805266 0.000000
C316  C     C_R   0.670479 0.779519 0.800499 0.000000
C317  C     C_R   0.718362 0.783875 0.759742 0.000000
C318  C     C_R   0.689131 0.777201 0.722774 0.000000
N58   N     N_R   0.724565 0.773857 0.682792 0.000000
C319  C     C_2   0.689001 0.787505 0.842028 0.000000
O57   O     O_2   0.677853 0.829694 0.839041 0.000000
O58   O     O_2   0.689059 0.746278 0.888542 0.000000
H309  H     H_    0.678211 0.786749 0.534582 0.000000
H310  H     H_    0.672089 0.832740 0.558504 0.000000
H311  H     H_    0.754407 0.792721 0.568198 0.000000
H312  H     H_    0.600810 0.752486 0.610917 0.000000
H313  H     H_    0.703917 0.682540 0.676461 0.000000
H314  H     H_    0.650109 0.675988 0.630373 0.000000
H315  H     H_    0.742707 0.699997 0.612900 0.000000
H316  H     H_    0.513561 0.755914 0.765191 0.000000
H317  H     H_    0.566472 0.757462 0.839844 0.000000
H318  H     H_    0.775160 0.793247 0.754467 0.000000
H319  H     H_    0.679877 0.752191 0.917467 0.000000
C320  C     C_3   0.613271 0.007627 0.813223 0.000000
C321  C     C_3   0.667520 0.030680 0.833397 0.000000
C322  C     C_3   0.741630 0.012301 0.823541 0.000000
C323  C     C_R   0.664373 0.088646 0.804064 0.000000
N59   N     N_R   0.729039 0.117210 0.779481 0.000000
C324  C     C_R   0.700143 0.157165 0.736405 0.000000
C325  C     C_R   0.737077 0.196392 0.693804 0.000000
C326  C     C_R   0.698121 0.228515 0.650477 0.000000
C327  C     C_R   0.623151 0.221509 0.650003 0.000000
C328  C     C_R   0.585241 0.186460 0.695009 0.000000
C329  C     C_R   0.624485 0.154395 0.737968 0.000000
N60   N     N_R   0.598072 0.114472 0.783140 0.000000
C330  C     C_2   0.584525 0.248337 0.601362 0.000000
O59   O     O_2   0.615998 0.281370 0.561761 0.000000
O60   O     O_2   0.517258 0.231887 0.599092 0.000000
H320  H     H_    0.614252 0.029544 0.770060 0.000000
H321  H     H_    0.627819 0.966406 0.825438 0.000000
H322  H     H_    0.557452 0.008063 0.829611 0.000000
H323  H     H_    0.659952 0.016937 0.875280 0.000000
H324  H     H_    0.749436 0.026655 0.781247 0.000000
H325  H     H_    0.782838 0.026480 0.839491 0.000000
H326  H     H_    0.743588 0.969427 0.842896 0.000000
H327  H     H_    0.795594 0.201449 0.692040 0.000000
H328  H     H_    0.727403 0.257580 0.616241 0.000000
H329  H     H_    0.526852 0.182935 0.694704 0.000000
H330  H     H_    0.497197 0.241872 0.565903 0.000000
C331  C     C_3   0.563354 0.228367 0.780391 0.000000
C332  C     C_3   0.502621 0.264799 0.750531 0.000000
C333  C     C_3   0.536227 0.307693 0.700091 0.000000
C334  C     C_R   0.440270 0.240663 0.738896 0.000000
N61   N     N_R   0.432457 0.187745 0.752259 0.000000
C335  C     C_R   0.367221 0.190194 0.731754 0.000000
C336  C     C_R   0.330193 0.150094 0.732982 0.000000
C337  C     C_R   0.255861 0.156845 0.723951 0.000000
C338  C     C_R   0.219862 0.200972 0.719595 0.000000
C339  C     C_R   0.259276 0.240849 0.716788 0.000000
C340  C     C_R   0.334194 0.237856 0.714763 0.000000
N62   N     N_R   0.379510 0.272485 0.715248 0.000000
C341  C     C_2   0.140269 0.201352 0.727771 0.000000
O61   O     O_2   0.104718 0.167665 0.727188 0.000000
O62   O     O_2   0.107782 0.233864 0.743595 0.000000
H331  H     H_    0.612709 0.233267 0.754238 0.000000
H332  H     H_    0.580752 0.239249 0.809033 0.000000
H333  H     H_    0.542023 0.188793 0.799384 0.000000
H334  H     H_    0.478814 0.281904 0.774539 0.000000
H335  H     H_    0.491812 0.334519 0.677415 0.000000
H336  H     H_    0.577417 0.328950 0.708682 0.000000
H337  H     H_    0.563612 0.291673 0.676059 0.000000
H338  H     H_    0.354403 0.112629 0.746222 0.000000
H339  H     H_    0.224271 0.123976 0.730651 0.000000
H340  H     H_    0.232624 0.269159 0.724808 0.000000
H341  H     H_    0.056920 0.229548 0.756928 0.000000
C342  C     C_3   0.263678 0.135570 0.850570 0.000000
C343  C     C_3   0.326632 0.152680 0.869817 0.000000
C344  C     C_3   0.290792 0.174723 0.902490 0.000000
C345  C     C_R   0.380949 0.111156 0.901480 0.000000
N63   N     N_R   0.385524 0.093514 0.954847 0.000000
C346  C     C_R   0.446757 0.063385 0.965211 0.000000
C347  C     C_R   0.484271 0.041796 0.010102 0.000000
C348  C     C_R   0.542401 0.008623 0.014866 0.000000
C349  C     C_R   0.560927 0.998038 0.974685 0.000000
C350  C     C_R   0.527713 0.024538 0.927618 0.000000
C351  C     C_R   0.473705 0.059848 0.922699 0.000000
N64   N     N_R   0.438320 0.092829 0.879587 0.000000
C352  C     C_2   0.619493 0.961211 0.981026 0.000000
O63   O     O_2   0.621556 0.939956 0.954438 0.000000
O64   O     O_2   0.669567 0.949926 0.017018 0.000000
H342  H     H_    0.228593 0.107180 0.882875 0.000000
H343  H     H_    0.228504 0.169935 0.826993 0.000000
H344  H     H_    0.283935 0.119192 0.825933 0.000000
H345  H     H_    0.358653 0.182655 0.836379 0.000000
H346  H     H_    0.332972 0.196139 0.908584 0.000000
H347  H     H_    0.241433 0.198780 0.884775 0.000000
H348  H     H_    0.270096 0.143866 0.939448 0.000000
H349  H     H_    0.471617 0.050896 0.040582 0.000000
H350  H     H_    0.571429 0.990109 0.050570 0.000000
H351  H     H_    0.542571 0.018010 0.895761 0.000000
H352  H     H_    0.710572 0.926415 0.021346 0.000000
C353  C     C_3   0.772870 0.637771 0.342538 0.000000
C354  C     C_3   0.850997 0.658381 0.332115 0.000000
C355  C     C_3   0.867585 0.699076 0.346137 0.000000
C356  C     C_R   0.905776 0.617424 0.348919 0.000000
N65   N     N_R   0.907117 0.576279 0.399663 0.000000
C357  C     C_R   0.955952 0.543705 0.392301 0.000000
C358  C     C_R   0.987898 0.498588 0.429530 0.000000
C359  C     C_R   0.029127 0.467001 0.414658 0.000000
C360  C     C_R   0.038196 0.480775 0.362654 0.000000
C361  C     C_R   0.012898 0.529048 0.325577 0.000000
C362  C     C_R   0.977408 0.562849 0.340579 0.000000
N66   N     N_R   0.950979 0.612586 0.311084 0.000000
C363  C     C_2   0.076174 0.444737 0.346979 0.000000
O65   O     O_2   0.102538 0.403802 0.379705 0.000000
O66   O     O_2   0.081142 0.456138 0.296654 0.000000
H353  H     H_    0.768237 0.601734 0.380067 0.000000
H354  H     H_    0.731107 0.667315 0.340497 0.000000
H355  H     H_    0.761879 0.627236 0.312226 0.000000
H356  H     H_    0.862673 0.675589 0.291695 0.000000
H357  H     H_    0.915969 0.720150 0.322464 0.000000
H358  H     H_    0.820954 0.726391 0.337296 0.000000
H359  H     H_    0.884147 0.682071 0.385786 0.000000
H360  H     H_    0.984403 0.487991 0.469753 0.000000
H361  H     H_    0.052193 0.430952 0.444283 0.000000
H362  H     H_    0.020348 0.538239 0.286212 0.000000
H363  H     H_    0.105876 0.432158 0.286684 0.000000
C364  C     C_3   0.043873 0.756804 0.272016 0.000000
C365  C     C_3   0.994443 0.803338 0.246798 0.000000
C366  C     C_3   0.036845 0.851885 0.209090 0.000000
C367  C     C_R   0.931570 0.793636 0.223980 0.000000
N67   N     N_R   0.922716 0.748838 0.219716 0.000000
C368  C     C_R   0.851386 0.755151 0.206836 0.000000
C369  C     C_R   0.806284 0.717536 0.210366 0.000000
C370  C     C_R   0.733741 0.730745 0.198015 0.000000
C371  C     C_R   0.713471 0.782562 0.173027 0.000000
C372  C     C_R   0.754936 0.818565 0.176864 0.000000
C373  C     C_R   0.822286 0.801716 0.199272 0.000000
N68   N     N_R   0.869360 0.825767 0.213985 0.000000
C374  C     C_2   0.655181 0.799090 0.136919 0.000000
O67   O     O_2   0.654187 0.843697 0.101632 0.000000
O68   O     O_2   0.615487 0.762698 0.134932 0.000000
H364  H     H_    0.027790 0.722731 0.269357 0.000000
H365  H     H_    0.101630 0.767357 0.257132 0.000000
H366  H     H_    0.035306 0.745396 0.313206 0.000000
H367  H     H_    0.969126 0.809447 0.278355 0.000000
H368  H     H_    0.000860 0.886538 0.198927 0.000000
H369  H     H_    0.086304 0.855792 0.227034 0.000000
H370  H     H_    0.053800 0.851619 0.172773 0.000000
H371  H     H_    0.826738 0.678557 0.221527 0.000000
H372  H     H_    0.698280 0.701858 0.199122 0.000000
H373  H     H_    0.732412 0.856946 0.163945 0.000000
H374  H     H_    0.588413 0.770943 0.104814 0.000000
C375  C     C_3   0.543569 0.882082 0.365180 0.000000
C376  C     C_3   0.508155 0.830515 0.380635 0.000000
C377  C     C_3   0.509278 0.793990 0.439166 0.000000
C378  C     C_R   0.432497 0.841604 0.360439 0.000000
N69   N     N_R   0.369262 0.830038 0.394152 0.000000
C379  C     C_R   0.320268 0.864463 0.361320 0.000000
C380  C     C_R   0.245088 0.864945 0.366806 0.000000
C381  C     C_R   0.208224 0.910491 0.336065 0.000000
C382  C     C_R   0.243169 0.946861 0.291261 0.000000
C383  C     C_R   0.309494 0.932813 0.275549 0.000000
C384  C     C_R   0.351283 0.894320 0.312755 0.000000
N70   N     N_R   0.420723 0.877689 0.307943 0.000000
C385  C     C_2   0.210126 0.998507 0.260470 0.000000
O69   O     O_2   0.245918 0.031854 0.223791 0.000000
O70   O     O_2   0.143704 0.011072 0.275529 0.000000
H375  H     H_    0.501470 0.909400 0.367968 0.000000
H376  H     H_    0.589228 0.876796 0.390520 0.000000
H377  H     H_    0.565852 0.899276 0.324227 0.000000
H378  H     H_    0.539717 0.811530 0.362191 0.000000
H379  H     H_    0.511439 0.752993 0.448657 0.000000
H380  H     H_    0.556854 0.801160 0.456570 0.000000
H381  H     H_    0.458298 0.797135 0.458796 0.000000
H382  H     H_    0.215436 0.830159 0.390656 0.000000
H383  H     H_    0.151933 0.916313 0.345466 0.000000
H384  H     H_    0.326638 0.953016 0.236217 0.000000
H385  H     H_    0.123474 0.045882 0.256100 0.000000
C386  C     C_3   0.263243 0.950789 0.114793 0.000000
C387  C     C_3   0.346525 0.948416 0.108262 0.000000
C388  C     C_3   0.364497 0.956961 0.054381 0.000000
C389  C     C_R   0.380950 0.986538 0.120341 0.000000
N71   N     N_R   0.366418 0.040782 0.093882 0.000000
C390  C     C_R   0.385346 0.053696 0.129793 0.000000
C391  C     C_R   0.372650 0.100344 0.129318 0.000000
C392  C     C_R   0.386166 0.103250 0.173708 0.000000
C393  C     C_R   0.419143 0.061619 0.215707 0.000000
C394  C     C_R   0.436135 0.015813 0.214158 0.000000
C395  C     C_R   0.415052 0.011953 0.171988 0.000000
N72   N     N_R   0.415244 0.968089 0.167630 0.000000
C396  C     C_2   0.435126 0.065957 0.261780 0.000000
O71   O     O_2   0.421367 0.106395 0.262977 0.000000
O72   O     O_2   0.464543 0.025179 0.303142 0.000000
H386  H     H_    0.243186 0.987771 0.083224 0.000000
H387  H     H_    0.237960 0.918755 0.111996 0.000000
H388  H     H_    0.247155 0.947986 0.153002 0.000000
H389  H     H_    0.366669 0.909480 0.135819 0.000000
H390  H     H_    0.423270 0.949591 0.049036 0.000000
H391  H     H_    0.330985 0.931290 0.046292 0.000000
H392  H     H_    0.351339 0.997329 0.028293 0.000000
H393  H     H_    0.353035 0.134085 0.095649 0.000000
H394  H     H_    0.372505 0.139017 0.174510 0.000000
H395  H     H_    0.460697 0.982680 0.246423 0.000000
H396  H     H_    0.474792 0.028104 0.333451 0.000000
C397  C     C_3   0.572370 0.794798 0.283813 0.000000
C398  C     C_3   0.641253 0.819312 0.287005 0.000000
C399  C     C_3   0.704110 0.783286 0.290614 0.000000
C400  C     C_R   0.648917 0.871459 0.241606 0.000000
N73   N     N_R   0.717263 0.896709 0.225288 0.000000
C401  C     C_R   0.694518 0.944769 0.192887 0.000000
C402  C     C_R   0.734806 0.987128 0.178997 0.000000
C403  C     C_R   0.706491 0.035128 0.148312 0.000000
C404  C     C_R   0.635194 0.039412 0.133459 0.000000
C405  C     C_R   0.591247 0.995883 0.151803 0.000000
C406  C     C_R   0.620394 0.948415 0.186138 0.000000
N74   N     N_R   0.586469 0.902724 0.218659 0.000000
C407  C     C_2   0.602381 0.090681 0.109602 0.000000
O73   O     O_2   0.641703 0.128544 0.088458 0.000000
O74   O     O_2   0.531199 0.096213 0.121255 0.000000
H397  H     H_    0.570160 0.754619 0.316326 0.000000
H398  H     H_    0.522491 0.816494 0.286652 0.000000
H399  H     H_    0.575362 0.794223 0.246400 0.000000
H400  H     H_    0.641504 0.824093 0.321675 0.000000
H401  H     H_    0.758135 0.801706 0.285692 0.000000
H402  H     H_    0.698887 0.748677 0.328227 0.000000
H403  H     H_    0.696273 0.766923 0.265202 0.000000
H404  H     H_    0.779648 0.982597 0.201328 0.000000
H405  H     H_    0.737939 0.068754 0.140477 0.000000
H406  H     H_    0.537991 0.999693 0.137286 0.000000
H407  H     H_    0.512681 0.129712 0.115155 0.000000
C408  C     C_3   0.435125 0.720226 0.373543 0.000000
C409  C     C_3   0.369869 0.702767 0.411140 0.000000
C410  C     C_3   0.326051 0.666713 0.401639 0.000000
C411  C     C_R   0.395218 0.676895 0.464092 0.000000
N75   N     N_R   0.434760 0.629607 0.487660 0.000000
C412  C     C_R   0.450747 0.628031 0.532033 0.000000
C413  C     C_R   0.490854 0.590373 0.569873 0.000000
C414  C     C_R   0.484397 0.588512 0.617420 0.000000
C415  C     C_R   0.442282 0.624436 0.625762 0.000000
C416  C     C_R   0.410460 0.666029 0.584501 0.000000
C417  C     C_R   0.417060 0.667955 0.537263 0.000000
N76   N     N_R   0.383194 0.701540 0.493831 0.000000
C418  C     C_2   0.430326 0.615006 0.679311 0.000000
O75   O     O_2   0.472236 0.584934 0.711548 0.000000
O76   O     O_2   0.372978 0.636427 0.694634 0.000000
H408  H     H_    0.473966 0.739074 0.385428 0.000000
H409  H     H_    0.458950 0.686150 0.373784 0.000000
H410  H     H_    0.421722 0.745276 0.333515 0.000000
H411  H     H_    0.336561 0.736694 0.407423 0.000000
H412  H     H_    0.267838 0.676474 0.400301 0.000000
H413  H     H_    0.341560 0.672583 0.362426 0.000000
H414  H     H_    0.332433 0.627003 0.433818 0.000000
H415  H     H_    0.517476 0.559066 0.565209 0.000000
H416  H     H_    0.501301 0.553857 0.649840 0.000000
H417  H     H_    0.374060 0.691844 0.590381 0.000000
H418  H     H_    0.334639 0.657136 0.671981 0.000000
C419  C     C_3   0.315700 0.549462 0.566497 0.000000
C420  C     C_3   0.360034 0.504268 0.606708 0.000000
C421  C     C_3   0.307237 0.474500 0.650612 0.000000
C422  C     C_R   0.396818 0.469735 0.587319 0.000000
N77   N     N_R   0.390438 0.414968 0.613710 0.000000
C423  C     C_R   0.422592 0.403784 0.577137 0.000000
C424  C     C_R   0.428309 0.356434 0.578451 0.000000
C425  C     C_R   0.450249 0.355592 0.532742 0.000000
C426  C     C_R   0.471029 0.400675 0.487663 0.000000
C427  C     C_R   0.470293 0.447452 0.488211 0.000000
C428  C     C_R   0.446829 0.447918 0.533380 0.000000
N78   N     N_R   0.436841 0.490519 0.539216 0.000000
C429  C     C_2   0.492936 0.398832 0.439471 0.000000
O77   O     O_2   0.494197 0.357580 0.438941 0.000000
O78   O     O_2   0.511781 0.442697 0.395566 0.000000
H419  H     H_    0.256764 0.539189 0.569716 0.000000
H420  H     H_    0.316062 0.582422 0.574729 0.000000
H421  H     H_    0.337905 0.561389 0.526616 0.000000
H422  H     H_    0.401835 0.517714 0.622312 0.000000
H423  H     H_    0.340291 0.444835 0.681332 0.000000
H424  H     H_    0.279721 0.500773 0.664079 0.000000
H425  H     H_    0.265933 0.457223 0.637663 0.000000
H426  H     H_    0.413122 0.320941 0.613009 0.000000
H427  H     H_    0.448336 0.319596 0.531872 0.000000
H428  H     H_    0.484375 0.483209 0.453663 0.000000
H429  H     H_    0.526206 0.441347 0.363954 0.000000
C430  C     C_3   0.617832 0.447865 0.553074 0.000000
C431  C     C_3   0.671320 0.477313 0.506580 0.000000
C432  C     C_3   0.659845 0.466239 0.462215 0.000000
C433  C     C_R   0.668230 0.534441 0.487103 0.000000
N79   N     N_R   0.601127 0.563302 0.475828 0.000000
C434  C     C_R   0.627392 0.610637 0.458796 0.000000
C435  C     C_R   0.587138 0.654568 0.438629 0.000000
C436  C     C_R   0.620623 0.700386 0.422347 0.000000
C437  C     C_R   0.694861 0.701871 0.425493 0.000000
C438  C     C_R   0.736913 0.657594 0.439510 0.000000
C439  C     C_R   0.702014 0.611527 0.458570 0.000000
N80   N     N_R   0.732900 0.563971 0.476269 0.000000
C440  C     C_2   0.725614 0.752074 0.409669 0.000000
O79   O     O_2   0.789952 0.761611 0.393584 0.000000
O80   O     O_2   0.680940 0.788129 0.413127 0.000000
H430  H     H_    0.577299 0.474744 0.557963 0.000000
H431  H     H_    0.590460 0.417239 0.549106 0.000000
H432  H     H_    0.648857 0.427528 0.588960 0.000000
H433  H     H_    0.726095 0.463101 0.520930 0.000000
H434  H     H_    0.706058 0.483098 0.432377 0.000000
H435  H     H_    0.658800 0.423743 0.476499 0.000000
H436  H     H_    0.608034 0.485097 0.443338 0.000000
H437  H     H_    0.532721 0.653037 0.430874 0.000000
H438  H     H_    0.590713 0.735732 0.402230 0.000000
H439  H     H_    0.794239 0.658816 0.437598 0.000000
H440  H     H_    0.697283 0.822799 0.400169 0.000000
C441  C     C_3   0.124901 0.370632 0.577740 0.000000
C442  C     C_3   0.174389 0.336273 0.621624 0.000000
C443  C     C_3   0.252942 0.345877 0.598587 0.000000
C444  C     C_R   0.163717 0.348552 0.665724 0.000000
N81   N     N_R   0.222246 0.360186 0.687987 0.000000
C445  C     C_R   0.182643 0.380266 0.714907 0.000000
C446  C     C_R   0.208000 0.406803 0.738076 0.000000
C447  C     C_R   0.159787 0.440501 0.745542 0.000000
C448  C     C_R   0.087821 0.445013 0.731116 0.000000
C449  C     C_R   0.061594 0.409849 0.719376 0.000000
C450  C     C_R   0.108837 0.377964 0.711234 0.000000
N82   N     N_R   0.092326 0.354993 0.683900 0.000000
C451  C     C_2   0.038872 0.488509 0.721805 0.000000
O81   O     O_2   0.062819 0.532241 0.702466 0.000000
O82   O     O_2   0.965579 0.481179 0.725815 0.000000
H441  H     H_    0.149296 0.408793 0.554292 0.000000
H442  H     H_    0.121341 0.353547 0.551784 0.000000
H443  H     H_    0.069060 0.376265 0.592150 0.000000
H444  H     H_    0.160072 0.295368 0.635412 0.000000
H445  H     H_    0.291439 0.321817 0.628576 0.000000
H446  H     H_    0.259070 0.335834 0.566658 0.000000
H447  H     H_    0.266585 0.387200 0.583111 0.000000
H448  H     H_    0.265132 0.405802 0.745892 0.000000
H449  H     H_    0.179644 0.464095 0.760405 0.000000
H450  H     H_    0.008635 0.414471 0.705650 0.000000
H451  H     H_    0.931861 0.510173 0.715125 0.000000
C452  C     C_3   0.161631 0.033585 0.133637 0.000000
C453  C     C_3   0.136680 0.088287 0.098803 0.000000
C454  C     C_3   0.179505 0.125005 0.108758 0.000000
C455  C     C_R   0.142955 0.100214 0.042670 0.000000
N83   N     N_R   0.209905 0.090454 0.021237 0.000000
C456  C     C_R   0.183862 0.065697 0.997214 0.000000
C457  C     C_R   0.222135 0.037639 0.977125 0.000000
C458  C     C_R   0.182744 0.007048 0.963941 0.000000
C459  C     C_R   0.106617 0.004338 0.972428 0.000000
C460  C     C_R   0.069556 0.033177 0.991700 0.000000
C461  C     C_R   0.108884 0.065523 0.000421 0.000000
N84   N     N_R   0.080111 0.093059 0.022044 0.000000
C462  C     C_2   0.064203 0.969279 0.964135 0.000000
O83   O     O_2   0.094848 0.941934 0.947912 0.000000
O84   O     O_2   0.991344 0.964809 0.977912 0.000000
H452  H     H_    0.222856 0.032021 0.133902 0.000000
H453  H     H_    0.137169 0.021093 0.173384 0.000000
H454  H     H_    0.139359 0.007985 0.120127 0.000000
H455  H     H_    0.078481 0.086676 0.112860 0.000000
H456  H     H_    0.155713 0.164509 0.088628 0.000000
H457  H     H_    0.178112 0.111951 0.151037 0.000000
H458  H     H_    0.236645 0.125680 0.093393 0.000000
H459  H     H_    0.280335 0.039767 0.970424 0.000000
H460  H     H_    0.211712 0.982982 0.949951 0.000000
H461  H     H_    0.012292 0.027439 0.004446 0.000000
H462  H     H_    0.963987 0.935854 0.981834 0.000000
C463  C     C_3   0.960621 0.900611 0.513625 0.000000
C464  C     C_3   0.891201 0.871886 0.540724 0.000000
C465  C     C_3   0.824608 0.903058 0.511684 0.000000
C466  C     C_R   0.896100 0.813989 0.558446 0.000000
N85   N     N_R   0.925924 0.787685 0.531461 0.000000
C467  C     C_R   0.929531 0.738925 0.571334 0.000000
C468  C     C_R   0.970401 0.697710 0.573917 0.000000
C469  C     C_R   0.958216 0.649682 0.617008 0.000000
C470  C     C_R   0.901428 0.644868 0.653376 0.000000
C471  C     C_R   0.873528 0.688212 0.654516 0.000000
C472  C     C_R   0.894221 0.734724 0.614574 0.000000
N86   N     N_R   0.878638 0.780767 0.610695 0.000000
C473  C     C_2   0.857632 0.598462 0.680882 0.000000
O85   O     O_2   0.846462 0.573347 0.659392 0.000000
O86   O     O_2   0.815590 0.590640 0.723297 0.000000
H463  H     H_    0.955175 0.918294 0.471488 0.000000
H464  H     H_    0.967200 0.932352 0.523108 0.000000
H465  H     H_    0.008177 0.873105 0.526719 0.000000
H466  H     H_    0.884466 0.873369 0.577483 0.000000
H467  H     H_    0.775233 0.878987 0.523677 0.000000
H468  H     H_    0.813209 0.934708 0.521619 0.000000
H469  H     H_    0.835693 0.921917 0.469104 0.000000
H470  H     H_    0.009192 0.702386 0.543299 0.000000
H471  H     H_    0.987050 0.616248 0.618487 0.000000
H472  H     H_    0.830889 0.686169 0.682510 0.000000
H473  H     H_    0.780421 0.562885 0.738855 0.000000
C474  C     C_3   0.800994 0.193106 0.917771 0.000000
C475  C     C_3   0.804038 0.203747 0.961781 0.000000
C476  C     C_3   0.777895 0.159358 0.013677 0.000000
C477  C     C_R   0.879260 0.218781 0.965147 0.000000
N87   N     N_R   0.932109 0.182150 0.995240 0.000000
C478  C     C_R   0.971364 0.211580 0.008416 0.000000
C479  C     C_R   0.015275 0.193622 0.049390 0.000000
C480  C     C_R   0.032261 0.225776 0.068984 0.000000
C481  C     C_R   0.010935 0.277462 0.043518 0.000000
C482  C     C_R   0.971470 0.296526 0.999052 0.000000
C483  C     C_R   0.948331 0.262375 0.984182 0.000000
N88   N     N_R   0.892082 0.269741 0.953567 0.000000
C484  C     C_2   0.026050 0.311436 0.064894 0.000000
O87   O     O_2   0.059295 0.295137 0.104743 0.000000
O88   O     O_2   0.001280 0.360831 0.040864 0.000000
H474  H     H_    0.854866 0.176676 0.912637 0.000000
H475  H     H_    0.753686 0.168266 0.923475 0.000000
H476  H     H_    0.791785 0.231386 0.883306 0.000000
H477  H     H_    0.766317 0.236738 0.951521 0.000000
H478  H     H_    0.769605 0.172502 0.042915 0.000000
H479  H     H_    0.725380 0.143953 0.009869 0.000000
H480  H     H_    0.821006 0.129116 0.029211 0.000000
H481  H     H_    0.025876 0.153703 0.070063 0.000000
H482  H     H_    0.060366 0.209902 0.104962 0.000000
H483  H     H_    0.955492 0.336327 0.978640 0.000000
H484  H     H_    0.007520 0.382688 0.056065 0.000000
C485  C     C_3   0.026421 0.335993 0.856267 0.000000
C486  C     C_3   0.992618 0.313390 0.825832 0.000000
C487  C     C_3   0.965336 0.260946 0.860468 0.000000
C488  C     C_R   0.926761 0.343230 0.798797 0.000000
N89   N     N_R   0.873515 0.364190 0.820711 0.000000
C489  C     C_R   0.838438 0.397694 0.776757 0.000000
C490  C     C_R   0.806425 0.445492 0.763446 0.000000
C491  C     C_R   0.775602 0.473530 0.715481 0.000000
C492  C     C_R   0.779865 0.454883 0.680449 0.000000
C493  C     C_R   0.823752 0.412135 0.690865 0.000000
C494  C     C_R   0.858234 0.388211 0.736635 0.000000
N90   N     N_R   0.916816 0.356037 0.747272 0.000000
C495  C     C_2   0.745197 0.482046 0.630477 0.000000
O89   O     O_2   0.758911 0.467776 0.598360 0.000000
O90   O     O_2   0.698209 0.522264 0.619351 0.000000
H485  H     H_    0.984269 0.340222 0.883106 0.000000
H486  H     H_    0.072939 0.310730 0.878601 0.000000
H487  H     H_    0.048700 0.374684 0.829123 0.000000
H488  H     H_    0.034840 0.310523 0.798253 0.000000
H489  H     H_    0.906167 0.265627 0.868353 0.000000
H490  H     H_    0.968842 0.240640 0.837593 0.000000
H491  H     H_    0.997671 0.242346 0.895674 0.000000
H492  H     H_    0.810813 0.463551 0.786785 0.000000
H493  H     H_    0.748228 0.510035 0.705617 0.000000
H494  H     H_    0.828962 0.396785 0.664631 0.000000
H495  H     H_    0.673063 0.537911 0.587101 0.000000
C496  C     C_3   0.055765 0.156757 0.893029 0.000000
C497  C     C_3   0.007925 0.138966 0.864477 0.000000
C498  C     C_3   0.060128 0.112910 0.842151 0.000000
C499  C     C_R   0.943607 0.105212 0.896635 0.000000
N91   N     N_R   0.927068 0.091580 0.949351 0.000000
C500  C     C_R   0.859191 0.071418 0.956680 0.000000
C501  C     C_R   0.810744 0.059820 0.998431 0.000000
C502  C     C_R   0.736744 0.058164 0.992830 0.000000
C503  C     C_R   0.713560 0.072284 0.944223 0.000000
C504  C     C_R   0.762696 0.074820 0.905631 0.000000
C505  C     C_R   0.835695 0.074220 0.912289 0.000000
N92   N     N_R   0.886655 0.094494 0.872708 0.000000
C506  C     C_2   0.644053 0.099868 0.929550 0.000000
O91   O     O_2   0.608677 0.109984 0.960040 0.000000
O92   O     O_2   0.622092 0.119045 0.881156 0.000000
H496  H     H_    0.104953 0.131109 0.906042 0.000000
H497  H     H_    0.078928 0.195268 0.865185 0.000000
H498  H     H_    0.024946 0.158166 0.926113 0.000000
H499  H     H_    0.984248 0.172768 0.830996 0.000000
H500  H     H_    0.080295 0.075441 0.873172 0.000000
H501  H     H_    0.031851 0.109902 0.811650 0.000000
H502  H     H_    0.109687 0.136942 0.824768 0.000000
H503  H     H_    0.827807 0.056303 0.033789 0.000000
H504  H     H_    0.697954 0.054528 0.024094 0.000000
H505  H     H_    0.746517 0.090838 0.867265 0.000000
H506  H     H_    0.574368 0.135880 0.873652 0.000000
C507  C     C_3   0.782295 0.289512 0.728326 0.000000
C508  C     C_3   0.835743 0.251302 0.767169 0.000000
C509  C     C_3   0.791595 0.206457 0.806597 0.000000
C510  C     C_R   0.895988 0.234736 0.740371 0.000000
N93   N     N_R   0.901887 0.185214 0.744499 0.000000
C511  C     C_R   0.949890 0.194283 0.703676 0.000000
C512  C     C_R   0.974721 0.160533 0.686240 0.000000
C513  C     C_R   0.009372 0.180362 0.637274 0.000000
C514  C     C_R   0.024535 0.232755 0.608088 0.000000
C515  C     C_R   0.008860 0.264958 0.629760 0.000000
C516  C     C_R   0.971559 0.244902 0.677664 0.000000
N94   N     N_R   0.942694 0.271357 0.701659 0.000000
C517  C     C_2   0.053154 0.253867 0.553749 0.000000
O93   O     O_2   0.077649 0.224647 0.537612 0.000000
O94   O     O_2   0.048556 0.305229 0.520638 0.000000
H507  H     H_    0.737667 0.268745 0.722595 0.000000
H508  H     H_    0.755560 0.314277 0.743835 0.000000
H509  H     H_    0.811563 0.313382 0.690242 0.000000
H510  H     H_    0.860309 0.269075 0.787715 0.000000
H511  H     H_    0.828292 0.180729 0.837029 0.000000
H512  H     H_    0.742753 0.220297 0.821753 0.000000
H513  H     H_    0.771466 0.185841 0.788390 0.000000
H514  H     H_    0.970604 0.119657 0.710281 0.000000
H515  H     H_    0.021148 0.154943 0.621050 0.000000
H516  H     H_    0.016716 0.305779 0.607268 0.000000
H517  H     H_    0.065990 0.318762 0.484671 0.000000
C518  C     C_3   0.206010 0.679936 0.477718 0.000000
C519  C     C_3   0.150975 0.695178 0.507370 0.000000
C520  C     C_3   0.166955 0.663896 0.563637 0.000000
C521  C     C_R   0.152204 0.752868 0.486745 0.000000
N95   N     N_R   0.216598 0.779326 0.483612 0.000000
C522  C     C_R   0.187627 0.825921 0.474442 0.000000
C523  C     C_R   0.227122 0.868547 0.465038 0.000000
C524  C     C_R   0.190211 0.915708 0.447927 0.000000
C525  C     C_R   0.115781 0.920516 0.436664 0.000000
C526  C     C_R   0.077118 0.876656 0.445419 0.000000
C527  C     C_R   0.113710 0.829614 0.465471 0.000000
N96   N     N_R   0.087741 0.784317 0.472065 0.000000
C528  C     C_2   0.081242 0.972858 0.411884 0.000000
O95   O     O_2   0.112858 0.009288 0.410470 0.000000
O96   O     O_2   0.016159 0.981481 0.389002 0.000000
H518  H     H_    0.257565 0.667653 0.498391 0.000000
H519  H     H_    0.185596 0.646087 0.475718 0.000000
H520  H     H_    0.213727 0.714812 0.439242 0.000000
H521  H     H_    0.096698 0.682846 0.504275 0.000000
H522  H     H_    0.124599 0.673917 0.585997 0.000000
H523  H     H_    0.162299 0.622001 0.575797 0.000000
H524  H     H_    0.223550 0.671050 0.570343 0.000000
H525  H     H_    0.286612 0.866147 0.467438 0.000000
H526  H     H_    0.221715 0.949460 0.439623 0.000000
H527  H     H_    0.020159 0.878574 0.435781 0.000000
H528  H     H_    0.994501 0.016093 0.372296 0.000000

loop_
_geom_bond_atom_site_label_1
_geom_bond_atom_site_label_2
_geom_bond_distance
_geom_bond_site_symmetry_2
_ccdc_geom_bond_type
Zn1   N2    2.182 .      S
Zn1   N5    2.221 .      S
Zn1   N85   2.148 .      S
Zn1   N96   2.190 1_655  S
Zn2   N1    2.175 .      S
Zn2   N3    2.178 .      S
Zn2   N65   2.215 .      S
Zn2   N80   2.213 .      S
Zn3   N6    2.197 .      S
Zn3   N7    2.234 .      S
Zn3   N68   2.133 .      S
Zn3   N73   2.208 .      S
Zn4   N8    2.189 .      S
Zn4   N84   2.125 1_655  S
Zn4   N87   2.205 1_554  S
Zn4   N91   2.227 1_554  S
Zn5   N4    2.211 .      S
Zn5   N82   2.197 1_655  S
Zn5   N90   2.166 .      S
Zn5   N94   2.131 .      S
Zn6   N9    2.166 .      S
Zn6   N12   2.271 .      S
Zn6   N14   2.199 .      S
Zn6   N16   2.286 1_554  S
Zn7   N10   2.206 .      S
Zn7   N18   2.240 1_554  S
Zn7   N20   2.221 .      S
Zn7   N22   2.116 1_554  S
Zn8   N11   2.260 .      S
Zn8   N24   2.181 .      S
Zn8   N25   2.239 .      S
Zn8   N27   2.190 .      S
Zn9   N13   2.134 .      S
Zn9   N29   2.228 .      S
Zn9   N32   2.196 .      S
Zn9   N33   2.237 .      S
Zn10  N15   2.283 .      S
Zn10  N35   2.287 .      S
Zn10  N37   2.218 .      S
Zn10  N39   2.176 .      S
Zn11  N21   2.110 .      S
Zn11  N26   2.210 1_655  S
Zn11  N42   2.243 .      S
Zn11  N43   2.289 .      S
Zn12  N28   2.153 .      S
Zn12  N46   2.214 .      S
Zn12  N48   2.149 .      S
Zn12  N50   2.249 .      S
Zn13  N17   2.245 .      S
Zn13  N36   2.137 1_655  S
Zn13  N52   2.120 .      S
Zn13  N54   2.238 .      S
Zn14  N23   2.235 .      S
Zn14  N38   2.139 .      S
Zn14  N56   2.240 .      S
Zn14  N57   2.124 .      S
Zn15  N40   2.224 .      S
Zn15  N60   2.187 .      S
Zn15  N61   2.209 .      S
Zn15  N64   2.190 .      S
Zn16  N19   2.287 .      S
Zn16  N30   2.247 1_655  S
Zn16  N66   2.284 .      S
Zn16  N67   2.197 .      S
Zn17  N31   2.181 .      S
Zn17  N70   2.213 .      S
Zn17  N72   2.225 .      S
Zn17  N74   2.230 .      S
Zn18  N34   2.167 .      S
Zn18  N75   2.187 .      S
Zn18  N78   2.205 .      S
Zn18  N79   2.207 .      S
Zn19  N45   2.216 .      S
Zn19  N62   2.197 .      S
Zn19  N77   2.247 .      S
Zn19  N81   2.240 .      S
Zn20  N47   2.254 1_554  S
Zn20  N63   2.149 1_554  S
Zn20  N71   2.227 .      S
Zn20  N83   2.194 .      S
Zn21  N41   2.260 .      S
Zn21  N53   2.186 .      S
Zn21  N58   2.244 .      S
Zn21  N86   2.064 .      S
Zn22  N44   2.260 .      S
Zn22  N49   2.273 .      S
Zn22  N88   2.159 .      S
Zn22  N89   2.257 .      S
Zn23  N51   2.184 .      S
Zn23  N59   2.267 .      S
Zn23  N92   2.235 .      S
Zn23  N93   2.163 .      S
Zn24  N55   2.246 .      S
Zn24  N69   2.221 .      S
Zn24  N76   2.147 .      S
Zn24  N95   2.187 .      S
C1    C2    1.510 .      S
C1    H1    1.104 .      S
C1    H2    1.088 .      S
C1    H3    1.097 .      S
C2    C3    1.516 .      S
C2    C4    1.512 .      S
C2    H4    1.079 .      S
C3    H5    1.102 .      S
C3    H6    1.106 .      S
C3    H7    1.104 .      S
C6    H8    1.068 1_455  S
C7    H9    1.069 .      S
C8    C11   1.437 .      S
C9    H10   1.071 .      S
C11   O2    1.333 .      S
O2    H11   0.957 .      S
H8    C6    1.068 1_655  S
C12   C13   1.511 1_455  S
C12   H12   1.106 .      S
C12   H13   1.109 .      S
C12   H14   1.100 .      S
C13   C12   1.511 1_655  S
C13   C14   1.476 .      S
C13   C15   1.473 .      S
C13   H15   1.084 .      S
C14   H16   1.102 .      S
C14   H17   1.091 .      S
C14   H18   1.097 .      S
C17   H19   1.079 .      S
C18   H20   1.081 .      S
C19   C22   1.468 .      S
C20   H21   1.066 .      S
C22   O4    1.345 .      S
O4    H22   0.966 .      S
C23   C24   1.513 1_455  S
C23   H23   1.104 1_455  S
C23   H24   1.082 .      S
C23   H25   1.107 .      S
C24   C23   1.513 1_655  S
C24   C25   1.491 1_655  S
C24   C26   1.483 .      S
C24   H26   1.096 .      S
C25   C24   1.491 1_455  S
C25   H27   1.088 .      S
C25   H28   1.106 .      S
C25   H29   1.102 .      S
C28   H30   1.070 .      S
C29   H31   1.079 .      S
C30   C33   1.469 .      S
C31   H32   1.068 .      S
C33   O6    1.346 .      S
O6    H33   0.966 1_565  S
H23   C23   1.104 1_655  S
H33   O6    0.966 1_545  S
C34   C35   1.490 .      S
C34   H34   1.085 .      S
C34   H35   1.103 .      S
C34   H36   1.108 1_655  S
C35   C36   1.503 .      S
C35   C37   1.485 .      S
C35   H37   1.093 .      S
C36   H38   1.103 .      S
C36   H39   1.107 .      S
C36   H40   1.094 .      S
C39   H41   1.065 1_545  S
C40   H42   1.081 .      S
C41   C44   1.468 .      S
C42   H43   1.069 .      S
C44   O8    1.345 .      S
O8    H44   0.966 .      S
H36   C34   1.108 1_455  S
H41   C39   1.065 1_565  S
C45   C46   1.514 .      S
C45   H45   1.105 .      S
C45   H46   1.108 .      S
C45   H47   1.095 .      S
C46   C47   1.503 .      S
C46   C48   1.528 .      S
C46   H48   1.098 .      S
C47   H49   1.103 .      S
C47   H50   1.098 .      S
C47   H51   1.081 .      S
C50   H52   1.078 .      S
C51   H53   1.073 .      S
C52   C55   1.450 .      S
C53   H54   1.063 .      S
C55   O10   1.345 1_556  S
O10   C55   1.345 1_554  S
O10   H55   0.965 .      S
C56   C57   1.490 1_556  S
C56   H56   1.087 .      S
C56   H57   1.096 .      S
C56   H58   1.106 .      S
C57   C56   1.490 1_554  S
C57   C58   1.519 .      S
C57   C59   1.456 1_554  S
C57   H59   1.061 .      S
C58   H60   1.105 .      S
C58   H61   1.106 .      S
C58   H62   1.099 .      S
C59   C57   1.456 1_556  S
C61   H63   1.059 .      S
C62   H64   1.080 .      S
C63   C66   1.469 .      S
C64   H65   1.077 .      S
C66   O12   1.346 .      S
O12   H66   0.966 .      S
C67   C68   1.524 .      S
C67   H67   1.106 .      S
C67   H68   1.108 .      S
C67   H69   1.109 .      S
C68   C69   1.477 .      S
C68   C70   1.471 .      S
C68   H70   1.093 .      S
C69   H71   1.104 .      S
C69   H72   1.103 .      S
C69   H73   1.079 .      S
C72   H74   1.078 .      S
C73   H75   1.078 .      S
C74   C77   1.464 .      S
C75   H76   1.060 .      S
C77   O14   1.346 .      S
O14   H77   0.962 .      S
C78   C79   1.487 .      S
C78   H78   1.095 .      S
C78   H79   1.095 .      S
C78   H80   1.096 .      S
C79   C80   1.513 .      S
C79   C81   1.470 .      S
C79   H81   1.102 .      S
C80   H82   1.097 .      S
C80   H83   1.107 .      S
C80   H84   1.105 .      S
C83   H85   1.064 .      S
C84   H86   1.060 .      S
C85   C88   1.479 1_556  S
C86   H87   1.052 .      S
N16   Zn6   2.286 1_556  S
C88   C85   1.479 1_554  S
C88   O16   1.332 .      S
O16   H88   0.966 .      S
C89   C90   1.524 .      S
C89   H89   1.103 .      S
C89   H90   1.096 .      S
C89   H91   1.101 .      S
C90   C91   1.469 .      S
C90   C92   1.401 .      S
C90   H92   1.093 .      S
C91   H93   1.089 .      S
C91   H94   1.097 .      S
C91   H95   1.064 .      S
C94   H96   1.074 .      S
C95   H97   1.079 .      S
C96   C99   1.454 .      S
C97   H98   1.064 .      S
N18   Zn7   2.240 1_556  S
C99   O18   1.342 .      S
O18   H99   0.961 .      S
C100  C101  1.481 .      S
C100  H100  1.077 .      S
C100  H101  1.101 .      S
C100  H102  1.079 .      S
C101  C102  1.490 .      S
C101  C103  1.472 .      S
C101  H103  1.091 .      S
C102  H104  1.091 .      S
C102  H105  1.100 .      S
C102  H106  1.104 .      S
C105  H107  1.067 .      S
C106  H108  1.081 .      S
C107  C110  1.462 .      S
C108  H109  1.078 .      S
C110  O20   1.341 .      S
O20   H110  0.964 .      S
C111  C112  1.507 1_554  S
C111  H111  1.097 1_554  S
C111  H112  1.104 .      S
C111  H113  1.107 .      S
C112  C111  1.507 1_556  S
C112  C113  1.504 .      S
C112  C114  1.461 1_455  S
C112  H114  1.106 .      S
C113  H115  1.107 .      S
C113  H116  1.106 .      S
C113  H117  1.101 .      S
C114  C112  1.461 1_655  S
C116  H118  1.061 .      S
C117  H119  1.072 .      S
C118  C121  1.447 .      S
C119  H120  1.048 .      S
N22   Zn7   2.116 1_556  S
C121  O22   1.341 .      S
O22   H121  0.959 .      S
H111  C111  1.097 1_556  S
C122  C123  1.486 .      S
C122  H122  1.065 .      S
C122  H123  1.104 .      S
C122  H124  1.084 .      S
C123  C124  1.469 .      S
C123  C125  1.482 .      S
C123  H125  1.094 .      S
C124  H126  1.080 .      S
C124  H127  1.105 .      S
C124  H128  1.089 .      S
C127  H129  1.065 .      S
C128  H130  1.072 .      S
C129  C132  1.464 .      S
C130  H131  1.059 .      S
C132  O24   1.344 .      S
O24   H132  0.964 .      S
C133  C134  1.497 .      S
C133  H133  1.099 .      S
C133  H134  1.103 .      S
C133  H135  1.092 .      S
C134  C135  1.493 .      S
C134  C136  1.464 .      S
C134  H136  1.083 .      S
C135  H137  1.097 .      S
C135  H138  1.099 .      S
C135  H139  1.078 .      S
C138  H140  1.042 .      S
C139  H141  1.081 .      S
C140  C143  1.468 .      S
C141  H142  1.057 .      S
N26   Zn11  2.210 1_455  S
C143  O26   1.344 1_455  S
O26   C143  1.344 1_655  S
O26   H143  0.965 .      S
C144  C145  1.510 .      S
C144  H144  1.101 .      S
C144  H145  1.106 .      S
C144  H146  1.102 .      S
C145  C146  1.497 .      S
C145  C147  1.494 .      S
C145  H147  1.099 .      S
C146  H148  1.108 .      S
C146  H149  1.095 .      S
C146  H150  1.098 .      S
C149  H151  1.056 .      S
C150  H152  1.081 .      S
C151  C154  1.458 .      S
C152  H153  1.049 .      S
C154  O28   1.345 .      S
O28   H154  0.966 .      S
C155  C156  1.518 .      S
C155  H155  1.095 .      S
C155  H156  1.108 .      S
C155  H157  1.096 .      S
C156  C157  1.530 .      S
C156  C158  1.502 .      S
C156  H158  1.094 .      S
C157  H159  1.108 .      S
C157  H160  1.106 .      S
C157  H161  1.103 .      S
C160  H162  1.052 .      S
C161  H163  1.081 .      S
C162  C165  1.434 .      S
C163  H164  1.066 .      S
N30   Zn16  2.247 1_455  S
C165  O30   1.333 .      S
O30   H165  0.954 .      S
C166  C167  1.470 .      S
C166  H166  1.105 .      S
C166  H167  1.081 .      S
C166  H168  1.076 .      S
C167  C168  1.492 .      S
C167  C169  1.479 .      S
C167  H169  1.107 .      S
C168  H170  1.096 .      S
C168  H171  1.105 .      S
C168  H172  1.105 .      S
C171  H173  1.078 .      S
C172  H174  1.069 .      S
C173  C176  1.458 .      S
C174  H175  1.067 .      S
C176  O32   1.343 .      S
O32   H176  0.963 .      S
C177  C178  1.509 .      S
C177  H177  1.107 .      S
C177  H178  1.105 .      S
C177  H179  1.106 .      S
C178  C179  1.508 .      S
C178  C180  1.503 .      S
C178  H180  1.088 .      S
C179  H181  1.097 .      S
C179  H182  1.108 .      S
C179  H183  1.085 .      S
C182  H184  1.039 .      S
C183  H185  1.078 .      S
C184  C187  1.454 .      S
C185  H186  1.049 .      S
C187  O34   1.344 .      S
O34   H187  0.963 .      S
C188  C189  1.504 .      S
C188  H188  1.086 .      S
C188  H189  1.103 .      S
C188  H190  1.085 .      S
C189  C190  1.485 .      S
C189  C191  1.497 .      S
C189  H191  1.078 .      S
C190  H192  1.103 .      S
C190  H193  1.106 .      S
C190  H194  1.092 .      S
C193  H195  1.052 .      S
C194  H196  1.079 .      S
C195  C198  1.464 .      S
C196  H197  1.063 .      S
N36   Zn13  2.137 1_455  S
C198  O36   1.347 .      S
O36   H198  0.966 .      S
C199  C200  1.508 .      S
C199  H199  1.109 .      S
C199  H200  1.109 .      S
C199  H201  1.093 .      S
C200  C201  1.505 .      S
C200  C202  1.529 .      S
C200  H202  1.094 .      S
C201  H203  1.087 .      S
C201  H204  1.108 .      S
C201  H205  1.102 .      S
C204  H206  1.069 .      S
C205  H207  1.047 .      S
C206  C209  1.458 .      S
C207  H208  1.069 .      S
C209  O38   1.332 .      S
O38   H209  0.957 .      S
C210  C211  1.487 1_545  S
C210  H210  1.109 .      S
C210  H211  1.101 .      S
C210  H212  1.089 .      S
C211  C210  1.487 1_565  S
C211  C212  1.505 .      S
C211  C213  1.488 .      S
C211  H213  1.103 .      S
C212  H214  1.094 .      S
C212  H215  1.109 .      S
C212  H216  1.107 .      S
C215  H217  1.071 1_545  S
C216  H218  1.081 .      S
C217  C220  1.466 .      S
C218  H219  1.060 .      S
C220  O40   1.345 .      S
O40   H220  0.966 .      S
H217  C215  1.071 1_565  S
C221  C222  1.466 .      S
C221  H221  1.094 .      S
C221  H222  1.099 .      S
C221  H223  1.095 .      S
C222  C223  1.490 .      S
C222  C224  1.441 .      S
C222  H224  1.068 .      S
C223  H225  1.091 .      S
C223  H226  1.108 .      S
C223  H227  1.080 .      S
C226  H228  1.059 .      S
C227  H229  1.068 .      S
C228  C231  1.470 .      S
C229  H230  1.074 .      S
C231  O42   1.336 .      S
O42   H231  0.965 .      S
C232  C233  1.501 .      S
C232  H232  1.088 .      S
C232  H233  1.098 .      S
C232  H234  1.090 .      S
C233  C234  1.520 1_655  S
C233  C235  1.458 .      S
C233  H235  1.104 .      S
C234  C233  1.520 1_455  S
C234  H236  1.105 .      S
C234  H237  1.100 .      S
C234  H238  1.106 .      S
C237  H239  1.069 .      S
C238  H240  1.072 .      S
C239  C242  1.468 .      S
C240  H241  1.057 .      S
C242  O44   1.340 .      S
O44   H242  0.966 .      S
C243  C244  1.510 .      S
C243  H243  1.093 .      S
C243  H244  1.105 .      S
C243  H245  1.098 .      S
C244  C245  1.506 .      S
C244  C246  1.475 .      S
C244  H246  1.092 .      S
C245  H247  1.091 .      S
C245  H248  1.107 .      S
C245  H249  1.071 .      S
C248  H250  1.060 .      S
C249  H251  1.077 .      S
C250  C253  1.457 .      S
C251  H252  1.071 .      S
C253  O46   1.325 .      S
O46   H253  0.961 .      S
C254  C255  1.484 1_554  S
C254  H254  1.091 .      S
C254  H255  1.107 1_554  S
C254  H256  1.095 .      S
C255  C254  1.484 1_556  S
C255  C256  1.493 .      S
C255  C257  1.463 .      S
C255  H257  1.096 .      S
C256  H258  1.107 .      S
C256  H259  1.104 .      S
C256  H260  1.085 .      S
N47   Zn20  2.254 1_556  S
C259  H261  1.060 .      S
C260  H262  1.075 .      S
C261  C264  1.454 .      S
C262  H263  1.074 .      S
C264  O48   1.341 .      S
O48   H264  0.961 .      S
H255  C254  1.107 1_556  S
C265  C266  1.508 .      S
C265  H265  1.089 .      S
C265  H266  1.088 .      S
C265  H267  1.103 .      S
C266  C267  1.514 .      S
C266  C268  1.407 .      S
C266  H268  1.083 .      S
C267  H269  1.108 .      S
C267  H270  1.096 .      S
C267  H271  1.104 .      S
C270  H272  1.076 .      S
C271  H273  1.080 .      S
C272  C275  1.467 .      S
C273  H274  1.071 .      S
C275  O50   1.345 .      S
O50   H275  0.965 .      S
C276  C277  1.484 1_445  S
C276  H276  1.093 .      S
C276  H277  1.104 1_545  S
C276  H278  1.107 .      S
C277  C276  1.484 1_665  S
C277  C278  1.497 .      S
C277  C279  1.442 .      S
C277  H279  1.092 .      S
C278  H280  1.085 .      S
C278  H281  1.105 .      S
C278  H282  1.103 .      S
C281  H283  1.059 .      S
C282  H284  1.080 .      S
C283  C286  1.469 .      S
C284  H285  1.071 1_545  S
C286  O52   1.346 .      S
O52   H286  0.966 .      S
H277  C276  1.104 1_565  S
H285  C284  1.071 1_565  S
C287  C288  1.518 .      S
C287  H287  1.106 .      S
C287  H288  1.109 .      S
C287  H289  1.106 .      S
C288  C289  1.494 .      S
C288  C290  1.520 .      S
C288  H290  1.081 .      S
C289  H291  1.080 .      S
C289  H292  1.109 .      S
C289  H293  1.104 .      S
C292  H294  1.059 1_455  S
C293  H295  1.079 .      S
C294  C297  1.470 .      S
C295  H296  1.066 .      S
C297  O54   1.345 .      S
O54   H297  0.966 1_565  S
H294  C292  1.059 1_655  S
H297  O54   0.966 1_545  S
C298  C299  1.527 .      S
C298  H298  1.091 .      S
C298  H299  1.105 .      S
C298  H300  1.105 .      S
C299  C300  1.489 .      S
C299  C301  1.472 .      S
C299  H301  1.084 .      S
C300  H302  1.092 .      S
C300  H303  1.106 .      S
C300  H304  1.092 .      S
C303  H305  1.078 .      S
C304  H306  1.080 .      S
C305  C308  1.469 .      S
C306  H307  1.064 .      S
C308  O56   1.345 .      S
O56   H308  0.966 .      S
C309  C310  1.497 .      S
C309  H309  1.107 .      S
C309  H310  1.103 .      S
C309  H311  1.093 .      S
C310  C311  1.510 .      S
C310  C312  1.488 .      S
C310  H312  1.108 .      S
C311  H313  1.101 .      S
C311  H314  1.109 .      S
C311  H315  1.091 .      S
C314  H316  1.054 .      S
C315  H317  1.073 .      S
C316  C319  1.413 .      S
C317  H318  1.055 .      S
C319  O58   1.316 .      S
O58   H319  0.949 .      S
C320  C321  1.517 .      S
C320  H320  1.109 .      S
C320  H321  1.108 1_545  S
C320  H322  1.088 .      S
C321  C322  1.480 .      S
C321  C323  1.491 .      S
C321  H323  1.094 .      S
C322  H324  1.103 .      S
C322  H325  1.102 .      S
C322  H326  1.103 1_545  S
C325  H327  1.067 .      S
C326  H328  1.076 .      S
C327  C330  1.464 .      S
C328  H329  1.065 .      S
C330  O60   1.345 .      S
O60   H330  0.964 .      S
H321  C320  1.108 1_565  S
H326  C322  1.103 1_565  S
C331  C332  1.492 .      S
C331  H331  1.102 .      S
C331  H332  1.103 .      S
C331  H333  1.094 .      S
C332  C333  1.514 .      S
C332  C334  1.500 .      S
C332  H334  1.102 .      S
C333  H335  1.101 .      S
C333  H336  1.109 .      S
C333  H337  1.102 .      S
C336  H338  1.057 .      S
C337  H339  1.073 .      S
C338  C341  1.440 .      S
C339  H340  1.056 .      S
C341  O62   1.346 .      S
O62   H341  0.962 .      S
C342  C343  1.511 .      S
C342  H342  1.095 .      S
C342  H343  1.106 .      S
C342  H344  1.083 .      S
C343  C344  1.495 .      S
C343  C345  1.492 .      S
C343  H345  1.099 .      S
C344  H346  1.087 .      S
C344  H347  1.100 .      S
C344  H348  1.079 .      S
N63   Zn20  2.149 1_556  S
C347  H349  1.060 .      S
C348  H350  1.080 1_545  S
C349  C352  1.430 .      S
C350  H351  1.058 .      S
C352  O64   1.345 1_556  S
O64   C352  1.345 1_554  S
O64   H352  0.959 .      S
H350  C348  1.080 1_565  S
C353  C354  1.513 .      S
C353  H353  1.100 .      S
C353  H354  1.104 .      S
C353  H355  1.107 .      S
C354  C355  1.490 .      S
C354  C356  1.431 .      S
C354  H356  1.051 .      S
C355  H357  1.086 .      S
C355  H358  1.088 .      S
C355  H359  1.080 .      S
C358  H360  1.064 .      S
C359  H361  1.081 .      S
C360  C363  1.470 .      S
C361  H362  1.053 .      S
C363  O66   1.346 .      S
O66   H363  0.966 .      S
C364  C365  1.486 1_455  S
C364  H364  1.096 .      S
C364  H365  1.100 .      S
C364  H366  1.089 .      S
C365  C364  1.486 1_655  S
C365  C366  1.518 1_655  S
C365  C367  1.463 .      S
C365  H367  1.093 .      S
C366  C365  1.518 1_455  S
C366  H368  1.103 .      S
C366  H369  1.105 .      S
C366  H370  1.093 .      S
C369  H371  1.081 .      S
C370  H372  1.074 .      S
C371  C374  1.440 .      S
C372  H373  1.070 .      S
C374  O68   1.342 .      S
O68   H374  0.960 .      S
C375  C376  1.516 .      S
C375  H375  1.106 .      S
C375  H376  1.104 .      S
C375  H377  1.108 .      S
C376  C377  1.525 .      S
C376  C378  1.484 .      S
C376  H378  1.072 .      S
C377  H379  1.097 .      S
C377  H380  1.107 .      S
C377  H381  1.076 .      S
C380  H382  1.063 .      S
C381  H383  1.062 .      S
C382  C385  1.461 .      S
C383  H384  1.043 .      S
C385  O70   1.345 1_565  S
O70   C385  1.345 1_545  S
O70   H385  0.966 .      S
C386  C387  1.504 .      S
C386  H386  1.098 .      S
C386  H387  1.106 .      S
C386  H388  1.104 .      S
C387  C388  1.492 .      S
C387  C389  1.500 .      S
C387  H389  1.096 .      S
C388  H390  1.088 .      S
C388  H391  1.109 .      S
C388  H392  1.081 .      S
C391  H393  1.073 .      S
C392  H394  1.079 .      S
C393  C396  1.469 .      S
C394  H395  1.080 1_545  S
C396  O72   1.346 .      S
O72   H396  0.966 .      S
H395  C394  1.080 1_565  S
C397  C398  1.497 .      S
C397  H397  1.102 .      S
C397  H398  1.100 .      S
C397  H399  1.105 .      S
C398  C399  1.487 .      S
C398  C400  1.471 .      S
C398  H400  1.094 .      S
C399  H401  1.104 .      S
C399  H402  1.082 .      S
C399  H403  1.085 .      S
C402  H404  1.040 .      S
C403  H405  1.081 .      S
C404  C407  1.436 .      S
C405  H406  1.057 .      S
C407  O74   1.329 .      S
O74   H407  0.959 .      S
C408  C409  1.483 .      S
C408  H408  1.086 .      S
C408  H409  1.068 .      S
C408  H410  1.080 .      S
C409  C410  1.491 .      S
C409  C411  1.458 .      S
C409  H411  1.101 .      S
C410  H412  1.074 .      S
C410  H413  1.097 .      S
C410  H414  1.097 .      S
C413  H415  1.080 .      S
C414  H416  1.053 .      S
C415  C418  1.461 .      S
C416  H417  1.049 .      S
C418  O76   1.348 .      S
O76   H418  0.961 .      S
C419  C420  1.519 .      S
C419  H419  1.105 .      S
C419  H420  1.107 .      S
C419  H421  1.099 .      S
C420  C421  1.468 .      S
C420  C422  1.496 .      S
C420  H422  1.090 .      S
C421  H423  1.092 .      S
C421  H424  1.109 .      S
C421  H425  1.105 .      S
C424  H426  1.076 .      S
C425  H427  1.073 .      S
C426  C429  1.469 .      S
C427  H428  1.075 .      S
C429  O78   1.346 .      S
O78   H429  0.966 .      S
C430  C431  1.516 .      S
C430  H430  1.104 .      S
C430  H431  1.105 .      S
C430  H432  1.105 .      S
C431  C432  1.518 .      S
C431  C433  1.488 .      S
C431  H433  1.084 .      S
C432  H434  1.108 .      S
C432  H435  1.109 .      S
C432  H436  1.101 .      S
C435  H437  1.031 .      S
C436  H438  1.056 .      S
C437  C440  1.442 .      S
C438  H439  1.033 .      S
C440  O80   1.339 .      S
O80   H440  0.953 .      S
C441  C442  1.514 .      S
C441  H441  1.088 .      S
C441  H442  1.104 .      S
C441  H443  1.102 .      S
C442  C443  1.506 .      S
C442  C444  1.503 .      S
C442  H444  1.105 .      S
C443  H445  1.092 .      S
C443  H446  1.109 .      S
C443  H447  1.105 .      S
C446  H448  1.067 .      S
C447  H449  1.067 .      S
C448  C451  1.440 .      S
C449  H450  1.040 .      S
N82   Zn5   2.197 1_455  S
C451  O82   1.338 1_455  S
O82   C451  1.338 1_655  S
O82   H451  0.955 .      S
C452  C453  1.495 .      S
C452  H452  1.104 .      S
C452  H453  1.106 .      S
C452  H454  1.107 .      S
C453  C454  1.505 .      S
C453  C455  1.508 .      S
C453  H455  1.096 .      S
C454  H456  1.097 .      S
C454  H457  1.107 .      S
C454  H458  1.093 .      S
C457  H459  1.054 .      S
C458  H460  1.076 1_545  S
C459  C462  1.433 1_545  S
C460  H461  1.067 1_556  S
N84   Zn4   2.125 1_455  S
C462  C459  1.433 1_565  S
C462  O84   1.342 1_455  S
O84   C462  1.342 1_655  S
O84   H462  0.959 .      S
H460  C458  1.076 1_565  S
H461  C460  1.067 1_554  S
C463  C464  1.493 .      S
C463  H463  1.096 .      S
C463  H464  1.109 .      S
C463  H465  1.102 1_655  S
C464  C465  1.513 .      S
C464  C466  1.519 .      S
C464  H466  1.100 .      S
C465  H467  1.093 .      S
C465  H468  1.109 .      S
C465  H469  1.103 .      S
C468  H470  1.058 1_655  S
C469  H471  1.073 .      S
C470  C473  1.444 .      S
C471  H472  1.068 .      S
C473  O86   1.338 .      S
O86   H473  0.962 .      S
H465  C463  1.102 1_455  S
H470  C468  1.058 1_455  S
C474  C475  1.475 .      S
C474  H474  1.098 .      S
C474  H475  1.101 .      S
C474  H476  1.105 .      S
C475  C476  1.511 1_556  S
C475  C477  1.472 .      S
C475  H477  1.084 .      S
C476  C475  1.511 1_554  S
C476  H478  1.099 .      S
C476  H479  1.105 .      S
C476  H480  1.092 .      S
N87   Zn4   2.205 1_556  S
C479  H481  1.042 .      S
C480  H482  1.080 .      S
C481  C484  1.457 .      S
C482  H483  1.060 .      S
C484  O88   1.339 .      S
O88   H484  0.957 .      S
C485  C486  1.518 1_455  S
C485  H485  1.104 1_455  S
C485  H486  1.109 .      S
C485  H487  1.101 .      S
C486  C485  1.518 1_655  S
C486  C487  1.462 .      S
C486  C488  1.472 .      S
C486  H488  1.104 1_655  S
C487  H489  1.093 .      S
C487  H490  1.091 .      S
C487  H491  1.102 .      S
C490  H492  1.059 .      S
C491  H493  1.071 .      S
C492  C495  1.459 .      S
C493  H494  1.063 .      S
C495  O90   1.338 .      S
O90   H495  0.966 .      S
H485  C485  1.104 1_655  S
H488  C486  1.104 1_455  S
C496  C497  1.514 .      S
C496  H496  1.098 .      S
C496  H497  1.108 .      S
C496  H498  1.103 .      S
C497  C498  1.495 .      S
C497  C499  1.508 1_455  S
C497  H499  1.099 1_455  S
C498  H500  1.100 .      S
C498  H501  1.103 .      S
C498  H502  1.099 .      S
C499  C497  1.508 1_655  S
N91   Zn4   2.227 1_556  S
C501  H503  1.059 1_556  S
C502  H504  1.081 1_556  S
C503  C506  1.433 .      S
C504  H505  1.047 .      S
C506  O92   1.333 .      S
O92   H506  0.956 .      S
H499  C497  1.099 1_655  S
H503  C501  1.059 1_554  S
H504  C502  1.081 1_554  S
C507  C508  1.517 .      S
C507  H507  1.102 .      S
C507  H508  1.108 .      S
C507  H509  1.103 .      S
C508  C509  1.486 .      S
C508  C510  1.497 .      S
C508  H510  1.095 .      S
C509  H511  1.090 .      S
C509  H512  1.107 .      S
C509  H513  1.071 .      S
C512  H514  1.062 .      S
C513  H515  1.071 .      S
C514  C517  1.469 .      S
C515  H516  1.064 .      S
C517  O94   1.345 .      S
O94   H517  0.966 .      S
C518  C519  1.470 .      S
C518  H518  1.095 .      S
C518  H519  1.106 .      S
C518  H520  1.104 .      S
C519  C520  1.493 .      S
C519  C521  1.500 .      S
C519  H521  1.085 .      S
C520  H522  1.095 .      S
C520  H523  1.109 .      S
C520  H524  1.102 .      S
C523  H525  1.077 .      S
C524  H526  1.081 .      S
C525  C528  1.473 .      S
C526  H527  1.076 .      S
N96   Zn1   2.190 1_455  S
C528  O96   1.346 .      S
O96   H528  0.966 1_465  S
H528  O96   0.966 1_645  S
C4    N1    1.409 .      A
C4    N2    1.404 .      A
N1    C5    1.331 .      A
C5    C6    1.354 1_655  A
C5    C10   1.349 .      A
C6    C5    1.354 1_455  A
C6    C7    1.363 .      A
C7    C8    1.376 .      A
C8    C9    1.384 .      A
C9    C10   1.353 1_455  A
C10   C9    1.353 1_655  A
C10   N2    1.341 .      A
C15   N3    1.399 .      A
C15   N4    1.397 .      A
N3    C16   1.350 .      A
C16   C17   1.373 .      A
C16   C21   1.370 .      A
C17   C18   1.379 .      A
C18   C19   1.388 .      A
C19   C20   1.390 .      A
C20   C21   1.375 .      A
C21   N4    1.357 .      A
C26   N5    1.404 .      A
C26   N6    1.397 .      A
N5    C27   1.354 .      A
C27   C28   1.367 .      A
C27   C32   1.373 .      A
C28   C29   1.391 .      A
C29   C30   1.390 .      A
C30   C31   1.381 .      A
C31   C32   1.371 .      A
C32   N6    1.343 .      A
C37   N7    1.400 .      A
C37   N8    1.402 1_565  A
N7    C38   1.356 1_565  A
C38   N7    1.356 1_545  A
C38   C39   1.369 .      A
C38   C43   1.369 .      A
C39   C40   1.379 .      A
C40   C41   1.386 .      A
C41   C42   1.387 .      A
C42   C43   1.373 .      A
C43   N8    1.347 .      A
N8    C37   1.402 1_545  A
C48   N9    1.408 .      A
C48   N10   1.413 .      A
N9    C49   1.346 .      A
C49   C50   1.364 .      A
C49   C54   1.360 .      A
C50   C51   1.390 .      A
C51   C52   1.390 1_554  A
C52   C51   1.390 1_556  A
C52   C53   1.351 .      A
C53   C54   1.350 1_556  A
C54   C53   1.350 1_554  A
C54   N10   1.334 .      A
C59   N11   1.397 .      A
C59   N12   1.402 1_556  A
N11   C60   1.358 .      A
C60   C61   1.366 .      A
C60   C65   1.367 1_556  A
C61   C62   1.378 1_556  A
C62   C61   1.378 1_554  A
C62   C63   1.383 .      A
C63   C64   1.388 .      A
C64   C65   1.371 .      A
C65   C60   1.367 1_554  A
C65   N12   1.345 .      A
N12   C59   1.402 1_554  A
C70   N13   1.389 .      A
C70   N14   1.383 .      A
N13   C71   1.317 .      A
C71   C72   1.365 .      A
C71   C76   1.359 .      A
C72   C73   1.362 .      A
C73   C74   1.371 .      A
C74   C75   1.397 .      A
C75   C76   1.384 .      A
C76   N14   1.377 .      A
C81   N15   1.408 .      A
C81   N16   1.420 .      A
N15   C82   1.336 .      A
C82   C83   1.344 .      A
C82   C87   1.367 .      A
C83   C84   1.366 .      A
C84   C85   1.365 .      A
C85   C86   1.389 1_556  A
C86   C85   1.389 1_554  A
C86   C87   1.363 1_554  A
C87   C86   1.363 1_556  A
C87   N16   1.350 .      A
C92   N17   1.384 .      A
C92   N18   1.389 .      A
N17   C93   1.349 1_655  A
C93   N17   1.349 1_455  A
C93   C94   1.375 .      A
C93   C98   1.377 1_455  A
C94   C95   1.380 .      A
C95   C96   1.385 1_556  A
C96   C95   1.385 1_554  A
C96   C97   1.374 .      A
C97   C98   1.356 1_454  A
C98   C93   1.377 1_655  A
C98   C97   1.356 1_656  A
C98   N18   1.351 .      A
C103  N19   1.418 .      A
C103  N20   1.394 .      A
N19   C104  1.348 .      A
C104  C105  1.355 .      A
C104  C109  1.376 .      A
C105  C106  1.373 .      A
C106  C107  1.384 .      A
C107  C108  1.393 .      A
C108  C109  1.380 .      A
C109  N20   1.351 .      A
C114  N21   1.399 .      A
C114  N22   1.369 .      A
N21   C115  1.345 .      A
C115  C116  1.374 .      A
C115  C120  1.348 .      A
C116  C117  1.366 .      A
C117  C118  1.366 .      A
C118  C119  1.374 .      A
C119  C120  1.350 .      A
C120  N22   1.345 .      A
C125  N23   1.418 .      A
C125  N24   1.382 .      A
N23   C126  1.349 .      A
C126  C127  1.364 .      A
C126  C131  1.367 .      A
C127  C128  1.381 .      A
C128  C129  1.385 .      A
C129  C130  1.367 .      A
C130  C131  1.356 .      A
C131  N24   1.333 .      A
C136  N25   1.400 .      A
C136  N26   1.405 .      A
N25   C137  1.344 .      A
C137  C138  1.349 1_556  A
C137  C142  1.365 .      A
C138  C137  1.349 1_554  A
C138  C139  1.373 .      A
C139  C140  1.382 .      A
C140  C141  1.394 1_554  A
C141  C140  1.394 1_556  A
C141  C142  1.373 .      A
C142  N26   1.351 .      A
C147  N27   1.405 .      A
C147  N28   1.392 .      A
N27   C148  1.357 .      A
C148  C149  1.376 1_556  A
C148  C153  1.361 .      A
C149  C148  1.376 1_554  A
C149  C150  1.368 .      A
C150  C151  1.368 .      A
C151  C152  1.385 .      A
C152  C153  1.370 1_554  A
C153  C152  1.370 1_556  A
C153  N28   1.349 .      A
C158  N29   1.414 .      A
C158  N30   1.404 .      A
N29   C159  1.329 .      A
C159  C160  1.349 .      A
C159  C164  1.360 .      A
C160  C161  1.362 .      A
C161  C162  1.374 .      A
C162  C163  1.385 .      A
C163  C164  1.356 .      A
C164  N30   1.348 .      A
C169  N31   1.403 .      A
C169  N32   1.388 .      A
N31   C170  1.336 .      A
C170  C171  1.362 .      A
C170  C175  1.374 .      A
C171  C172  1.370 .      A
C172  C173  1.378 .      A
C173  C174  1.379 .      A
C174  C175  1.372 .      A
C175  N32   1.354 .      A
C180  N33   1.416 .      A
C180  N34   1.396 .      A
N33   C181  1.353 .      A
C181  C182  1.352 .      A
C181  C186  1.360 .      A
C182  C183  1.371 .      A
C183  C184  1.371 .      A
C184  C185  1.371 .      A
C185  C186  1.369 .      A
C186  N34   1.342 .      A
C191  N35   1.423 .      A
C191  N36   1.387 .      A
N35   C192  1.364 .      A
C192  C193  1.363 1_565  A
C192  C197  1.363 .      A
C193  C192  1.363 1_545  A
C193  C194  1.375 .      A
C194  C195  1.378 .      A
C195  C196  1.380 .      A
C196  C197  1.373 1_545  A
C197  C196  1.373 1_565  A
C197  N36   1.338 .      A
C202  N37   1.408 .      A
C202  N38   1.402 .      A
N37   C203  1.336 .      A
C203  C204  1.349 .      A
C203  C208  1.344 .      A
C204  C205  1.363 .      A
C205  C206  1.379 .      A
C206  C207  1.375 .      A
C207  C208  1.347 .      A
C208  N38   1.326 .      A
C213  N39   1.396 .      A
C213  N40   1.407 1_565  A
N39   C214  1.351 1_565  A
C214  N39   1.351 1_545  A
C214  C215  1.375 .      A
C214  C219  1.364 .      A
C215  C216  1.380 .      A
C216  C217  1.386 .      A
C217  C218  1.387 .      A
C218  C219  1.372 .      A
C219  N40   1.355 .      A
N40   C213  1.407 1_545  A
C224  N41   1.393 .      A
C224  N42   1.401 .      A
N41   C225  1.358 .      A
C225  C226  1.364 1_655  A
C225  C230  1.372 1_655  A
C226  C225  1.364 1_455  A
C226  C227  1.373 .      A
C227  C228  1.386 .      A
C228  C229  1.382 .      A
C229  C230  1.375 .      A
C230  C225  1.372 1_455  A
C230  N42   1.345 1_455  A
N42   C230  1.345 1_655  A
C235  N43   1.403 .      A
C235  N44   1.407 .      A
N43   C236  1.358 .      A
C236  C237  1.376 1_556  A
C236  C241  1.377 .      A
C237  C236  1.376 1_554  A
C237  C238  1.371 .      A
C238  C239  1.379 .      A
C239  C240  1.389 .      A
C240  C241  1.373 1_554  A
C241  C240  1.373 1_556  A
C241  N44   1.356 .      A
C246  N45   1.404 .      A
C246  N46   1.398 .      A
N45   C247  1.348 .      A
C247  C248  1.368 .      A
C247  C252  1.366 .      A
C248  C249  1.369 .      A
C249  C250  1.381 .      A
C250  C251  1.383 .      A
C251  C252  1.362 .      A
C252  N46   1.348 .      A
C257  N47   1.414 .      A
C257  N48   1.379 .      A
N47   C258  1.356 .      A
C258  C259  1.363 .      A
C258  C263  1.372 .      A
C259  C260  1.379 .      A
C260  C261  1.384 .      A
C261  C262  1.375 .      A
C262  C263  1.367 .      A
C263  N48   1.338 .      A
C268  N49   1.392 .      A
C268  N50   1.392 .      A
N49   C269  1.355 .      A
C269  C270  1.374 1_556  A
C269  C274  1.379 .      A
C270  C269  1.374 1_554  A
C270  C271  1.378 .      A
C271  C272  1.382 .      A
C272  C273  1.383 .      A
C273  C274  1.374 1_554  A
C274  C273  1.374 1_556  A
C274  N50   1.358 .      A
C279  N51   1.397 1_565  A
C279  N52   1.368 .      A
N51   C279  1.397 1_545  A
N51   C280  1.356 .      A
C280  C281  1.368 .      A
C280  C285  1.362 .      A
C281  C282  1.381 .      A
C282  C283  1.387 .      A
C283  C284  1.386 .      A
C284  C285  1.372 .      A
C285  N52   1.348 1_545  A
N52   C285  1.348 1_565  A
C290  N53   1.397 .      A
C290  N54   1.409 .      A
N53   C291  1.351 .      A
C291  C292  1.367 1_655  A
C291  C296  1.363 .      A
C292  C291  1.367 1_455  A
C292  C293  1.380 .      A
C293  C294  1.381 .      A
C294  C295  1.388 .      A
C295  C296  1.373 1_455  A
C296  C295  1.373 1_655  A
C296  N54   1.344 .      A
C301  N55   1.397 .      A
C301  N56   1.406 .      A
N55   C302  1.348 .      A
C302  C303  1.373 .      A
C302  C307  1.371 .      A
C303  C304  1.381 .      A
C304  C305  1.390 .      A
C305  C306  1.389 .      A
C306  C307  1.368 .      A
C307  N56   1.354 .      A
C312  N57   1.388 .      A
C312  N58   1.421 .      A
N57   C313  1.307 .      A
C313  C314  1.329 .      A
C313  C318  1.343 .      A
C314  C315  1.345 .      A
C315  C316  1.349 .      A
C316  C317  1.384 .      A
C317  C318  1.339 .      A
C318  N58   1.342 .      A
C323  N59   1.406 .      A
C323  N60   1.395 .      A
N59   C324  1.358 .      A
C324  C325  1.379 .      A
C324  C329  1.368 .      A
C325  C326  1.379 .      A
C326  C327  1.380 .      A
C327  C328  1.379 .      A
C328  C329  1.375 .      A
C329  N60   1.350 .      A
C334  N61   1.420 .      A
C334  N62   1.391 .      A
N61   C335  1.342 .      A
C335  C336  1.367 .      A
C335  C340  1.360 .      A
C336  C337  1.371 .      A
C337  C338  1.375 .      A
C338  C339  1.366 .      A
C339  C340  1.349 .      A
C340  N62   1.342 .      A
C345  N63   1.400 .      A
C345  N64   1.402 .      A
N63   C346  1.337 .      A
C346  C347  1.368 1_556  A
C346  C351  1.358 .      A
C347  C346  1.368 1_554  A
C347  C348  1.364 .      A
C348  C349  1.376 1_544  A
C349  C348  1.376 1_566  A
C349  C350  1.380 1_565  A
C350  C349  1.380 1_545  A
C350  C351  1.350 .      A
C351  N64   1.347 .      A
C356  N65   1.393 .      A
C356  N66   1.392 .      A
N65   C357  1.354 .      A
C357  C358  1.377 .      A
C357  C362  1.374 .      A
C358  C359  1.374 1_655  A
C359  C358  1.374 1_455  A
C359  C360  1.378 .      A
C360  C361  1.385 .      A
C361  C362  1.384 1_455  A
C362  C361  1.384 1_655  A
C362  N66   1.371 .      A
C367  N67   1.399 .      A
C367  N68   1.383 .      A
N67   C368  1.345 .      A
C368  C369  1.364 .      A
C368  C373  1.360 .      A
C369  C370  1.370 .      A
C370  C371  1.376 .      A
C371  C372  1.377 .      A
C372  C373  1.376 .      A
C373  N68   1.346 .      A
C378  N69   1.397 .      A
C378  N70   1.410 .      A
N69   C379  1.350 .      A
C379  C380  1.355 .      A
C379  C384  1.358 .      A
C380  C381  1.370 .      A
C381  C382  1.364 .      A
C382  C383  1.369 .      A
C383  C384  1.370 .      A
C384  N70   1.346 .      A
C389  N71   1.415 1_565  A
C389  N72   1.402 .      A
N71   C389  1.415 1_545  A
N71   C390  1.351 .      A
C390  C391  1.373 .      A
C390  C395  1.373 .      A
C391  C392  1.386 .      A
C392  C393  1.394 .      A
C393  C394  1.388 .      A
C394  C395  1.378 .      A
C395  N72   1.356 1_545  A
N72   C395  1.356 1_565  A
C400  N73   1.401 .      A
C400  N74   1.405 .      A
N73   C401  1.329 .      A
C401  C402  1.341 .      A
C401  C406  1.357 .      A
C402  C403  1.351 1_565  A
C403  C402  1.351 1_545  A
C403  C404  1.367 .      A
C404  C405  1.388 1_545  A
C405  C404  1.388 1_565  A
C405  C406  1.371 .      A
C406  N74   1.359 .      A
C411  N75   1.400 .      A
C411  N76   1.381 .      A
N75   C412  1.333 .      A
C412  C413  1.352 .      A
C412  C417  1.365 .      A
C413  C414  1.368 .      A
C414  C415  1.378 .      A
C415  C416  1.374 .      A
C416  C417  1.358 .      A
C417  N76   1.344 .      A
C422  N77   1.415 .      A
C422  N78   1.399 .      A
N77   C423  1.355 .      A
C423  C424  1.372 .      A
C423  C428  1.374 .      A
C424  C425  1.385 .      A
C425  C426  1.389 .      A
C426  C427  1.382 .      A
C427  C428  1.371 .      A
C428  N78   1.346 .      A
C433  N79   1.407 .      A
C433  N80   1.412 .      A
N79   C434  1.329 .      A
C434  C435  1.332 .      A
C434  C439  1.347 .      A
C435  C436  1.350 .      A
C436  C437  1.353 .      A
C437  C438  1.367 .      A
C438  C439  1.357 .      A
C439  N80   1.340 .      A
C444  N81   1.417 .      A
C444  N82   1.400 .      A
N81   C445  1.348 .      A
C445  C446  1.369 .      A
C445  C450  1.351 .      A
C446  C447  1.373 .      A
C447  C448  1.374 .      A
C448  C449  1.351 .      A
C449  C450  1.332 .      A
C450  N82   1.329 .      A
C455  N83   1.405 .      A
C455  N84   1.392 .      A
N83   C456  1.351 1_554  A
C456  N83   1.351 1_556  A
C456  C457  1.366 .      A
C456  C461  1.350 1_556  A
C457  C458  1.379 .      A
C458  C459  1.378 .      A
C459  C460  1.358 .      A
C460  C461  1.341 1_556  A
C461  C456  1.350 1_554  A
C461  C460  1.341 1_554  A
C461  N84   1.319 .      A
C466  N85   1.418 .      A
C466  N86   1.386 .      A
N85   C467  1.344 .      A
C467  C468  1.360 .      A
C467  C472  1.334 .      A
C468  C469  1.380 .      A
C469  C470  1.388 .      A
C470  C471  1.362 .      A
C471  C472  1.349 .      A
C472  N86   1.320 .      A
C477  N87   1.395 .      A
C477  N88   1.393 .      A
N87   C478  1.350 1_556  A
C478  N87   1.350 1_554  A
C478  C479  1.354 1_655  A
C478  C483  1.364 1_554  A
C479  C478  1.354 1_455  A
C479  C480  1.378 .      A
C480  C481  1.378 .      A
C481  C482  1.382 1_454  A
C482  C481  1.382 1_656  A
C482  C483  1.365 .      A
C483  C478  1.364 1_556  A
C483  N88   1.343 .      A
C488  N89   1.399 .      A
C488  N90   1.395 .      A
N89   C489  1.364 .      A
C489  C490  1.371 .      A
C489  C494  1.358 .      A
C490  C491  1.383 .      A
C491  C492  1.377 .      A
C492  C493  1.365 .      A
C493  C494  1.359 .      A
C494  N90   1.331 .      A
C499  N91   1.412 .      A
C499  N92   1.413 .      A
N91   C500  1.344 .      A
C500  C501  1.364 .      A
C500  C505  1.363 .      A
C501  C502  1.362 .      A
C502  C503  1.371 .      A
C503  C504  1.365 .      A
C504  C505  1.343 .      A
C505  N92   1.337 .      A
C510  N93   1.400 .      A
C510  N94   1.390 .      A
N93   C511  1.352 .      A
C511  C512  1.365 .      A
C511  C516  1.365 .      A
C512  C513  1.378 1_655  A
C513  C512  1.378 1_455  A
C513  C514  1.382 .      A
C514  C515  1.384 .      A
C515  C516  1.373 1_455  A
C516  C515  1.373 1_655  A
C516  N94   1.347 .      A
C521  N95   1.402 .      A
C521  N96   1.404 .      A
N95   C522  1.347 .      A
C522  C523  1.370 .      A
C522  C527  1.366 .      A
C523  C524  1.378 .      A
C524  C525  1.390 .      A
C525  C526  1.398 .      A
C526  C527  1.368 .      A
C527  N96   1.352 .      A
C11   O1    1.217 .      D
C22   O3    1.219 .      D
C33   O5    1.218 .      D
C44   O7    1.219 .      D
C55   O9    1.212 .      D
C66   O11   1.218 .      D
C77   O13   1.216 .      D
C88   O15   1.211 .      D
C99   O17   1.217 .      D
C110  O19   1.219 .      D
C121  O21   1.217 .      D
C132  O23   1.217 .      D
C143  O25   1.219 .      D
C154  O27   1.219 .      D
C165  O29   1.216 .      D
C176  O31   1.218 1_554  D
O31   C176  1.218 1_556  D
C187  O33   1.217 .      D
C198  O35   1.219 .      D
C209  O37   1.213 .      D
C220  O39   1.219 .      D
C231  O41   1.210 .      D
C242  O43   1.219 .      D
C253  O45   1.215 .      D
C264  O47   1.216 .      D
C275  O49   1.219 .      D
C286  O51   1.219 .      D
C297  O53   1.219 .      D
C308  O55   1.219 .      D
C319  O57   1.208 .      D
C330  O59   1.219 .      D
C341  O61   1.213 .      D
C352  O63   1.212 .      D
C363  O65   1.219 .      D
C374  O67   1.216 .      D
C385  O69   1.217 1_565  D
O69   C385  1.217 1_545  D
C396  O71   1.219 .      D
C407  O73   1.214 .      D
C418  O75   1.214 .      D
C429  O77   1.219 .      D
C440  O79   1.215 .      D
C451  O81   1.214 .      D
C462  O83   1.213 .      D
C473  O85   1.211 .      D
C484  O87   1.219 .      D
C495  O89   1.212 .      D
C506  O91   1.208 .      D
C517  O93   1.219 .      D
C528  O95   1.219 1_565  D
O95   C528  1.219 1_545  D
