data_str_m1_o12216_ITG
_audit_creation_date              2015-10-01T06:49:03-0700
_symmetry_space_group_name_H-M    P1
_symmetry_Int_Tables_number       1
_space_group_crystal_system       triclinic
loop_
_symmetry_equiv_pos_as_xyz
  x,y,z
_cell_length_a                    26.8760733
_cell_length_b                    26.4896224
_cell_length_c                    43.7685341
_cell_angle_alpha                 92.3044207
_cell_angle_beta                  89.8273283
_cell_angle_gamma                 91.3744092
_cell_volume                      31126.217806

loop_
_atom_site_label
_atom_site_type_symbol
_atom_site_description
_atom_site_fract_x
_atom_site_fract_y
_atom_site_fract_z
_atom_type_partial_charge
Zn1   Zn    Zn3+2 0.087580 0.700114 0.653523 0.000000
Zn2   Zn    Zn3+2 0.425067 0.714661 0.711508 0.000000
Zn3   Zn    Zn3+2 0.199748 0.333414 0.773664 0.000000
Zn4   Zn    Zn3+2 0.137141 0.532050 0.861519 0.000000
Zn5   Zn    Zn3+2 0.220685 0.710559 0.781513 0.000000
Zn6   Zn    Zn3+2 0.412889 0.105158 0.710233 0.000000
Zn7   Zn    Zn3+2 0.181279 0.846639 0.239406 0.000000
Zn8   Zn    Zn3+2 0.181664 0.598634 0.229934 0.000000
Zn9   Zn    Zn3+2 0.581484 0.831970 0.487060 0.000000
Zn10  Zn    Zn3+2 0.310126 0.835756 0.362297 0.000000
Zn11  Zn    Zn3+2 0.568093 0.909916 0.733001 0.000000
Zn12  Zn    Zn3+2 0.317595 0.917968 0.122587 0.000000
Zn13  Zn    Zn3+2 0.327005 0.539240 0.115315 0.000000
Zn14  Zn    Zn3+2 0.708786 0.842394 0.614587 0.000000
Zn15  Zn    Zn3+2 0.705403 0.590955 0.612008 0.000000
Zn16  Zn    Zn3+2 0.564191 0.521789 0.724859 0.000000
Zn17  Zn    Zn3+2 0.275735 0.317589 0.574543 0.000000
Zn18  Zn    Zn3+2 0.566328 0.584840 0.488917 0.000000
Zn19  Zn    Zn3+2 0.310519 0.590562 0.355718 0.000000
Zn20  Zn    Zn3+2 0.285035 0.088423 0.581664 0.000000
Zn21  Zn    Zn3+2 0.810154 0.336215 0.195275 0.000000
Zn22  Zn    Zn3+2 0.063411 0.318949 0.648382 0.000000
Zn23  Zn    Zn3+2 0.805415 0.726377 0.208451 0.000000
Zn24  Zn    Zn3+2 0.471753 0.736571 0.136034 0.000000
Zn25  Zn    Zn3+2 0.603934 0.721622 0.264687 0.000000
Zn26  Zn    Zn3+2 0.351113 0.888706 0.501223 0.000000
Zn27  Zn    Zn3+2 0.674751 0.711979 0.077026 0.000000
Zn28  Zn    Zn3+2 0.540375 0.538288 0.345470 0.000000
Zn29  Zn    Zn3+2 0.544560 0.906975 0.353031 0.000000
Zn30  Zn    Zn3+2 0.961680 0.912753 0.195365 0.000000
Zn31  Zn    Zn3+2 0.933340 0.883741 0.655255 0.000000
Zn32  Zn    Zn3+2 0.341878 0.511278 0.493898 0.000000
Zn33  Zn    Zn3+2 0.929072 0.519373 0.664502 0.000000
Zn34  Zn    Zn3+2 0.924385 0.594493 0.810553 0.000000
Zn35  Zn    Zn3+2 0.400113 0.338807 0.701145 0.000000
Zn36  Zn    Zn3+2 0.810220 0.101630 0.200468 0.000000
Zn37  Zn    Zn3+2 0.074427 0.082219 0.656618 0.000000
Zn38  Zn    Zn3+2 0.146038 0.903328 0.855595 0.000000
Zn39  Zn    Zn3+2 0.949622 0.537839 0.186070 0.000000
Zn40  Zn    Zn3+2 0.738160 0.533213 0.987140 0.000000
Zn41  Zn    Zn3+2 0.746972 0.904164 0.997200 0.000000
Zn42  Zn    Zn3+2 0.963819 0.855848 0.052860 0.000000
Zn43  Zn    Zn3+2 0.931047 0.839505 0.796769 0.000000
Zn44  Zn    Zn3+2 0.708262 0.843226 0.849959 0.000000
Zn45  Zn    Zn3+2 0.955615 0.611091 0.044379 0.000000
Zn46  Zn    Zn3+2 0.296207 0.702278 0.584776 0.000000
Zn47  Zn    Zn3+2 0.187169 0.843882 0.001537 0.000000
Zn48  Zn    Zn3+2 0.592370 0.339031 0.263253 0.000000
Zn49  Zn    Zn3+2 0.587320 0.102256 0.266811 0.000000
Zn50  Zn    Zn3+2 0.690073 0.343967 0.069146 0.000000
Zn51  Zn    Zn3+2 0.688868 0.109281 0.071126 0.000000
Zn52  Zn    Zn3+2 0.204851 0.095001 0.782409 0.000000
Zn53  Zn    Zn3+2 0.476975 0.352563 0.134911 0.000000
Zn54  Zn    Zn3+2 0.180598 0.599549 0.000361 0.000000
Zn55  Zn    Zn3+2 0.695960 0.594161 0.846559 0.000000
Zn56  Zn    Zn3+2 0.470269 0.112111 0.135876 0.000000
C1    C     C_3   0.372711 0.900837 0.667044 0.000000
C2    C     C_R   0.359631 0.848268 0.657707 0.000000
C3    C     C_R   0.320204 0.838817 0.638556 0.000000
C4    C     C_R   0.307482 0.790883 0.628074 0.000000
C5    C     C_R   0.334160 0.752238 0.638944 0.000000
N1    N     N_R   0.338433 0.705311 0.626330 0.000000
C6    C     C_R   0.373496 0.685543 0.646267 0.000000
N2    N     N_R   0.389398 0.719035 0.669134 0.000000
C7    C     C_R   0.368513 0.761483 0.661154 0.000000
C8    C     C_R   0.386770 0.809034 0.667138 0.000000
S1    S     S_3+2 0.412300 0.632882 0.639754 0.000000
O1    O     O_2   0.417297 0.608211 0.607754 0.000000
O2    O     O_2   0.401780 0.589139 0.660445 0.000000
O3    O     O_3   0.471292 0.648436 0.650008 0.000000
H1    H     H_    0.375841 0.922799 0.646133 0.000000
H2    H     H_    0.407835 0.902353 0.680151 0.000000
H3    H     H_    0.342516 0.915772 0.681822 0.000000
H4    H     H_    0.301717 0.869777 0.630117 0.000000
H5    H     H_    0.280555 0.786048 0.610236 0.000000
H6    H     H_    0.423988 0.815228 0.675029 0.000000
H7    H     H_    0.469889 0.684847 0.655388 0.000000
C9    C     C_3   0.358264 0.283525 0.852021 0.000000
C10   C     C_R   0.356726 0.294938 0.819109 0.000000
C11   C     C_R   0.400273 0.297356 0.801926 0.000000
C12   C     C_R   0.399237 0.313484 0.772263 0.000000
C13   C     C_R   0.354432 0.328016 0.760967 0.000000
N3    N     N_R   0.345829 0.349997 0.734394 0.000000
C14   C     C_R   0.296859 0.364747 0.737924 0.000000
N4    N     N_R   0.273983 0.343997 0.762771 0.000000
C15   C     C_R   0.311996 0.324283 0.777560 0.000000
C16   C     C_R   0.311741 0.306473 0.806298 0.000000
S2    S     S_3+2 0.280890 0.428761 0.733288 0.000000
O4    O     O_2   0.325428 0.465008 0.728936 0.000000
O5    O     O_2   0.264565 0.447496 0.765247 0.000000
O6    O     O_3   0.233631 0.447659 0.710484 0.000000
H8    H     H_    0.394396 0.267138 0.857860 0.000000
H9    H     H_    0.327160 0.256976 0.857100 0.000000
H10   H     H_    0.353576 0.318959 0.865937 0.000000
H11   H     H_    0.435527 0.288543 0.811994 0.000000
H12   H     H_    0.433331 0.318381 0.759622 0.000000
H13   H     H_    0.278007 0.304701 0.819095 0.000000
H14   H     H_    0.247749 0.477125 0.699940 0.000000
C17   C     C_3   0.093883 0.462239 0.717469 0.000000
C18   C     C_R   0.102704 0.461239 0.750117 0.000000
C19   C     C_R   0.084245 0.498220 0.769617 0.000000
C20   C     C_R   0.102560 0.502693 0.798721 0.000000
C21   C     C_R   0.131212 0.465044 0.809017 0.000000
N5    N     N_R   0.155831 0.466052 0.835433 0.000000
C22   C     C_R   0.185076 0.423225 0.831552 0.000000
N6    N     N_R   0.178348 0.396705 0.803410 0.000000
C23   C     C_R   0.145669 0.426377 0.790190 0.000000
C24   C     C_R   0.137229 0.428654 0.759900 0.000000
S3    S     S_3+2 0.234452 0.411613 0.857866 0.000000
O7    O     O_2   0.219156 0.429415 0.890237 0.000000
O8    O     O_2   0.279840 0.446342 0.852414 0.000000
O9    O     O_3   0.259595 0.354248 0.863417 0.000000
H15   H     H_    0.071293 0.495361 0.713017 0.000000
H16   H     H_    0.074562 0.426904 0.709297 0.000000
H17   H     H_    0.130933 0.465028 0.706615 0.000000
H18   H     H_    0.061436 0.527609 0.761241 0.000000
H19   H     H_    0.099200 0.537534 0.811210 0.000000
H20   H     H_    0.162217 0.412150 0.743783 0.000000
H21   H     H_    0.272255 0.356938 0.884645 0.000000
C25   C     C_3   0.243597 0.775312 0.896446 0.000000
C26   C     C_R   0.226223 0.724697 0.884786 0.000000
C27   C     C_R   0.198999 0.692785 0.902776 0.000000
C28   C     C_R   0.182385 0.646434 0.890935 0.000000
C29   C     C_R   0.188424 0.635055 0.860236 0.000000
N7    N     N_R   0.174435 0.593289 0.843232 0.000000
C30   C     C_R   0.190521 0.605397 0.814338 0.000000
N8    N     N_R   0.205024 0.655517 0.812634 0.000000
C31   C     C_R   0.207366 0.670595 0.842231 0.000000
C32   C     C_R   0.232676 0.711684 0.854564 0.000000
S4    S     S_3+2 0.223158 0.559204 0.791587 0.000000
O10   O     O_2   0.249876 0.522464 0.811737 0.000000
O11   O     O_2   0.268056 0.583487 0.775637 0.000000
O12   O     O_3   0.195123 0.522270 0.763540 0.000000
H22   H     H_    0.228241 0.804171 0.881913 0.000000
H23   H     H_    0.284739 0.777870 0.895627 0.000000
H24   H     H_    0.229181 0.782845 0.919741 0.000000
H25   H     H_    0.190140 0.703972 0.925983 0.000000
H26   H     H_    0.160571 0.623688 0.905161 0.000000
H27   H     H_    0.259625 0.731285 0.841612 0.000000
H28   H     H_    0.219037 0.522705 0.746415 0.000000
C33   C     C_3   0.369577 0.620053 0.856243 0.000000
C34   C     C_R   0.371543 0.642392 0.825601 0.000000
C35   C     C_R   0.416674 0.646240 0.810496 0.000000
C36   C     C_R   0.419083 0.666487 0.782011 0.000000
C37   C     C_R   0.375900 0.682681 0.769329 0.000000
N9    N     N_R   0.370442 0.702934 0.742025 0.000000
C38   C     C_R   0.320576 0.711833 0.741017 0.000000
N10   N     N_R   0.294588 0.699096 0.766931 0.000000
C39   C     C_R   0.331239 0.679535 0.783996 0.000000
C40   C     C_R   0.328517 0.658885 0.812308 0.000000
S5    S     S_3+2 0.292209 0.736844 0.708969 0.000000
O13   O     O_2   0.289969 0.794084 0.705871 0.000000
O14   O     O_2   0.265334 0.749066 0.738789 0.000000
O15   O     O_3   0.235568 0.714870 0.698731 0.000000
H29   H     H_    0.383326 0.580922 0.854357 0.000000
H30   H     H_    0.330901 0.619470 0.865128 0.000000
H31   H     H_    0.393525 0.642959 0.872351 0.000000
H32   H     H_    0.450086 0.632920 0.820855 0.000000
H33   H     H_    0.454364 0.670239 0.770633 0.000000
H34   H     H_    0.294269 0.653268 0.823705 0.000000
H35   H     H_    0.234388 0.683236 0.709664 0.000000
C41   C     C_3   0.195402 0.853894 0.662846 0.000000
C42   C     C_R   0.176781 0.824523 0.687122 0.000000
C43   C     C_R   0.193091 0.837404 0.715750 0.000000
C44   C     C_R   0.185328 0.804785 0.738474 0.000000
C45   C     C_R   0.160586 0.759974 0.731489 0.000000
N11   N     N_R   0.166854 0.715583 0.744816 0.000000
C46   C     C_R   0.141469 0.682640 0.724493 0.000000
N12   N     N_R   0.122346 0.705023 0.698551 0.000000
C47   C     C_R   0.137387 0.752601 0.703872 0.000000
C48   C     C_R   0.145725 0.784468 0.681082 0.000000
S6    S     S_3+2 0.149078 0.617008 0.727615 0.000000
O16   O     O_2   0.132176 0.599458 0.758732 0.000000
O17   O     O_2   0.204615 0.605646 0.728317 0.000000
O18   O     O_3   0.124854 0.573409 0.702031 0.000000
H36   H     H_    0.185884 0.892683 0.670359 0.000000
H37   H     H_    0.178878 0.841408 0.640568 0.000000
H38   H     H_    0.235746 0.849615 0.662619 0.000000
H39   H     H_    0.217597 0.869867 0.719124 0.000000
H40   H     H_    0.205475 0.812571 0.758805 0.000000
H41   H     H_    0.131129 0.777361 0.658638 0.000000
H42   H     H_    0.150947 0.547791 0.701151 0.000000
C49   C     C_3   0.615199 0.289309 0.714509 0.000000
C50   C     C_R   0.568105 0.259242 0.713317 0.000000
C51   C     C_R   0.570216 0.206828 0.713498 0.000000
C52   C     C_R   0.527172 0.177261 0.712837 0.000000
C53   C     C_R   0.482855 0.201650 0.712469 0.000000
N13   N     N_R   0.436862 0.180603 0.712274 0.000000
C54   C     C_R   0.407792 0.222682 0.711990 0.000000
N14   N     N_R   0.432914 0.268156 0.709952 0.000000
C55   C     C_R   0.480624 0.253460 0.711624 0.000000
C56   C     C_R   0.522935 0.283283 0.711866 0.000000
S7    S     S_3+2 0.343509 0.219917 0.711627 0.000000
O19   O     O_2   0.325095 0.176708 0.690311 0.000000
O20   O     O_2   0.327867 0.265708 0.694244 0.000000
O21   O     O_3   0.306252 0.219184 0.743384 0.000000
H43   H     H_    0.635210 0.282065 0.735947 0.000000
H44   H     H_    0.607259 0.330083 0.713722 0.000000
H45   H     H_    0.638501 0.277452 0.694712 0.000000
H46   H     H_    0.605922 0.189003 0.714274 0.000000
H47   H     H_    0.528614 0.136580 0.712862 0.000000
H48   H     H_    0.520906 0.323868 0.711462 0.000000
H49   H     H_    0.328777 0.228097 0.760551 0.000000
C57   C     C_3   0.351661 0.145763 0.866051 0.000000
C58   C     C_R   0.347750 0.147319 0.832145 0.000000
C59   C     C_R   0.385324 0.170300 0.815482 0.000000
C60   C     C_R   0.387976 0.162532 0.784048 0.000000
C61   C     C_R   0.352440 0.131389 0.770169 0.000000
N15   N     N_R   0.354144 0.105945 0.742773 0.000000
C62   C     C_R   0.313941 0.073211 0.744904 0.000000
N16   N     N_R   0.281898 0.085628 0.769141 0.000000
C63   C     C_R   0.310973 0.117410 0.785924 0.000000
C64   C     C_R   0.308843 0.122325 0.817030 0.000000
S8    S     S_3+2 0.334194 0.010321 0.741101 0.000000
O22   O     O_2   0.294537 0.968645 0.736890 0.000000
O23   O     O_2   0.355328 0.999525 0.772485 0.000000
O24   O     O_3   0.382253 0.994484 0.717217 0.000000
H50   H     H_    0.385571 0.125189 0.871902 0.000000
H51   H     H_    0.318695 0.125844 0.875522 0.000000
H52   H     H_    0.354382 0.184353 0.876540 0.000000
H53   H     H_    0.414583 0.191628 0.827323 0.000000
H54   H     H_    0.417337 0.180287 0.771379 0.000000
H55   H     H_    0.281438 0.100328 0.829016 0.000000
H56   H     H_    0.380602 0.018604 0.700699 0.000000
C65   C     C_3   0.147547 0.777794 0.127067 0.000000
C66   C     C_R   0.143181 0.751244 0.155512 0.000000
C67   C     C_R   0.134904 0.699795 0.154290 0.000000
C68   C     C_R   0.142739 0.672135 0.179777 0.000000
C69   C     C_R   0.159262 0.698135 0.205369 0.000000
N17   N     N_R   0.177902 0.678796 0.230609 0.000000
C70   C     C_R   0.185831 0.722481 0.248995 0.000000
N18   N     N_R   0.177652 0.767081 0.234216 0.000000
C71   C     C_R   0.160052 0.749448 0.207323 0.000000
C72   C     C_R   0.151380 0.777421 0.182760 0.000000
S9    S     S_3+2 0.193225 0.722131 0.289707 0.000000
O25   O     O_2   0.200913 0.670041 0.302013 0.000000
O26   O     O_2   0.145400 0.736262 0.306860 0.000000
O27   O     O_3   0.238103 0.759164 0.306989 0.000000
H57   H     H_    0.181331 0.765981 0.114522 0.000000
H58   H     H_    0.148764 0.818272 0.132939 0.000000
H59   H     H_    0.115144 0.768580 0.112999 0.000000
H60   H     H_    0.126780 0.681044 0.132553 0.000000
H61   H     H_    0.141461 0.631502 0.178322 0.000000
H62   H     H_    0.156136 0.817935 0.184099 0.000000
H63   H     H_    0.223263 0.766664 0.327236 0.000000
C73   C     C_3   0.108751 0.897798 0.394201 0.000000
C74   C     C_R   0.134059 0.887755 0.364359 0.000000
C75   C     C_R   0.109139 0.896332 0.337512 0.000000
C76   C     C_R   0.132698 0.889189 0.309694 0.000000
C77   C     C_R   0.180044 0.870877 0.309199 0.000000
N19   N     N_R   0.209628 0.864589 0.284569 0.000000
C78   C     C_R   0.256507 0.865036 0.297955 0.000000
N20   N     N_R   0.255232 0.859547 0.329564 0.000000
C79   C     C_R   0.206249 0.866378 0.335614 0.000000
C80   C     C_R   0.183262 0.873568 0.363505 0.000000
S10   S     S_3+2 0.297834 0.913587 0.285342 0.000000
O28   O     O_2   0.268198 0.961727 0.282227 0.000000
O29   O     O_2   0.319355 0.905757 0.252993 0.000000
O30   O     O_3   0.344876 0.934974 0.308870 0.000000
H64   H     H_    0.096956 0.937650 0.395728 0.000000
H65   H     H_    0.134292 0.891215 0.413404 0.000000
H66   H     H_    0.075577 0.872336 0.395840 0.000000
H67   H     H_    0.071765 0.910522 0.338355 0.000000
H68   H     H_    0.115480 0.901570 0.289307 0.000000
H69   H     H_    0.203194 0.871560 0.384388 0.000000
H70   H     H_    0.327732 0.945950 0.327968 0.000000
C81   C     C_3   0.118385 0.501244 0.378140 0.000000
C82   C     C_R   0.140898 0.522124 0.350089 0.000000
C83   C     C_R   0.112675 0.522675 0.323522 0.000000
C84   C     C_R   0.132813 0.541203 0.296974 0.000000
C85   C     C_R   0.180804 0.559563 0.297865 0.000000
N21   N     N_R   0.207166 0.578453 0.274557 0.000000
C86   C     C_R   0.253688 0.585750 0.287815 0.000000
N22   N     N_R   0.256130 0.576126 0.319057 0.000000
C87   C     C_R   0.209203 0.558550 0.323973 0.000000
C88   C     C_R   0.189879 0.539841 0.350400 0.000000
S11   S     S_3+2 0.305156 0.594049 0.263248 0.000000
O31   O     O_2   0.292582 0.627179 0.236596 0.000000
O32   O     O_2   0.312359 0.543408 0.245896 0.000000
O33   O     O_3   0.363956 0.610160 0.274104 0.000000
H71   H     H_    0.085286 0.523319 0.384871 0.000000
H72   H     H_    0.145660 0.503479 0.397106 0.000000
H73   H     H_    0.106961 0.461186 0.373450 0.000000
H74   H     H_    0.074865 0.507791 0.323450 0.000000
H75   H     H_    0.112167 0.539561 0.275961 0.000000
H76   H     H_    0.212420 0.537625 0.370526 0.000000
H77   H     H_    0.382115 0.579520 0.267679 0.000000
C89   C     C_3   0.485951 0.689221 0.587357 0.000000
C90   C     C_R   0.525044 0.704319 0.566260 0.000000
C91   C     C_R   0.533871 0.755462 0.564743 0.000000
C92   C     C_R   0.553290 0.774519 0.539120 0.000000
C93   C     C_R   0.563551 0.741130 0.515710 0.000000
N23   N     N_R   0.576967 0.754075 0.487999 0.000000
C94   C     C_R   0.582593 0.707457 0.473150 0.000000
N24   N     N_R   0.569012 0.666151 0.490536 0.000000
C95   C     C_R   0.559938 0.690085 0.517813 0.000000
C96   C     C_R   0.542395 0.670011 0.544141 0.000000
S12   S     S_3+2 0.611809 0.703505 0.436750 0.000000
O34   O     O_2   0.623134 0.756539 0.425312 0.000000
O35   O     O_2   0.575307 0.683199 0.412474 0.000000
O36   O     O_3   0.666113 0.672794 0.430227 0.000000
H78   H     H_    0.484275 0.715605 0.607202 0.000000
H79   H     H_    0.492886 0.650735 0.593893 0.000000
H80   H     H_    0.450061 0.692419 0.575815 0.000000
H81   H     H_    0.518673 0.781490 0.581344 0.000000
H82   H     H_    0.554396 0.814662 0.536953 0.000000
H83   H     H_    0.535262 0.629859 0.545410 0.000000
H84   H     H_    0.690898 0.700238 0.426746 0.000000
C97   C     C_3   0.134539 0.752919 0.419391 0.000000
C98   C     C_R   0.178420 0.728439 0.404897 0.000000
C99   C     C_R   0.181968 0.676285 0.404937 0.000000
C100  C     C_R   0.223044 0.652972 0.392343 0.000000
C101  C     C_R   0.259432 0.682717 0.379753 0.000000
N25   N     N_R   0.301069 0.667186 0.365775 0.000000
C102  C     C_R   0.322918 0.712312 0.357769 0.000000
N26   N     N_R   0.297714 0.755220 0.366894 0.000000
C103  C     C_R   0.256766 0.734095 0.379970 0.000000
C104  C     C_R   0.216066 0.757626 0.392280 0.000000
S13   S     S_3+2 0.361071 0.713081 0.326534 0.000000
O37   O     O_2   0.389279 0.664368 0.320918 0.000000
O38   O     O_2   0.402523 0.752867 0.330021 0.000000
O39   O     O_3   0.330314 0.723129 0.293767 0.000000
H85   H     H_    0.132125 0.742847 0.443707 0.000000
H86   H     H_    0.138077 0.794534 0.418141 0.000000
H87   H     H_    0.100240 0.739427 0.407300 0.000000
H88   H     H_    0.152848 0.653814 0.415266 0.000000
H89   H     H_    0.226915 0.612836 0.393216 0.000000
H90   H     H_    0.215574 0.797589 0.394260 0.000000
H91   H     H_    0.305956 0.694636 0.291990 0.000000
C105  C     C_3   0.507221 0.132288 0.823111 0.000000
C106  C     C_R   0.504874 0.088200 0.801019 0.000000
C107  C     C_R   0.522825 0.042330 0.809635 0.000000
C108  C     C_R   0.528292 0.003222 0.788174 0.000000
C109  C     C_R   0.515595 0.011171 0.758383 0.000000
N27   N     N_R   0.522757 0.980445 0.733373 0.000000
C110  C     C_R   0.494749 0.005629 0.711741 0.000000
N28   N     N_R   0.471275 0.049857 0.722671 0.000000
C111  C     C_R   0.488564 0.052569 0.751603 0.000000
C112  C     C_R   0.485895 0.092860 0.771911 0.000000
S14   S     S_3+2 0.490070 0.982742 0.673049 0.000000
O40   O     O_2   0.500918 0.926105 0.670035 0.000000
O41   O     O_2   0.531205 0.005248 0.653000 0.000000
O42   O     O_3   0.436361 0.991059 0.653208 0.000000
H92   H     H_    0.482165 0.125155 0.842724 0.000000
H93   H     H_    0.496162 0.166916 0.811770 0.000000
H94   H     H_    0.545962 0.137774 0.831477 0.000000
H95   H     H_    0.535268 0.037977 0.832823 0.000000
H96   H     H_    0.542146 0.967589 0.794941 0.000000
H97   H     H_    0.474028 0.128170 0.764043 0.000000
H98   H     H_    0.447522 0.997378 0.632117 0.000000
C113  C     C_3   0.315353 0.868218 0.756507 0.000000
C114  C     C_R   0.369440 0.866841 0.751666 0.000000
C115  C     C_R   0.402119 0.901028 0.765840 0.000000
C116  C     C_R   0.451598 0.901448 0.757719 0.000000
C117  C     C_R   0.467626 0.865844 0.736710 0.000000
N29   N     N_R   0.514739 0.851453 0.734446 0.000000
C118  C     C_R   0.507951 0.799507 0.734552 0.000000
N30   N     N_R   0.462239 0.784249 0.723112 0.000000
C119  C     C_R   0.436903 0.826232 0.729288 0.000000
C120  C     C_R   0.388054 0.826953 0.735309 0.000000
S15   S     S_3+2 0.512408 0.776202 0.771994 0.000000
O43   O     O_2   0.537754 0.813928 0.794762 0.000000
O44   O     O_2   0.540534 0.727023 0.775041 0.000000
O45   O     O_3   0.456084 0.766196 0.789379 0.000000
H99   H     H_    0.301045 0.830082 0.760753 0.000000
H100  H     H_    0.297903 0.879510 0.735173 0.000000
H101  H     H_    0.306645 0.894210 0.775808 0.000000
H102  H     H_    0.390181 0.924543 0.784840 0.000000
H103  H     H_    0.477788 0.922454 0.771664 0.000000
H104  H     H_    0.366545 0.794563 0.729809 0.000000
H105  H     H_    0.449350 0.798583 0.800506 0.000000
C121  C     C_3   0.647341 0.087129 0.682104 0.000000
C122  C     C_R   0.651061 0.033301 0.671437 0.000000
C123  C     C_R   0.685461 0.019055 0.649240 0.000000
C124  C     C_R   0.691010 0.968602 0.640882 0.000000
C125  C     C_R   0.659183 0.933146 0.652724 0.000000
N31   N     N_R   0.664598 0.882298 0.650950 0.000000
C126  C     C_R   0.636355 0.868575 0.676210 0.000000
N32   N     N_R   0.610371 0.906946 0.690806 0.000000
C127  C     C_R   0.626978 0.947335 0.675857 0.000000
C128  C     C_R   0.623091 0.996904 0.685825 0.000000
S16   S     S_3+2 0.658302 0.825462 0.700777 0.000000
O46   O     O_2   0.684260 0.780007 0.685953 0.000000
O47   O     O_2   0.613676 0.803027 0.717563 0.000000
O48   O     O_3   0.696143 0.851109 0.728968 0.000000
H106  H     H_    0.671627 0.111583 0.668134 0.000000
H107  H     H_    0.658866 0.091202 0.706402 0.000000
H108  H     H_    0.608252 0.098963 0.680146 0.000000
H109  H     H_    0.710909 0.046853 0.640093 0.000000
H110  H     H_    0.724393 0.957239 0.629659 0.000000
H111  H     H_    0.600111 0.007510 0.705011 0.000000
H112  H     H_    0.690044 0.887797 0.729180 0.000000
C129  C     C_3   0.282721 0.079984 0.216357 0.000000
C130  C     C_R   0.261797 0.028038 0.211487 0.000000
C131  C     C_R   0.224328 0.011451 0.230629 0.000000
C132  C     C_R   0.210185 0.961074 0.229687 0.000000
C133  C     C_R   0.230865 0.930197 0.207574 0.000000
N33   N     N_R   0.225626 0.880001 0.205286 0.000000
C134  C     C_R   0.254125 0.868428 0.179511 0.000000
N34   N     N_R   0.274770 0.910041 0.165099 0.000000
C135  C     C_R   0.261587 0.947880 0.185281 0.000000
C136  C     C_R   0.281526 0.995837 0.189177 0.000000
S17   S     S_3+2 0.275204 0.806433 0.172627 0.000000
O49   O     O_2   0.331796 0.805719 0.171013 0.000000
O50   O     O_2   0.259892 0.780794 0.142039 0.000000
O51   O     O_3   0.261817 0.765108 0.200381 0.000000
H113  H     H_    0.253275 0.107695 0.212665 0.000000
H114  H     H_    0.313943 0.086662 0.200348 0.000000
H115  H     H_    0.296549 0.084375 0.240148 0.000000
H116  H     H_    0.209425 0.036832 0.248119 0.000000
H117  H     H_    0.184558 0.946276 0.246354 0.000000
H118  H     H_    0.314880 0.006863 0.177915 0.000000
H119  H     H_    0.267856 0.785406 0.219563 0.000000
C137  C     C_3   0.204444 0.091624 0.132054 0.000000
C138  C     C_R   0.259144 0.084345 0.131388 0.000000
C139  C     C_R   0.291306 0.125068 0.137949 0.000000
C140  C     C_R   0.342392 0.119293 0.137497 0.000000
C141  C     C_R   0.360934 0.072505 0.130078 0.000000
N35   N     N_R   0.409099 0.058288 0.126740 0.000000
C142  C     C_R   0.402212 0.006188 0.120354 0.000000
N36   N     N_R   0.353445 0.989226 0.122596 0.000000
C143  C     C_R   0.328746 0.032296 0.125705 0.000000
C144  C     C_R   0.278015 0.036994 0.125159 0.000000
S18   S     S_3+2 0.443891 0.966649 0.098649 0.000000
O52   O     O_2   0.475058 0.992418 0.073991 0.000000
O53   O     O_2   0.412635 0.930000 0.078468 0.000000
O54   O     O_3   0.479277 0.923602 0.115282 0.000000
H120  H     H_    0.193290 0.105883 0.155180 0.000000
H121  H     H_    0.184432 0.055299 0.126609 0.000000
H122  H     H_    0.194551 0.119467 0.114956 0.000000
H123  H     H_    0.276373 0.161895 0.143338 0.000000
H124  H     H_    0.366187 0.151395 0.142360 0.000000
H125  H     H_    0.253958 0.004266 0.120818 0.000000
H126  H     H_    0.485280 0.898123 0.098677 0.000000
C145  C     C_3   0.205299 0.398552 0.233952 0.000000
C146  C     C_R   0.229028 0.435651 0.213461 0.000000
C147  C     C_R   0.256733 0.418281 0.188528 0.000000
C148  C     C_R   0.277308 0.451637 0.168215 0.000000
C149  C     C_R   0.270838 0.502510 0.173889 0.000000
N37   N     N_R   0.283553 0.540874 0.155796 0.000000
C150  C     C_R   0.259468 0.580768 0.169914 0.000000
N38   N     N_R   0.234514 0.569490 0.196989 0.000000
C151  C     C_R   0.243512 0.519641 0.198532 0.000000
C152  C     C_R   0.221967 0.486903 0.218576 0.000000
S19   S     S_3+2 0.249577 0.634030 0.148329 0.000000
O55   O     O_2   0.243443 0.683159 0.167114 0.000000
O56   O     O_2   0.200674 0.627258 0.130630 0.000000
O57   O     O_3   0.291001 0.648199 0.120621 0.000000
H127  H     H_    0.185320 0.418478 0.252882 0.000000
H128  H     H_    0.234302 0.374795 0.243613 0.000000
H129  H     H_    0.178510 0.374078 0.220604 0.000000
H130  H     H_    0.261418 0.378140 0.184549 0.000000
H131  H     H_    0.297355 0.437402 0.148555 0.000000
H132  H     H_    0.198146 0.500584 0.236785 0.000000
H133  H     H_    0.271263 0.669798 0.107549 0.000000
C153  C     C_3   0.359862 0.427340 0.002683 0.000000
C154  C     C_R   0.377790 0.420824 0.034390 0.000000
C155  C     C_R   0.413855 0.385656 0.039605 0.000000
C156  C     C_R   0.430843 0.379209 0.068892 0.000000
C157  C     C_R   0.410164 0.406775 0.092525 0.000000
N39   N     N_R   0.422932 0.405959 0.122225 0.000000
C158  C     C_R   0.397564 0.447351 0.134379 0.000000
N40   N     N_R   0.368107 0.471299 0.113375 0.000000
C159  C     C_R   0.376969 0.443654 0.087401 0.000000
C160  C     C_R   0.359762 0.450845 0.058352 0.000000
S20   S     S_3+2 0.413196 0.475901 0.170918 0.000000
O58   O     O_2   0.446618 0.441653 0.188233 0.000000
O59   O     O_2   0.370189 0.479858 0.193797 0.000000
O60   O     O_3   0.445955 0.532203 0.172572 0.000000
H134  H     H_    0.391656 0.438664 0.988066 0.000000
H135  H     H_    0.331242 0.456787 0.002475 0.000000
H136  H     H_    0.343373 0.391073 0.993531 0.000000
H137  H     H_    0.429032 0.363448 0.020689 0.000000
H138  H     H_    0.459604 0.353485 0.073269 0.000000
H139  H     H_    0.334193 0.479933 0.053821 0.000000
H140  H     H_    0.468915 0.529492 0.190039 0.000000
C161  C     C_3   0.542006 0.787989 0.641818 0.000000
C162  C     C_R   0.579981 0.754020 0.628038 0.000000
C163  C     C_R   0.576409 0.701425 0.627872 0.000000
C164  C     C_R   0.615956 0.671332 0.620519 0.000000
C165  C     C_R   0.659891 0.694765 0.616887 0.000000
N41   N     N_R   0.704558 0.673350 0.616131 0.000000
C166  C     C_R   0.734908 0.716802 0.615344 0.000000
N42   N     N_R   0.709651 0.762500 0.616271 0.000000
C167  C     C_R   0.663122 0.745953 0.617011 0.000000
C168  C     C_R   0.623406 0.776144 0.619597 0.000000
S21   S     S_3+2 0.800230 0.713983 0.611503 0.000000
O61   O     O_2   0.821912 0.673790 0.631515 0.000000
O62   O     O_2   0.825227 0.762538 0.624524 0.000000
O63   O     O_3   0.826960 0.705377 0.576489 0.000000
H141  H     H_    0.538093 0.821007 0.627391 0.000000
H142  H     H_    0.555158 0.803032 0.664371 0.000000
H143  H     H_    0.506118 0.767844 0.645031 0.000000
H144  H     H_    0.544544 0.683198 0.636370 0.000000
H145  H     H_    0.615040 0.631424 0.621868 0.000000
H146  H     H_    0.626572 0.816341 0.618481 0.000000
H147  H     H_    0.826115 0.739540 0.568254 0.000000
C169  C     C_3   0.743374 0.029366 0.559138 0.000000
C170  C     C_R   0.710387 0.985560 0.549826 0.000000
C171  C     C_R   0.686017 0.985139 0.522106 0.000000
C172  C     C_R   0.659648 0.942552 0.511705 0.000000
C173  C     C_R   0.653144 0.902645 0.530677 0.000000
N43   N     N_R   0.634931 0.855650 0.523185 0.000000
C174  C     C_R   0.654337 0.828025 0.546799 0.000000
N44   N     N_R   0.676776 0.857340 0.570294 0.000000
C175  C     C_R   0.677227 0.903475 0.558328 0.000000
C176  C     C_R   0.707895 0.943353 0.567240 0.000000
S22   S     S_3+2 0.678717 0.767183 0.537325 0.000000
O64   O     O_2   0.651662 0.722367 0.551633 0.000000
O65   O     O_2   0.731391 0.762833 0.550135 0.000000
O66   O     O_3   0.685349 0.751388 0.499206 0.000000
H148  H     H_    0.772809 0.034267 0.541627 0.000000
H149  H     H_    0.760929 0.023004 0.581507 0.000000
H150  H     H_    0.721039 0.064007 0.561132 0.000000
H151  H     H_    0.691298 0.016506 0.507289 0.000000
H152  H     H_    0.650037 0.939842 0.488098 0.000000
H153  H     H_    0.734479 0.938991 0.584828 0.000000
H154  H     H_    0.717763 0.766913 0.493519 0.000000
C177  C     C_3   0.704611 0.367225 0.686004 0.000000
C178  C     C_R   0.695045 0.418516 0.675346 0.000000
C179  C     C_R   0.710819 0.430190 0.646158 0.000000
C180  C     C_R   0.705865 0.478425 0.636037 0.000000
C181  C     C_R   0.678785 0.511656 0.653830 0.000000
N45   N     N_R   0.657867 0.552877 0.643452 0.000000
C182  C     C_R   0.614358 0.554226 0.660873 0.000000
N46   N     N_R   0.616029 0.524742 0.686489 0.000000
C183  C     C_R   0.657098 0.497485 0.680488 0.000000
C184  C     C_R   0.671931 0.454656 0.694166 0.000000
S23   S     S_3+2 0.555148 0.554118 0.641476 0.000000
O67   O     O_2   0.510453 0.562926 0.662411 0.000000
O68   O     O_2   0.542871 0.499292 0.631599 0.000000
O69   O     O_3   0.543729 0.583638 0.608322 0.000000
H155  H     H_    0.685675 0.339091 0.670355 0.000000
H156  H     H_    0.690753 0.363369 0.709621 0.000000
H157  H     H_    0.745140 0.360667 0.685317 0.000000
H158  H     H_    0.729129 0.402067 0.631843 0.000000
H159  H     H_    0.717649 0.487515 0.613249 0.000000
H160  H     H_    0.657541 0.445340 0.716367 0.000000
H161  H     H_    0.513257 0.566282 0.600190 0.000000
C185  C     C_3   0.938250 0.547101 0.538519 0.000000
C186  C     C_R   0.895685 0.548924 0.560303 0.000000
C187  C     C_R   0.847627 0.551802 0.549071 0.000000
C188  C     C_R   0.807525 0.555842 0.568817 0.000000
C189  C     C_R   0.816539 0.559199 0.599575 0.000000
N47   N     N_R   0.782509 0.563296 0.622329 0.000000
C190  C     C_R   0.812125 0.549290 0.647332 0.000000
N48   N     N_R   0.862130 0.541707 0.640626 0.000000
C191  C     C_R   0.863067 0.549216 0.610442 0.000000
C192  C     C_R   0.903529 0.545525 0.591410 0.000000
S24   S     S_3+2 0.789680 0.527064 0.682955 0.000000
O70   O     O_2   0.747490 0.555258 0.699265 0.000000
O71   O     O_2   0.831322 0.535671 0.706088 0.000000
O72   O     O_3   0.781499 0.464306 0.687794 0.000000
H162  H     H_    0.934697 0.512523 0.523470 0.000000
H163  H     H_    0.973930 0.546938 0.551108 0.000000
H164  H     H_    0.937895 0.580918 0.524389 0.000000
H165  H     H_    0.841389 0.550548 0.524662 0.000000
H166  H     H_    0.770174 0.552937 0.560285 0.000000
H167  H     H_    0.940059 0.539965 0.600526 0.000000
H168  H     H_    0.789592 0.460923 0.709590 0.000000
C193  C     C_3   0.675183 0.668649 0.693700 0.000000
C194  C     C_R   0.620968 0.666967 0.699962 0.000000
C195  C     C_R   0.592192 0.706926 0.693525 0.000000
C196  C     C_R   0.541919 0.706437 0.698826 0.000000
C197  C     C_R   0.521160 0.664826 0.710760 0.000000
N49   N     N_R   0.472747 0.654631 0.714722 0.000000
C198  C     C_R   0.473232 0.604173 0.722041 0.000000
N50   N     N_R   0.520613 0.584393 0.722475 0.000000
C199  C     C_R   0.548827 0.624514 0.715906 0.000000
C200  C     C_R   0.598748 0.625208 0.711651 0.000000
S25   S     S_3+2 0.417538 0.567105 0.727450 0.000000
O73   O     O_2   0.370705 0.596612 0.720485 0.000000
O74   O     O_2   0.408657 0.554729 0.760989 0.000000
O75   O     O_3   0.410235 0.511056 0.706885 0.000000
H169  H     H_    0.683331 0.689720 0.673269 0.000000
H170  H     H_    0.689111 0.630013 0.689710 0.000000
H171  H     H_    0.694202 0.688603 0.713142 0.000000
H172  H     H_    0.608473 0.736834 0.681522 0.000000
H173  H     H_    0.519044 0.735108 0.690547 0.000000
H174  H     H_    0.620517 0.594599 0.718250 0.000000
H175  H     H_    0.434834 0.513126 0.690108 0.000000
C201  C     C_3   0.588084 0.353876 0.798329 0.000000
C202  C     C_R   0.594362 0.409004 0.805899 0.000000
C203  C     C_R   0.611268 0.425465 0.834695 0.000000
C204  C     C_R   0.624107 0.475734 0.840737 0.000000
C205  C     C_R   0.619594 0.508861 0.817687 0.000000
N51   N     N_R   0.639040 0.556434 0.816642 0.000000
C206  C     C_R   0.625342 0.568801 0.787403 0.000000
N52   N     N_R   0.599755 0.530794 0.770015 0.000000
C207  C     C_R   0.598345 0.493395 0.790058 0.000000
C208  C     C_R   0.586331 0.443432 0.783520 0.000000
S26   S     S_3+2 0.655171 0.621539 0.772438 0.000000
O76   O     O_2   0.685634 0.642612 0.799018 0.000000
O77   O     O_2   0.623576 0.667813 0.767424 0.000000
O78   O     O_3   0.700555 0.615198 0.745246 0.000000
H176  H     H_    0.596506 0.331706 0.818543 0.000000
H177  H     H_    0.614112 0.343270 0.779595 0.000000
H178  H     H_    0.549560 0.344749 0.790789 0.000000
H179  H     H_    0.616814 0.398670 0.852280 0.000000
H180  H     H_    0.638149 0.487825 0.862817 0.000000
H181  H     H_    0.574847 0.430655 0.760871 0.000000
H182  H     H_    0.728547 0.600035 0.755844 0.000000
C209  C     C_3   0.156173 0.453158 0.461523 0.000000
C210  C     C_R   0.191987 0.429316 0.482048 0.000000
C211  C     C_R   0.177567 0.386506 0.497269 0.000000
C212  C     C_R   0.209919 0.364910 0.517195 0.000000
C213  C     C_R   0.256948 0.384798 0.520317 0.000000
N53   N     N_R   0.292767 0.370547 0.539567 0.000000
C214  C     C_R   0.331145 0.404684 0.533068 0.000000
N54   N     N_R   0.318093 0.441003 0.512138 0.000000
C215  C     C_R   0.271339 0.426278 0.504959 0.000000
C216  C     C_R   0.239150 0.450200 0.486426 0.000000
S27   S     S_3+2 0.392053 0.399014 0.550194 0.000000
O79   O     O_2   0.415989 0.349189 0.539941 0.000000
O80   O     O_2   0.385484 0.390832 0.584192 0.000000
O81   O     O_3   0.440080 0.442811 0.550645 0.000000
H183  H     H_    0.145004 0.425677 0.442869 0.000000
H184  H     H_    0.173564 0.487044 0.451461 0.000000
H185  H     H_    0.122804 0.464473 0.474841 0.000000
H186  H     H_    0.140551 0.370579 0.493883 0.000000
H187  H     H_    0.199345 0.333113 0.529896 0.000000
H188  H     H_    0.250164 0.484463 0.475785 0.000000
H189  H     H_    0.470309 0.422514 0.548077 0.000000
C217  C     C_3   0.804004 0.674976 0.511723 0.000000
C218  C     C_R   0.752742 0.653833 0.515454 0.000000
C219  C     C_R   0.723073 0.647785 0.489759 0.000000
C220  C     C_R   0.676532 0.625428 0.491696 0.000000
C221  C     C_R   0.662916 0.604970 0.518539 0.000000
N55   N     N_R   0.622939 0.574923 0.522585 0.000000
C222  C     C_R   0.631870 0.557846 0.551774 0.000000
N56   N     N_R   0.673974 0.580111 0.566339 0.000000
C223  C     C_R   0.692232 0.609055 0.543895 0.000000
C224  C     C_R   0.735995 0.637077 0.543498 0.000000
S28   S     S_3+2 0.605740 0.498421 0.562399 0.000000
O82   O     O_2   0.548662 0.497626 0.563679 0.000000
O83   O     O_2   0.620016 0.484672 0.594752 0.000000
O84   O     O_3   0.620925 0.446265 0.540116 0.000000
H190  H     H_    0.815630 0.670871 0.487454 0.000000
H191  H     H_    0.830169 0.653751 0.525556 0.000000
H192  H     H_    0.804992 0.715692 0.518456 0.000000
H193  H     H_    0.736569 0.660488 0.468072 0.000000
H194  H     H_    0.653230 0.619254 0.472006 0.000000
H195  H     H_    0.758765 0.641317 0.563605 0.000000
H196  H     H_    0.594664 0.420745 0.544550 0.000000
C225  C     C_3   0.469110 0.340666 0.475660 0.000000
C226  C     C_R   0.478577 0.395339 0.483121 0.000000
C227  C     C_R   0.527498 0.413397 0.486256 0.000000
C228  C     C_R   0.537787 0.464613 0.490947 0.000000
C229  C     C_R   0.498292 0.496079 0.494644 0.000000
N57   N     N_R   0.500085 0.546688 0.498746 0.000000
C230  C     C_R   0.450366 0.557755 0.500530 0.000000
N58   N     N_R   0.418310 0.516811 0.496336 0.000000
C231  C     C_R   0.450130 0.478471 0.492388 0.000000
C232  C     C_R   0.439174 0.428413 0.485249 0.000000
S29   S     S_3+2 0.432465 0.617017 0.514291 0.000000
O85   O     O_2   0.439088 0.618916 0.548721 0.000000
O86   O     O_2   0.379651 0.634799 0.510827 0.000000
O87   O     O_3   0.467483 0.664116 0.500485 0.000000
H197  H     H_    0.487520 0.330229 0.453669 0.000000
H198  H     H_    0.428574 0.332546 0.473615 0.000000
H199  H     H_    0.484577 0.318054 0.494015 0.000000
H200  H     H_    0.557833 0.387501 0.483680 0.000000
H201  H     H_    0.575593 0.479286 0.491831 0.000000
H202  H     H_    0.401300 0.415280 0.481798 0.000000
H203  H     H_    0.474860 0.651457 0.479395 0.000000
C233  C     C_3   0.281827 0.377384 0.352223 0.000000
C234  C     C_R   0.292528 0.414529 0.377916 0.000000
C235  C     C_R   0.305609 0.397326 0.406307 0.000000
C236  C     C_R   0.315561 0.431011 0.430626 0.000000
C237  C     C_R   0.311636 0.481717 0.425956 0.000000
N59   N     N_R   0.321498 0.520534 0.446156 0.000000
C238  C     C_R   0.318282 0.561405 0.427291 0.000000
N60   N     N_R   0.305269 0.549640 0.397067 0.000000
C239  C     C_R   0.300901 0.498803 0.397511 0.000000
C240  C     C_R   0.290338 0.465847 0.373340 0.000000
S30   S     S_3+2 0.338890 0.621561 0.440347 0.000000
O88   O     O_2   0.390564 0.616675 0.453685 0.000000
O89   O     O_2   0.310971 0.635461 0.469425 0.000000
O90   O     O_3   0.343387 0.675612 0.420883 0.000000
H204  H     H_    0.315269 0.354601 0.347472 0.000000
H205  H     H_    0.271901 0.397236 0.331355 0.000000
H206  H     H_    0.250354 0.352079 0.358612 0.000000
H207  H     H_    0.308188 0.357206 0.409443 0.000000
H208  H     H_    0.327062 0.417486 0.452284 0.000000
H209  H     H_    0.279405 0.479558 0.351717 0.000000
H210  H     H_    0.376005 0.690044 0.427519 0.000000
C241  C     C_3   0.545864 0.102360 0.610154 0.000000
C242  C     C_R   0.490525 0.102503 0.611683 0.000000
C243  C     C_R   0.463390 0.099956 0.584593 0.000000
C244  C     C_R   0.411895 0.097103 0.585028 0.000000
C245  C     C_R   0.388876 0.095605 0.612952 0.000000
N61   N     N_R   0.339645 0.090917 0.618421 0.000000
C246  C     C_R   0.338999 0.089514 0.650098 0.000000
N62   N     N_R   0.385179 0.095220 0.664254 0.000000
C247  C     C_R   0.415466 0.099010 0.639779 0.000000
C248  C     C_R   0.466411 0.103656 0.639819 0.000000
S31   S     S_3+2 0.285970 0.067720 0.669344 0.000000
O91   O     O_2   0.239476 0.068158 0.649882 0.000000
O92   O     O_2   0.268824 0.099169 0.696963 0.000000
O93   O     O_3   0.291261 0.006953 0.679386 0.000000
H211  H     H_    0.557885 0.065873 0.599606 0.000000
H212  H     H_    0.561775 0.107254 0.633408 0.000000
H213  H     H_    0.559712 0.133477 0.596011 0.000000
H214  H     H_    0.482773 0.099710 0.562926 0.000000
H215  H     H_    0.390705 0.094968 0.564102 0.000000
H216  H     H_    0.486812 0.105389 0.661078 0.000000
H217  H     H_    0.317070 0.993835 0.665223 0.000000
C249  C     C_3   0.227980 0.235824 0.451871 0.000000
C250  C     C_R   0.243303 0.213004 0.480799 0.000000
C251  C     C_R   0.239117 0.160910 0.483458 0.000000
C252  C     C_R   0.254017 0.138602 0.509920 0.000000
C253  C     C_R   0.273156 0.169437 0.532977 0.000000
N63   N     N_R   0.285706 0.156103 0.561180 0.000000
C254  C     C_R   0.290897 0.201569 0.576529 0.000000
N64   N     N_R   0.281190 0.242914 0.559541 0.000000
C255  C     C_R   0.272174 0.220980 0.531668 0.000000
C256  C     C_R   0.259595 0.243712 0.505316 0.000000
S32   S     S_3+2 0.304090 0.202915 0.615498 0.000000
O94   O     O_2   0.275285 0.159860 0.629743 0.000000
O95   O     O_2   0.282794 0.248212 0.632904 0.000000
O96   O     O_3   0.364082 0.195975 0.627131 0.000000
H218  H     H_    0.251097 0.220701 0.432737 0.000000
H219  H     H_    0.232888 0.277519 0.453719 0.000000
H220  H     H_    0.188268 0.226111 0.447291 0.000000
H221  H     H_    0.224047 0.137597 0.464699 0.000000
H222  H     H_    0.248929 0.098532 0.512900 0.000000
H223  H     H_    0.262191 0.283957 0.503791 0.000000
H224  H     H_    0.365727 0.211578 0.647826 0.000000
C257  C     C_3   0.113053 0.890668 0.589248 0.000000
C258  C     C_R   0.132512 0.942542 0.587032 0.000000
C259  C     C_R   0.162579 0.954377 0.562525 0.000000
C260  C     C_R   0.189600 0.999114 0.563555 0.000000
C261  C     C_R   0.184600 0.030093 0.589169 0.000000
N65   N     N_R   0.207151 0.074995 0.594449 0.000000
C262  C     C_R   0.169130 0.099906 0.610009 0.000000
N66   N     N_R   0.135488 0.067699 0.624244 0.000000
C263  C     C_R   0.145339 0.024089 0.608542 0.000000
C264  C     C_R   0.121643 0.978397 0.609558 0.000000
S33   S     S_3+2 0.139248 0.141855 0.586016 0.000000
O97   O     O_2   0.116733 0.187407 0.602665 0.000000
O98   O     O_2   0.094362 0.117109 0.569248 0.000000
O99   O     O_3   0.174642 0.166004 0.557922 0.000000
H225  H     H_    0.093644 0.881248 0.567645 0.000000
H226  H     H_    0.087189 0.887160 0.608732 0.000000
H227  H     H_    0.144642 0.865707 0.592575 0.000000
H228  H     H_    0.167947 0.927065 0.543858 0.000000
H229  H     H_    0.213570 0.009155 0.544849 0.000000
H230  H     H_    0.096855 0.970130 0.627773 0.000000
H231  H     H_    0.192879 0.193410 0.569351 0.000000
C265  C     C_3   0.835623 0.348181 0.723704 0.000000
C266  C     C_R   0.879134 0.353579 0.703062 0.000000
C267  C     C_R   0.910828 0.313261 0.699399 0.000000
C268  C     C_R   0.952336 0.316820 0.680951 0.000000
C269  C     C_R   0.960425 0.360058 0.665770 0.000000
N67   N     N_R   0.998995 0.370188 0.647129 0.000000
C270  C     C_R   0.983698 0.416203 0.635719 0.000000
N68   N     N_R   0.945363 0.439025 0.652432 0.000000
C271  C     C_R   0.928335 0.399501 0.668366 0.000000
C272  C     C_R   0.888302 0.397948 0.687852 0.000000
S34   S     S_3+2 0.982108 0.423956 0.595172 0.000000
O100  O     O_2   0.006124 0.474051 0.585647 0.000000
O101  O     O_2   0.928349 0.429651 0.584276 0.000000
O102  O     O_3   0.005905 0.378083 0.570926 0.000000
H232  H     H_    0.812341 0.315121 0.715778 0.000000
H233  H     H_    0.813183 0.382407 0.723489 0.000000
H234  H     H_    0.848799 0.342339 0.747254 0.000000
H235  H     H_    0.903350 0.279069 0.711443 0.000000
H236  H     H_    0.977255 0.286411 0.677965 0.000000
H237  H     H_    0.865660 0.430540 0.691236 0.000000
H238  H     H_    0.976381 0.358174 0.563568 0.000000
C273  C     C_3   0.192869 0.499354 0.556755 0.000000
C274  C     C_R   0.175209 0.457242 0.575487 0.000000
C275  C     C_R   0.126247 0.455405 0.584614 0.000000
C276  C     C_R   0.109576 0.417291 0.602796 0.000000
C277  C     C_R   0.139824 0.379168 0.609077 0.000000
N69   N     N_R   0.121832 0.332624 0.613605 0.000000
C278  C     C_R   0.155239 0.304224 0.595965 0.000000
N70   N     N_R   0.200787 0.330066 0.591674 0.000000
C279  C     C_R   0.186595 0.378034 0.596886 0.000000
C280  C     C_R   0.206600 0.419337 0.582981 0.000000
S35   S     S_3+2 0.125976 0.281913 0.560572 0.000000
O103  O     O_2   0.082353 0.244380 0.563700 0.000000
O104  O     O_2   0.159116 0.255033 0.536830 0.000000
O105  O     O_3   0.099763 0.328958 0.540723 0.000000
H239  H     H_    0.171076 0.497475 0.535323 0.000000
H240  H     H_    0.233101 0.496208 0.551703 0.000000
H241  H     H_    0.186284 0.535935 0.569080 0.000000
H242  H     H_    0.101710 0.485102 0.578594 0.000000
H243  H     H_    0.072801 0.415319 0.611124 0.000000
H244  H     H_    0.244246 0.420343 0.575290 0.000000
H245  H     H_    0.065572 0.316167 0.536185 0.000000
C281  C     C_3   0.184643 0.190268 0.651822 0.000000
C282  C     C_R   0.191344 0.241884 0.663806 0.000000
C283  C     C_R   0.228042 0.251954 0.683980 0.000000
C284  C     C_R   0.224752 0.290736 0.704936 0.000000
C285  C     C_R   0.181514 0.315936 0.706058 0.000000
N71   N     N_R   0.158580 0.328291 0.732159 0.000000
C286  C     C_R   0.109632 0.330729 0.722856 0.000000
N72   N     N_R   0.102744 0.325073 0.691088 0.000000
C287  C     C_R   0.148345 0.311365 0.682573 0.000000
C288  C     C_R   0.154393 0.274416 0.660649 0.000000
S36   S     S_3+2 0.063380 0.319954 0.751339 0.000000
O106  O     O_2   0.080056 0.274064 0.768640 0.000000
O107  O     O_2   0.011724 0.301153 0.740643 0.000000
O108  O     O_3   0.055917 0.363233 0.780828 0.000000
H246  H     H_    0.195800 0.191733 0.627795 0.000000
H247  H     H_    0.145679 0.177716 0.654552 0.000000
H248  H     H_    0.206726 0.163661 0.664726 0.000000
H249  H     H_    0.251873 0.221797 0.688082 0.000000
H250  H     H_    0.245919 0.286613 0.724987 0.000000
H251  H     H_    0.125253 0.262135 0.645925 0.000000
H252  H     H_    0.068394 0.346363 0.798978 0.000000
C289  C     C_3   0.779545 0.905067 0.298821 0.000000
C290  C     C_R   0.811670 0.896255 0.271595 0.000000
C291  C     C_R   0.853499 0.926023 0.269145 0.000000
C292  C     C_R   0.886107 0.915389 0.246077 0.000000
C293  C     C_R   0.875873 0.876703 0.225087 0.000000
N73   N     N_R   0.909248 0.858392 0.205435 0.000000
C294  C     C_R   0.894037 0.808312 0.201889 0.000000
N74   N     N_R   0.846953 0.798256 0.213372 0.000000
C295  C     C_R   0.838051 0.843069 0.229078 0.000000
C296  C     C_R   0.803660 0.855282 0.251300 0.000000
S37   S     S_3+2 0.938668 0.759643 0.203425 0.000000
O109  O     O_2   0.937169 0.737802 0.235340 0.000000
O110  O     O_2   0.992696 0.778433 0.202166 0.000000
O111  O     O_3   0.935407 0.707395 0.179791 0.000000
H253  H     H_    0.801957 0.900822 0.319742 0.000000
H254  H     H_    0.748161 0.877482 0.298856 0.000000
H255  H     H_    0.765710 0.944053 0.298877 0.000000
H256  H     H_    0.862441 0.955069 0.286443 0.000000
H257  H     H_    0.923174 0.930701 0.248088 0.000000
H258  H     H_    0.771375 0.833675 0.254059 0.000000
H259  H     H_    0.954746 0.682920 0.190913 0.000000
C297  C     C_3   0.924950 0.566836 0.314369 0.000000
C298  C     C_R   0.905399 0.595109 0.288450 0.000000
C299  C     C_R   0.874095 0.635231 0.293617 0.000000
C300  C     C_R   0.854351 0.659504 0.269237 0.000000
C301  C     C_R   0.868030 0.645480 0.240114 0.000000
N75   N     N_R   0.850775 0.662178 0.213377 0.000000
C302  C     C_R   0.871029 0.627316 0.192888 0.000000
N76   N     N_R   0.903311 0.594004 0.205335 0.000000
C303  C     C_R   0.898693 0.605786 0.235265 0.000000
C304  C     C_R   0.916832 0.579782 0.258876 0.000000
S38   S     S_3+2 0.846262 0.614592 0.156678 0.000000
O112  O     O_2   0.792040 0.628981 0.152955 0.000000
O113  O     O_2   0.840710 0.557278 0.152525 0.000000
O114  O     O_3   0.878421 0.633715 0.125490 0.000000
H260  H     H_    0.966198 0.568915 0.314127 0.000000
H261  H     H_    0.912298 0.526719 0.311894 0.000000
H262  H     H_    0.911258 0.583242 0.336432 0.000000
H263  H     H_    0.863311 0.646459 0.316635 0.000000
H264  H     H_    0.825782 0.685188 0.273091 0.000000
H265  H     H_    0.938971 0.547950 0.254326 0.000000
H266  H     H_    0.892197 0.667140 0.131876 0.000000
C305  C     C_3   0.724324 0.801195 0.360732 0.000000
C306  C     C_R   0.736194 0.786318 0.328518 0.000000
C307  C     C_R   0.785098 0.785581 0.318406 0.000000
C308  C     C_R   0.795746 0.768116 0.289050 0.000000
C309  C     C_R   0.756705 0.751263 0.270440 0.000000
N77   N     N_R   0.758392 0.727433 0.242727 0.000000
C310  C     C_R   0.712700 0.705871 0.239643 0.000000
N78   N     N_R   0.679085 0.727533 0.259502 0.000000
C311  C     C_R   0.708973 0.753698 0.279835 0.000000
C312  C     C_R   0.697786 0.771150 0.309132 0.000000
S39   S     S_3+2 0.713601 0.638005 0.235166 0.000000
O115  O     O_2   0.663995 0.611239 0.242625 0.000000
O116  O     O_2   0.747090 0.618839 0.260279 0.000000
O117  O     O_3   0.737160 0.607922 0.203179 0.000000
H267  H     H_    0.758399 0.814469 0.373108 0.000000
H268  H     H_    0.707636 0.768278 0.372240 0.000000
H269  H     H_    0.697028 0.831762 0.360806 0.000000
H270  H     H_    0.815190 0.797803 0.333482 0.000000
H271  H     H_    0.833855 0.767588 0.281129 0.000000
H272  H     H_    0.661188 0.767348 0.318673 0.000000
H273  H     H_    0.767811 0.592213 0.210337 0.000000
C313  C     C_3   0.906768 0.791968 0.124731 0.000000
C314  C     C_R   0.861529 0.761281 0.120267 0.000000
C315  C     C_R   0.840414 0.751838 0.091884 0.000000
C316  C     C_R   0.791506 0.735471 0.089902 0.000000
C317  C     C_R   0.765108 0.731376 0.116314 0.000000
N79   N     N_R   0.717723 0.715659 0.119467 0.000000
C318  C     C_R   0.716773 0.706992 0.150990 0.000000
N80   N     N_R   0.760794 0.720963 0.166746 0.000000
C319  C     C_R   0.788790 0.735507 0.143557 0.000000
C320  C     C_R   0.837042 0.747578 0.145755 0.000000
S40   S     S_3+2 0.667202 0.670245 0.167227 0.000000
O118  O     O_2   0.623974 0.686690 0.148629 0.000000
O119  O     O_2   0.645522 0.686825 0.198013 0.000000
O120  O     O_3   0.659596 0.605709 0.163731 0.000000
H274  H     H_    0.933722 0.773077 0.138794 0.000000
H275  H     H_    0.896073 0.826745 0.137588 0.000000
H276  H     H_    0.922213 0.801087 0.102357 0.000000
H277  H     H_    0.860061 0.760777 0.071311 0.000000
H278  H     H_    0.774905 0.727868 0.068231 0.000000
H279  H     H_    0.855166 0.745073 0.166838 0.000000
H280  H     H_    0.624853 0.599103 0.170309 0.000000
C321  C     C_3   0.473819 0.855855 0.027272 0.000000
C322  C     C_R   0.510917 0.824490 0.042456 0.000000
C323  C     C_R   0.553869 0.811259 0.026865 0.000000
C324  C     C_R   0.587643 0.779965 0.039782 0.000000
C325  C     C_R   0.578146 0.762996 0.068675 0.000000
N81   N     N_R   0.601633 0.726290 0.083084 0.000000
C326  C     C_R   0.565943 0.709550 0.102928 0.000000
N82   N     N_R   0.526723 0.741200 0.105658 0.000000
C327  C     C_R   0.534567 0.773451 0.083002 0.000000
C328  C     C_R   0.500933 0.805315 0.070840 0.000000
S41   S     S_3+2 0.555581 0.643008 0.108505 0.000000
O121  O     O_2   0.603568 0.613431 0.109231 0.000000
O122  O     O_2   0.530671 0.617229 0.080451 0.000000
O123  O     O_3   0.521860 0.623351 0.139365 0.000000
H281  H     H_    0.489705 0.894429 0.024484 0.000000
H282  H     H_    0.439303 0.857991 0.041074 0.000000
H283  H     H_    0.464521 0.838384 0.004489 0.000000
H284  H     H_    0.560426 0.824302 0.004082 0.000000
H285  H     H_    0.618046 0.766542 0.026060 0.000000
H286  H     H_    0.465921 0.811883 0.081675 0.000000
H287  H     H_    0.506287 0.590740 0.132295 0.000000
C329  C     C_3   0.467315 0.675515 0.013188 0.000000
C330  C     C_R   0.448368 0.650364 0.040863 0.000000
C331  C     C_R   0.429368 0.601291 0.038166 0.000000
C332  C     C_R   0.407204 0.579455 0.063057 0.000000
C333  C     C_R   0.408133 0.605846 0.090648 0.000000
N83   N     N_R   0.382268 0.595209 0.115895 0.000000
C334  C     C_R   0.399063 0.632483 0.136343 0.000000
N84   N     N_R   0.429657 0.669427 0.123675 0.000000
C335  C     C_R   0.432238 0.651460 0.094316 0.000000
C336  C     C_R   0.449000 0.676024 0.069082 0.000000
S42   S     S_3+2 0.384631 0.629004 0.175508 0.000000
O124  O     O_2   0.350561 0.671481 0.185898 0.000000
O125  O     O_2   0.430830 0.637040 0.195520 0.000000
O126  O     O_3   0.358364 0.576560 0.190151 0.000000
H288  H     H_    0.497107 0.652608 0.002490 0.000000
H289  H     H_    0.482468 0.713812 0.019421 0.000000
H290  H     H_    0.436638 0.678623 0.996555 0.000000
H291  H     H_    0.428533 0.581491 0.016085 0.000000
H292  H     H_    0.388017 0.543924 0.060506 0.000000
H293  H     H_    0.459703 0.714790 0.070738 0.000000
H294  H     H_    0.377537 0.572994 0.209167 0.000000
C337  C     C_3   0.437282 0.974154 0.209825 0.000000
C338  C     C_R   0.435985 0.927821 0.189949 0.000000
C339  C     C_R   0.474659 0.894932 0.190542 0.000000
C340  C     C_R   0.474421 0.850541 0.172793 0.000000
C341  C     C_R   0.435984 0.841853 0.153285 0.000000
N85   N     N_R   0.427878 0.802096 0.133674 0.000000
C342  C     C_R   0.387649 0.818856 0.117209 0.000000
N86   N     N_R   0.370887 0.865620 0.127047 0.000000
C343  C     C_R   0.401371 0.877589 0.150208 0.000000
C344  C     C_R   0.398025 0.918700 0.169747 0.000000
S43   S     S_3+2 0.353499 0.779830 0.090734 0.000000
O127  O     O_2   0.346345 0.729288 0.105834 0.000000
O128  O     O_2   0.381776 0.764428 0.061449 0.000000
O129  O     O_3   0.294565 0.794573 0.079968 0.000000
H295  H     H_    0.436972 0.962789 0.233890 0.000000
H296  H     H_    0.404528 0.997375 0.205386 0.000000
H297  H     H_    0.471758 0.996197 0.205008 0.000000
H298  H     H_    0.506846 0.905983 0.203855 0.000000
H299  H     H_    0.504613 0.825393 0.172934 0.000000
H300  H     H_    0.367564 0.943626 0.168990 0.000000
H301  H     H_    0.274415 0.763401 0.082930 0.000000
C345  C     C_3   0.357153 0.740888 0.234247 0.000000
C346  C     C_R   0.411221 0.733766 0.232357 0.000000
C347  C     C_R   0.438614 0.721742 0.257604 0.000000
C348  C     C_R   0.489169 0.716125 0.255771 0.000000
C349  C     C_R   0.510558 0.718823 0.227974 0.000000
N87   N     N_R   0.559354 0.724883 0.222595 0.000000
C350  C     C_R   0.557737 0.738650 0.191789 0.000000
N88   N     N_R   0.510836 0.732870 0.178369 0.000000
C351  C     C_R   0.482752 0.726281 0.202750 0.000000
C352  C     C_R   0.433964 0.737713 0.204476 0.000000
S44   S     S_3+2 0.598991 0.786899 0.177299 0.000000
O130  O     O_2   0.654193 0.780811 0.184278 0.000000
O131  O     O_2   0.588825 0.837585 0.194046 0.000000
O132  O     O_3   0.597445 0.801532 0.139676 0.000000
H302  H     H_    0.338518 0.704965 0.239412 0.000000
H303  H     H_    0.345538 0.752460 0.211939 0.000000
H304  H     H_    0.345893 0.770535 0.250845 0.000000
H305  H     H_    0.421227 0.719092 0.279086 0.000000
H306  H     H_    0.511784 0.711836 0.275381 0.000000
H307  H     H_    0.414278 0.747709 0.184249 0.000000
H308  H     H_    0.630520 0.791788 0.131781 0.000000
C353  C     C_3   0.761776 0.655877 0.342426 0.000000
C354  C     C_R   0.706588 0.651360 0.342511 0.000000
C355  C     C_R   0.682459 0.633378 0.367516 0.000000
C356  C     C_R   0.632428 0.622202 0.365542 0.000000
C357  C     C_R   0.607985 0.629611 0.338684 0.000000
N89   N     N_R   0.569501 0.602292 0.326419 0.000000
C358  C     C_R   0.564253 0.623310 0.298272 0.000000
N90   N     N_R   0.598152 0.661160 0.292942 0.000000
C359  C     C_R   0.628357 0.659349 0.317533 0.000000
C360  C     C_R   0.679428 0.663048 0.317258 0.000000
S45   S     S_3+2 0.526713 0.596983 0.268526 0.000000
O133  O     O_2   0.528170 0.539639 0.268371 0.000000
O134  O     O_2   0.547648 0.607765 0.236698 0.000000
O135  O     O_3   0.465398 0.610892 0.267727 0.000000
H309  H     H_    0.774137 0.682105 0.361438 0.000000
H310  H     H_    0.774984 0.670765 0.320516 0.000000
H311  H     H_    0.777655 0.618149 0.345431 0.000000
H312  H     H_    0.703442 0.623806 0.387370 0.000000
H313  H     H_    0.613575 0.609352 0.385008 0.000000
H314  H     H_    0.698968 0.667273 0.296701 0.000000
H315  H     H_    0.458256 0.621476 0.289178 0.000000
C361  C     C_3   0.697673 0.861275 0.225161 0.000000
C362  C     C_R   0.664791 0.865734 0.251412 0.000000
C363  C     C_R   0.665928 0.906150 0.272634 0.000000
C364  C     C_R   0.634249 0.905950 0.297549 0.000000
C365  C     C_R   0.604856 0.864102 0.300818 0.000000
N91   N     N_R   0.574710 0.852379 0.324037 0.000000
C366  C     C_R   0.564414 0.801777 0.317336 0.000000
N92   N     N_R   0.585653 0.783640 0.290736 0.000000
C367  C     C_R   0.607944 0.824642 0.280720 0.000000
C368  C     C_R   0.633482 0.826091 0.254782 0.000000
S46   S     S_3+2 0.532921 0.761444 0.341863 0.000000
O136  O     O_2   0.485008 0.784130 0.354177 0.000000
O137  O     O_2   0.562801 0.753557 0.370915 0.000000
O138  O     O_3   0.515562 0.702932 0.327945 0.000000
H316  H     H_    0.674474 0.864250 0.204938 0.000000
H317  H     H_    0.713001 0.822956 0.223123 0.000000
H318  H     H_    0.727021 0.890898 0.227163 0.000000
H319  H     H_    0.691989 0.937265 0.270104 0.000000
H320  H     H_    0.636611 0.934291 0.315354 0.000000
H321  H     H_    0.632440 0.794703 0.238719 0.000000
H322  H     H_    0.479231 0.704304 0.325382 0.000000
C369  C     C_3   0.471548 0.905148 0.592806 0.000000
C370  C     C_R   0.433381 0.865715 0.584541 0.000000
C371  C     C_R   0.433231 0.820199 0.598511 0.000000
C372  C     C_R   0.400525 0.781657 0.589762 0.000000
C373  C     C_R   0.364991 0.790694 0.568679 0.000000
N93   N     N_R   0.326563 0.760732 0.558413 0.000000
C374  C     C_R   0.312716 0.785804 0.532776 0.000000
N94   N     N_R   0.338089 0.830855 0.529033 0.000000
C375  C     C_R   0.368609 0.833378 0.553036 0.000000
C376  C     C_R   0.399809 0.873010 0.561848 0.000000
S47   S     S_3+2 0.270539 0.760600 0.504942 0.000000
O139  O     O_2   0.234329 0.722225 0.518342 0.000000
O140  O     O_2   0.298128 0.726901 0.481964 0.000000
O141  O     O_3   0.234837 0.799566 0.484155 0.000000
H323  H     H_    0.468832 0.913808 0.617511 0.000000
H324  H     H_    0.465545 0.939842 0.580093 0.000000
H325  H     H_    0.509027 0.890596 0.587355 0.000000
H326  H     H_    0.458308 0.814926 0.616808 0.000000
H327  H     H_    0.403694 0.745798 0.599387 0.000000
H328  H     H_    0.398616 0.908913 0.551479 0.000000
H329  H     H_    0.204923 0.778736 0.478573 0.000000
C377  C     C_3   0.570420 0.037789 0.487039 0.000000
C378  C     C_R   0.532944 0.998025 0.494712 0.000000
C379  C     C_R   0.487172 0.011750 0.506485 0.000000
C380  C     C_R   0.450179 0.975369 0.510060 0.000000
C381  C     C_R   0.460380 0.926149 0.502475 0.000000
N95   N     N_R   0.429246 0.885463 0.500587 0.000000
C382  C     C_R   0.462549 0.846090 0.499396 0.000000
N96   N     N_R   0.511776 0.862010 0.496784 0.000000
C383  C     C_R   0.507907 0.912440 0.497808 0.000000
C384  C     C_R   0.543414 0.947403 0.490471 0.000000
S48   S     S_3+2 0.445112 0.780151 0.497222 0.000000
O142  O     O_2   0.390100 0.767780 0.492799 0.000000
O143  O     O_2   0.452611 0.754585 0.527383 0.000000
O144  O     O_3   0.472751 0.742874 0.469781 0.000000
H330  H     H_    0.554127 0.063127 0.470377 0.000000
H331  H     H_    0.603970 0.020389 0.476800 0.000000
H332  H     H_    0.581003 0.060061 0.508119 0.000000
H333  H     H_    0.479504 0.051094 0.511433 0.000000
H334  H     H_    0.415466 0.985436 0.519774 0.000000
H335  H     H_    0.576118 0.935085 0.479203 0.000000
H336  H     H_    0.445035 0.731137 0.456258 0.000000
C385  C     C_3   0.209398 0.021302 0.395868 0.000000
C386  C     C_R   0.236402 0.983597 0.413386 0.000000
C387  C     C_R   0.234437 0.985957 0.445130 0.000000
C388  C     C_R   0.261333 0.953054 0.462081 0.000000
C389  C     C_R   0.287137 0.916014 0.446560 0.000000
N97   N     N_R   0.316188 0.880209 0.457957 0.000000
C390  C     C_R   0.323252 0.848883 0.432360 0.000000
N98   N     N_R   0.303184 0.865816 0.405867 0.000000
C391  C     C_R   0.282478 0.909298 0.415579 0.000000
C392  C     C_R   0.261553 0.945123 0.398196 0.000000
S49   S     S_3+2 0.355608 0.792051 0.433737 0.000000
O145  O     O_2   0.373999 0.834553 0.455574 0.000000
O146  O     O_2   0.371599 0.812289 0.403101 0.000000
O147  O     O_3   0.292403 0.792933 0.432998 0.000000
H337  H     H_    0.169222 0.019050 0.401641 0.000000
H338  H     H_    0.214153 0.013561 0.370961 0.000000
H339  H     H_    0.224326 0.059746 0.402039 0.000000
H340  H     H_    0.212830 0.014777 0.456791 0.000000
H341  H     H_    0.258584 0.954671 0.486561 0.000000
H342  H     H_    0.262817 0.941921 0.373544 0.000000
H343  H     H_    0.282384 0.757223 0.434808 0.000000
C393  C     C_3   0.234492 0.945086 0.633118 0.000000
C394  C     C_R   0.263707 0.942606 0.605372 0.000000
C395  C     C_R   0.256684 0.902312 0.584765 0.000000
C396  C     C_R   0.277585 0.904071 0.556299 0.000000
C397  C     C_R   0.306623 0.945433 0.550194 0.000000
N99   N     N_R   0.326889 0.955819 0.523337 0.000000
C398  C     C_R   0.325586 0.008622 0.524449 0.000000
N100  N     N_R   0.309028 0.029117 0.552374 0.000000
C399  C     C_R   0.302891 0.987461 0.568047 0.000000
C400  C     C_R   0.286647 0.985892 0.596952 0.000000
S50   S     S_3+2 0.343794 0.046838 0.492805 0.000000
O148  O     O_2   0.380518 0.019555 0.471436 0.000000
O149  O     O_2   0.375174 0.093584 0.503192 0.000000
O150  O     O_3   0.300858 0.068436 0.467985 0.000000
H344  H     H_    0.224955 0.983823 0.638786 0.000000
H345  H     H_    0.255786 0.930385 0.652164 0.000000
H346  H     H_    0.199361 0.925230 0.627745 0.000000
H347  H     H_    0.232863 0.870903 0.590599 0.000000
H348  H     H_    0.265631 0.877423 0.538475 0.000000
H349  H     H_    0.284538 0.019094 0.611048 0.000000
H350  H     H_    0.315759 0.062212 0.447506 0.000000
C401  C     C_3   0.770190 0.470492 0.087369 0.000000
C402  C     C_R   0.738551 0.513345 0.082083 0.000000
C403  C     C_R   0.721512 0.545752 0.105370 0.000000
C404  C     C_R   0.703925 0.592258 0.097950 0.000000
C405  C     C_R   0.695386 0.600413 0.067930 0.000000
N101  N     N_R   0.677344 0.641170 0.055296 0.000000
C406  C     C_R   0.673772 0.625246 0.024953 0.000000
N102  N     N_R   0.699380 0.581214 0.017938 0.000000
C407  C     C_R   0.709392 0.566652 0.045984 0.000000
C408  C     C_R   0.736023 0.526749 0.052678 0.000000
S51   S     S_3+2 0.626514 0.651035 0.002337 0.000000
O151  O     O_2   0.590870 0.674112 0.025998 0.000000
O152  O     O_2   0.589612 0.611971 0.988396 0.000000
O153  O     O_3   0.634616 0.699592 0.977818 0.000000
H351  H     H_    0.746793 0.435919 0.087871 0.000000
H352  H     H_    0.792236 0.478553 0.107983 0.000000
H353  H     H_    0.796859 0.465887 0.068294 0.000000
H354  H     H_    0.728404 0.538486 0.129027 0.000000
H355  H     H_    0.696763 0.620888 0.114895 0.000000
H356  H     H_    0.760166 0.510594 0.036144 0.000000
H357  H     H_    0.660657 0.688218 0.963315 0.000000
C409  C     C_3   0.765307 0.651081 0.968297 0.000000
C410  C     C_R   0.757755 0.702721 0.980970 0.000000
C411  C     C_R   0.763178 0.743755 0.963114 0.000000
C412  C     C_R   0.755550 0.790959 0.975990 0.000000
C413  C     C_R   0.735945 0.795769 0.004340 0.000000
N103  N     N_R   0.721335 0.838488 0.018549 0.000000
C414  C     C_R   0.699177 0.819775 0.044548 0.000000
N104  N     N_R   0.702076 0.767742 0.047004 0.000000
C415  C     C_R   0.726178 0.755126 0.020868 0.000000
C416  C     C_R   0.742930 0.709489 0.010773 0.000000
S52   S     S_3+2 0.675057 0.860219 0.073540 0.000000
O154  O     O_2   0.694238 0.914014 0.068169 0.000000
O155  O     O_2   0.696353 0.851336 0.105344 0.000000
O156  O     O_3   0.612104 0.865968 0.077719 0.000000
H358  H     H_    0.796348 0.635516 0.980631 0.000000
H359  H     H_    0.773836 0.651138 0.943778 0.000000
H360  H     H_    0.731122 0.628026 0.971275 0.000000
H361  H     H_    0.773509 0.739505 0.939351 0.000000
H362  H     H_    0.759363 0.823101 0.963046 0.000000
H363  H     H_    0.744925 0.679624 0.025398 0.000000
H364  H     H_    0.602786 0.888945 0.061492 0.000000
C417  C     C_3   0.719055 0.494854 0.236702 0.000000
C418  C     C_R   0.680972 0.489480 0.261064 0.000000
C419  C     C_R   0.680717 0.523402 0.285770 0.000000
C420  C     C_R   0.642125 0.522091 0.306217 0.000000
C421  C     C_R   0.606958 0.484197 0.303190 0.000000
N105  N     N_R   0.568273 0.475716 0.321737 0.000000
C422  C     C_R   0.557018 0.425137 0.315237 0.000000
N106  N     N_R   0.584355 0.404526 0.290885 0.000000
C423  C     C_R   0.614007 0.444414 0.283657 0.000000
C424  C     C_R   0.647233 0.449250 0.259959 0.000000
S53   S     S_3+2 0.515075 0.390366 0.339301 0.000000
O157  O     O_2   0.467722 0.419030 0.347542 0.000000
O158  O     O_2   0.538312 0.387913 0.371178 0.000000
O159  O     O_3   0.495100 0.329571 0.330846 0.000000
H365  H     H_    0.700881 0.505762 0.215324 0.000000
H366  H     H_    0.738018 0.458818 0.232742 0.000000
H367  H     H_    0.747478 0.523786 0.243778 0.000000
H368  H     H_    0.709921 0.551497 0.289194 0.000000
H369  H     H_    0.643868 0.545923 0.326253 0.000000
H370  H     H_    0.647392 0.423216 0.240875 0.000000
H371  H     H_    0.484987 0.316274 0.350808 0.000000
C425  C     C_3   0.742668 0.487080 0.447382 0.000000
C426  C     C_R   0.696188 0.500124 0.431409 0.000000
C427  C     C_R   0.691123 0.488212 0.400364 0.000000
C428  C     C_R   0.647657 0.498407 0.385184 0.000000
C429  C     C_R   0.610590 0.522302 0.401349 0.000000
N107  N     N_R   0.565019 0.534864 0.391435 0.000000
C430  C     C_R   0.541092 0.546989 0.418391 0.000000
N108  N     N_R   0.573709 0.554187 0.443281 0.000000
C431  C     C_R   0.615917 0.534703 0.431781 0.000000
C432  C     C_R   0.657707 0.522575 0.447584 0.000000
S54   S     S_3+2 0.485223 0.509363 0.421666 0.000000
O160  O     O_2   0.465484 0.502874 0.389206 0.000000
O161  O     O_2   0.438550 0.530392 0.436968 0.000000
O162  O     O_3   0.489433 0.446724 0.428635 0.000000
H372  H     H_    0.747717 0.445661 0.445275 0.000000
H373  H     H_    0.740636 0.499005 0.471921 0.000000
H374  H     H_    0.774834 0.506701 0.436746 0.000000
H375  H     H_    0.720780 0.469300 0.388115 0.000000
H376  H     H_    0.642676 0.485348 0.361918 0.000000
H377  H     H_    0.659662 0.528273 0.472019 0.000000
H378  H     H_    0.468573 0.429385 0.412645 0.000000
C433  C     C_3   0.324299 0.431792 0.270008 0.000000
C434  C     C_R   0.363050 0.462590 0.286879 0.000000
C435  C     C_R   0.412701 0.453178 0.281632 0.000000
C436  C     C_R   0.448954 0.480323 0.297833 0.000000
C437  C     C_R   0.434953 0.516902 0.319073 0.000000
N109  N     N_R   0.463921 0.545945 0.338203 0.000000
C438  C     C_R   0.430033 0.578600 0.351469 0.000000
N110  N     N_R   0.381215 0.568922 0.342302 0.000000
C439  C     C_R   0.386311 0.529093 0.322371 0.000000
C440  C     C_R   0.349620 0.501179 0.307189 0.000000
S55   S     S_3+2 0.450598 0.629068 0.377161 0.000000
O163  O     O_2   0.449821 0.615120 0.410441 0.000000
O164  O     O_2   0.421086 0.677687 0.378212 0.000000
O165  O     O_3   0.510456 0.648361 0.372888 0.000000
H379  H     H_    0.330648 0.434269 0.245081 0.000000
H380  H     H_    0.286757 0.445743 0.275831 0.000000
H381  H     H_    0.326483 0.391862 0.276343 0.000000
H382  H     H_    0.423270 0.424210 0.264973 0.000000
H383  H     H_    0.486862 0.472308 0.293400 0.000000
H384  H     H_    0.311309 0.508815 0.310410 0.000000
H385  H     H_    0.528748 0.619890 0.380534 0.000000
C441  C     C_3   0.755514 0.941492 0.383892 0.000000
C442  C     C_R   0.711868 0.920643 0.400584 0.000000
C443  C     C_R   0.719403 0.899361 0.428688 0.000000
C444  C     C_R   0.680143 0.877689 0.444338 0.000000
C445  C     C_R   0.633675 0.879557 0.431703 0.000000
N111  N     N_R   0.591354 0.858453 0.442300 0.000000
C446  C     C_R   0.558651 0.865725 0.418254 0.000000
N112  N     N_R   0.578120 0.893385 0.394995 0.000000
C447  C     C_R   0.625930 0.900405 0.403947 0.000000
C448  C     C_R   0.664669 0.920682 0.387716 0.000000
S56   S     S_3+2 0.499067 0.836250 0.413531 0.000000
O166  O     O_2   0.491038 0.778682 0.412484 0.000000
O167  O     O_2   0.465005 0.853009 0.439345 0.000000
O168  O     O_3   0.533466 0.815211 0.442345 0.000000
H386  H     H_    0.772429 0.973578 0.397562 0.000000
H387  H     H_    0.743932 0.954699 0.361421 0.000000
H388  H     H_    0.783361 0.911611 0.380286 0.000000
H389  H     H_    0.756513 0.898659 0.438081 0.000000
H390  H     H_    0.686065 0.859298 0.465568 0.000000
H391  H     H_    0.658618 0.934690 0.365371 0.000000
H392  H     H_    0.535226 0.778854 0.436620 0.000000
C449  C     C_3   0.496727 0.842509 0.249090 0.000000
C450  C     C_R   0.460995 0.857265 0.272815 0.000000
C451  C     C_R   0.411972 0.841498 0.271213 0.000000
C452  C     C_R   0.383720 0.838255 0.297614 0.000000
C453  C     C_R   0.405365 0.855246 0.324537 0.000000
N113  N     N_R   0.384419 0.861381 0.352378 0.000000
C454  C     C_R   0.423352 0.886066 0.368863 0.000000
N114  N     N_R   0.467774 0.888528 0.352705 0.000000
C455  C     C_R   0.453002 0.873024 0.324842 0.000000
C456  C     C_R   0.479794 0.878236 0.299015 0.000000
S57   S     S_3+2 0.414126 0.932403 0.399887 0.000000
O169  O     O_2   0.384785 0.977963 0.389898 0.000000
O170  O     O_2   0.465048 0.958690 0.405570 0.000000
O171  O     O_3   0.397296 0.924049 0.436645 0.000000
H393  H     H_    0.518127 0.811653 0.257628 0.000000
H394  H     H_    0.523403 0.874004 0.245356 0.000000
H395  H     H_    0.476777 0.826782 0.229020 0.000000
H396  H     H_    0.396621 0.832074 0.249078 0.000000
H397  H     H_    0.346176 0.823262 0.297082 0.000000
H398  H     H_    0.514720 0.898260 0.298659 0.000000
H399  H     H_    0.423592 0.943064 0.448171 0.000000
C457  C     C_3   0.386191 0.039339 0.271367 0.000000
C458  C     C_R   0.430554 0.027479 0.289811 0.000000
C459  C     C_R   0.424437 0.012265 0.319235 0.000000
C460  C     C_R   0.464369 0.992903 0.333933 0.000000
C461  C     C_R   0.510199 0.995757 0.320974 0.000000
N115  N     N_R   0.553245 0.981321 0.332953 0.000000
C462  C     C_R   0.586430 0.015248 0.319106 0.000000
N116  N     N_R   0.565069 0.043655 0.296687 0.000000
C463  C     C_R   0.517325 0.027014 0.297921 0.000000
C464  C     C_R   0.478337 0.033512 0.278639 0.000000
S58   S     S_3+2 0.645826 0.033765 0.334851 0.000000
O172  O     O_2   0.646658 0.031489 0.369845 0.000000
O173  O     O_2   0.655136 0.090522 0.331197 0.000000
O174  O     O_3   0.699554 0.006641 0.321892 0.000000
H400  H     H_    0.363187 0.004642 0.266998 0.000000
H401  H     H_    0.397706 0.054401 0.249194 0.000000
H402  H     H_    0.363840 0.067929 0.284055 0.000000
H403  H     H_    0.388402 0.013170 0.330113 0.000000
H404  H     H_    0.461217 0.981948 0.356479 0.000000
H405  H     H_    0.484481 0.036127 0.254878 0.000000
H406  H     H_    0.706154 0.022021 0.302017 0.000000
C465  C     C_3   0.954995 0.786294 0.301302 0.000000
C466  C     C_R   0.996088 0.805235 0.281577 0.000000
C467  C     C_R   0.043743 0.788619 0.285820 0.000000
C468  C     C_R   0.082463 0.807991 0.268863 0.000000
C469  C     C_R   0.072749 0.843276 0.247912 0.000000
N117  N     N_R   0.106707 0.869899 0.232295 0.000000
C470  C     C_R   0.076087 0.901337 0.216014 0.000000
N118  N     N_R   0.025706 0.892659 0.220233 0.000000
C471  C     C_R   0.025706 0.857977 0.242197 0.000000
C472  C     C_R   0.986811 0.839741 0.259498 0.000000
S59   S     S_3+2 0.096284 0.956683 0.197352 0.000000
O175  O     O_2   0.108833 0.001111 0.219844 0.000000
O176  O     O_2   0.053070 0.978129 0.179677 0.000000
O177  O     O_3   0.143472 0.953566 0.171543 0.000000
H407  H     H_    0.951588 0.744566 0.298407 0.000000
H408  H     H_    0.919243 0.803142 0.295074 0.000000
H409  H     H_    0.963496 0.796668 0.325555 0.000000
H410  H     H_    0.050827 0.762092 0.303309 0.000000
H411  H     H_    0.120034 0.799235 0.273705 0.000000
H412  H     H_    0.950105 0.852015 0.257123 0.000000
H413  H     H_    0.149755 0.916983 0.170643 0.000000
C473  C     C_3   0.016151 0.056788 0.295572 0.000000
C474  C     C_R   0.975892 0.055212 0.272270 0.000000
C475  C     C_R   0.938051 0.090162 0.274711 0.000000
C476  C     C_R   0.899827 0.089564 0.253530 0.000000
C477  C     C_R   0.901189 0.054230 0.229757 0.000000
N119  N     N_R   0.867613 0.046952 0.206991 0.000000
C478  C     C_R   0.884287 0.002003 0.193198 0.000000
N120  N     N_R   0.927458 0.983796 0.205462 0.000000
C479  C     C_R   0.937608 0.018763 0.227925 0.000000
C480  C     C_R   0.975594 0.018482 0.248787 0.000000
S60   S     S_3+2 0.846722 0.962732 0.168595 0.000000
O178  O     O_2   0.809663 0.935389 0.188978 0.000000
O179  O     O_2   0.871386 0.916607 0.153686 0.000000
O180  O     O_3   0.812741 0.989325 0.140751 0.000000
H414  H     H_    0.036002 0.093961 0.295412 0.000000
H415  H     H_    0.042967 0.026414 0.290449 0.000000
H416  H     H_    0.999620 0.051497 0.318499 0.000000
H417  H     H_    0.938339 0.118018 0.293449 0.000000
H418  H     H_    0.870111 0.116192 0.255566 0.000000
H419  H     H_    0.003583 0.989899 0.247135 0.000000
H420  H     H_    0.838449 0.004628 0.127574 0.000000
C481  C     C_3   0.943365 0.056213 0.063041 0.000000
C482  C     C_R   0.941761 0.020422 0.088322 0.000000
C483  C     C_R   0.955306 0.036334 0.117632 0.000000
C484  C     C_R   0.961681 0.002422 0.140104 0.000000
C485  C     C_R   0.958439 0.952094 0.131856 0.000000
N121  N     N_R   0.972180 0.913166 0.148390 0.000000
C486  C     C_R   0.979705 0.876308 0.126140 0.000000
N122  N     N_R   0.962451 0.888057 0.097551 0.000000
C487  C     C_R   0.949241 0.936461 0.102457 0.000000
C488  C     C_R   0.935087 0.969775 0.081231 0.000000
S61   S     S_3+2 0.034969 0.843602 0.128416 0.000000
O181  O     O_2   0.077030 0.881391 0.137231 0.000000
O182  O     O_2   0.052186 0.826574 0.096570 0.000000
O183  O     O_3   0.042384 0.794563 0.151778 0.000000
H421  H     H_    0.905351 0.061934 0.054826 0.000000
H422  H     H_    0.965897 0.040429 0.043852 0.000000
H423  H     H_    0.960778 0.092676 0.070904 0.000000
H424  H     H_    0.964068 0.074991 0.122830 0.000000
H425  H     H_    0.975218 0.015976 0.162068 0.000000
H426  H     H_    0.928654 0.958235 0.058012 0.000000
H427  H     H_    0.059464 0.810789 0.169715 0.000000
C489  C     C_3   0.920711 0.746227 0.541620 0.000000
C490  C     C_R   0.947026 0.744177 0.571349 0.000000
C491  C     C_R   0.983600 0.708973 0.574156 0.000000
C492  C     C_R   0.011232 0.708374 0.600541 0.000000
C493  C     C_R   0.004459 0.746294 0.622716 0.000000
N123  N     N_R   0.034824 0.757579 0.646665 0.000000
C494  C     C_R   0.017147 0.804641 0.656654 0.000000
N124  N     N_R   0.976520 0.820705 0.640920 0.000000
C495  C     C_R   0.970123 0.782825 0.619333 0.000000
C496  C     C_R   0.937711 0.779026 0.595069 0.000000
S62   S     S_3+2 0.049926 0.849201 0.680731 0.000000
O184  O     O_2   0.066752 0.830676 0.711557 0.000000
O185  O     O_2   0.016166 0.891934 0.690858 0.000000
O186  O     O_3   0.097361 0.883073 0.665340 0.000000
H428  H     H_    0.948216 0.754718 0.523496 0.000000
H429  H     H_    0.892709 0.776192 0.542539 0.000000
H430  H     H_    0.902612 0.709061 0.536009 0.000000
H431  H     H_    0.991109 0.682313 0.555464 0.000000
H432  H     H_    0.041876 0.683106 0.601402 0.000000
H433  H     H_    0.906649 0.802505 0.593827 0.000000
H434  H     H_    0.084723 0.917758 0.665914 0.000000
C497  C     C_3   0.868005 0.132387 0.681682 0.000000
C498  C     C_R   0.894353 0.084104 0.676101 0.000000
C499  C     C_R   0.867962 0.038814 0.678081 0.000000
C500  C     C_R   0.890773 0.993730 0.671034 0.000000
C501  C     C_R   0.940121 0.994838 0.663384 0.000000
N125  N     N_R   0.965979 0.956195 0.651340 0.000000
C502  C     C_R   0.006423 0.981423 0.638717 0.000000
N126  N     N_R   0.012801 0.030301 0.650825 0.000000
C503  C     C_R   0.967009 0.038822 0.662513 0.000000
C504  C     C_R   0.944107 0.084393 0.667701 0.000000
S63   S     S_3+2 0.007092 0.978173 0.597567 0.000000
O187  O     O_2   0.954414 0.988494 0.586280 0.000000
O188  O     O_2   0.015040 0.925298 0.583383 0.000000
O189  O     O_3   0.043030 0.018738 0.576751 0.000000
H435  H     H_    0.835219 0.133023 0.666393 0.000000
H436  H     H_    0.892920 0.165056 0.676948 0.000000
H437  H     H_    0.855435 0.135206 0.705831 0.000000
H438  H     H_    0.828835 0.038803 0.683874 0.000000
H439  H     H_    0.869721 0.959080 0.670059 0.000000
H440  H     H_    0.963046 0.119472 0.664051 0.000000
H441  H     H_    0.020016 0.031320 0.561329 0.000000
C505  C     C_3   0.794762 0.726674 0.730460 0.000000
C506  C     C_R   0.842284 0.751158 0.722366 0.000000
C507  C     C_R   0.853880 0.753975 0.691927 0.000000
C508  C     C_R   0.884790 0.792088 0.682491 0.000000
C509  C     C_R   0.905527 0.823256 0.704544 0.000000
N127  N     N_R   0.924569 0.869422 0.700488 0.000000
C510  C     C_R   0.933593 0.886956 0.730212 0.000000
N128  N     N_R   0.923292 0.851452 0.751614 0.000000
C511  C     C_R   0.902544 0.813485 0.734551 0.000000
C512  C     C_R   0.870760 0.776582 0.744445 0.000000
S64   S     S_3+2 0.945168 0.952197 0.740638 0.000000
O190  O     O_2   0.988506 0.975839 0.722944 0.000000
O191  O     O_2   0.963772 0.959552 0.773586 0.000000
O192  O     O_3   0.896975 0.993085 0.738475 0.000000
H442  H     H_    0.768709 0.755106 0.739090 0.000000
H443  H     H_    0.802525 0.700745 0.748146 0.000000
H444  H     H_    0.777788 0.706897 0.710222 0.000000
H445  H     H_    0.832964 0.731334 0.675567 0.000000
H446  H     H_    0.888564 0.799661 0.658751 0.000000
H447  H     H_    0.862282 0.773207 0.768375 0.000000
H448  H     H_    0.881667 0.993531 0.759061 0.000000
C513  C     C_3   0.925458 0.891969 0.527737 0.000000
C514  C     C_R   0.885966 0.886503 0.551352 0.000000
C515  C     C_R   0.837959 0.873712 0.542006 0.000000
C516  C     C_R   0.800925 0.865505 0.563252 0.000000
C517  C     C_R   0.812331 0.872423 0.593715 0.000000
N129  N     N_R   0.782304 0.866399 0.618026 0.000000
C518  C     C_R   0.814752 0.874733 0.642263 0.000000
N130  N     N_R   0.863848 0.881912 0.633573 0.000000
C519  C     C_R   0.859731 0.883475 0.602944 0.000000
C520  C     C_R   0.897099 0.891046 0.582277 0.000000
S65   S     S_3+2 0.793601 0.878574 0.680972 0.000000
O193  O     O_2   0.750160 0.914409 0.685308 0.000000
O194  O     O_2   0.830696 0.901935 0.704239 0.000000
O195  O     O_3   0.773733 0.823337 0.695695 0.000000
H449  H     H_    0.926968 0.856653 0.513319 0.000000
H450  H     H_    0.962158 0.899220 0.538513 0.000000
H451  H     H_    0.916639 0.923854 0.513179 0.000000
H452  H     H_    0.829698 0.868654 0.517909 0.000000
H453  H     H_    0.764720 0.853447 0.555601 0.000000
H454  H     H_    0.934296 0.895277 0.590488 0.000000
H455  H     H_    0.770942 0.800399 0.677345 0.000000
C521  C     C_3   0.321435 0.529367 0.645275 0.000000
C522  C     C_R   0.330961 0.542165 0.613046 0.000000
C523  C     C_R   0.354236 0.508772 0.593126 0.000000
C524  C     C_R   0.355602 0.518421 0.562390 0.000000
C525  C     C_R   0.332271 0.559408 0.552926 0.000000
N131  N     N_R   0.315175 0.566795 0.524859 0.000000
C526  C     C_R   0.287743 0.610343 0.530148 0.000000
N132  N     N_R   0.296938 0.633247 0.558970 0.000000
C527  C     C_R   0.319887 0.596579 0.572766 0.000000
C528  C     C_R   0.318908 0.588740 0.603017 0.000000
S66   S     S_3+2 0.226118 0.612520 0.513613 0.000000
O196  O     O_2   0.210046 0.559600 0.501642 0.000000
O197  O     O_2   0.220121 0.641909 0.484363 0.000000
O198  O     O_3   0.177775 0.630133 0.537126 0.000000
H456  H     H_    0.286883 0.506729 0.646893 0.000000
H457  H     H_    0.315664 0.563624 0.659699 0.000000
H458  H     H_    0.353429 0.508737 0.653915 0.000000
H459  H     H_    0.369999 0.475357 0.601728 0.000000
H460  H     H_    0.371942 0.494605 0.545609 0.000000
H461  H     H_    0.307815 0.617866 0.618161 0.000000
H462  H     H_    0.153079 0.601914 0.534916 0.000000
C529  C     C_3   0.187341 0.515159 0.641659 0.000000
C530  C     C_R   0.133684 0.528175 0.640644 0.000000
C531  C     C_R   0.101177 0.492759 0.651517 0.000000
C532  C     C_R   0.051964 0.502182 0.654160 0.000000
C533  C     C_R   0.035183 0.547745 0.647424 0.000000
N133  N     N_R   0.989024 0.564316 0.651513 0.000000
C534  C     C_R   0.996157 0.615457 0.649298 0.000000
N134  N     N_R   0.045783 0.630835 0.645503 0.000000
C535  C     C_R   0.067637 0.585761 0.641566 0.000000
C536  C     C_R   0.115622 0.575375 0.633680 0.000000
S67   S     S_3+2 0.943904 0.654759 0.652065 0.000000
O199  O     O_2   0.901107 0.625929 0.666842 0.000000
O200  O     O_2   0.920634 0.664283 0.620961 0.000000
O201  O     O_3   0.947145 0.710981 0.672111 0.000000
H463  H     H_    0.191484 0.475428 0.647941 0.000000
H464  H     H_    0.206673 0.538959 0.659479 0.000000
H465  H     H_    0.205584 0.518950 0.619373 0.000000
H466  H     H_    0.114007 0.456549 0.658033 0.000000
H467  H     H_    0.029631 0.476970 0.665900 0.000000
H468  H     H_    0.136552 0.603752 0.622417 0.000000
H469  H     H_    0.977644 0.708559 0.684241 0.000000
C537  C     C_3   0.956193 0.390644 0.793551 0.000000
C538  C     C_R   0.968508 0.431003 0.771997 0.000000
C539  C     C_R   0.977061 0.419983 0.741699 0.000000
C540  C     C_R   0.974790 0.457645 0.721457 0.000000
C541  C     C_R   0.954803 0.502083 0.730592 0.000000
N135  N     N_R   0.931094 0.535571 0.713687 0.000000
C542  C     C_R   0.917576 0.570939 0.736850 0.000000
N136  N     N_R   0.932143 0.559251 0.766018 0.000000
C543  C     C_R   0.954469 0.515129 0.760665 0.000000
C544  C     C_R   0.966193 0.480663 0.781558 0.000000
S68   S     S_3+2 0.882468 0.626432 0.732410 0.000000
O202  O     O_2   0.914789 0.672695 0.725325 0.000000
O203  O     O_2   0.863633 0.642664 0.764222 0.000000
O204  O     O_3   0.830773 0.629924 0.710007 0.000000
H470  H     H_    0.955312 0.353148 0.781404 0.000000
H471  H     H_    0.918905 0.397440 0.803582 0.000000
H472  H     H_    0.984135 0.391434 0.811939 0.000000
H473  H     H_    0.982860 0.382364 0.733083 0.000000
H474  H     H_    0.986087 0.450350 0.699172 0.000000
H475  H     H_    0.960794 0.489270 0.804571 0.000000
H476  H     H_    0.802965 0.622882 0.724181 0.000000
C545  C     C_3   0.997326 0.368332 0.877613 0.000000
C546  C     C_R   0.990080 0.422251 0.870690 0.000000
C547  C     C_R   0.942130 0.439407 0.866413 0.000000
C548  C     C_R   0.934298 0.488698 0.858438 0.000000
C549  C     C_R   0.975277 0.520294 0.855706 0.000000
N137  N     N_R   0.977827 0.564594 0.841296 0.000000
C550  C     C_R   0.027628 0.577239 0.844840 0.000000
N138  N     N_R   0.056766 0.541139 0.857828 0.000000
C551  C     C_R   0.022191 0.504747 0.862993 0.000000
C552  C     C_R   0.030859 0.455043 0.868597 0.000000
S69   S     S_3+2 0.053111 0.634546 0.833941 0.000000
O205  O     O_2   0.087259 0.630480 0.806228 0.000000
O206  O     O_2   0.091509 0.644833 0.858713 0.000000
O207  O     O_3   0.026803 0.691837 0.834934 0.000000
H477  H     H_    0.977555 0.359597 0.899092 0.000000
H478  H     H_    0.037477 0.360951 0.880272 0.000000
H479  H     H_    0.982004 0.343575 0.858723 0.000000
H480  H     H_    0.910702 0.413422 0.868087 0.000000
H481  H     H_    0.897475 0.500962 0.852944 0.000000
H482  H     H_    0.068334 0.441911 0.870906 0.000000
H483  H     H_    0.037037 0.705905 0.855219 0.000000
C553  C     C_3   0.515204 0.371491 0.599299 0.000000
C554  C     C_R   0.517106 0.388207 0.632070 0.000000
C555  C     C_R   0.562536 0.396768 0.646034 0.000000
C556  C     C_R   0.563772 0.420650 0.674535 0.000000
C557  C     C_R   0.520850 0.436467 0.687648 0.000000
N139  N     N_R   0.517110 0.456585 0.716202 0.000000
C558  C     C_R   0.474953 0.431294 0.726629 0.000000
N140  N     N_R   0.451948 0.399455 0.704441 0.000000
C559  C     C_R   0.480236 0.408497 0.679743 0.000000
C560  C     C_R   0.474583 0.391917 0.649856 0.000000
S70   S     S_3+2 0.454040 0.438813 0.765441 0.000000
O208  O     O_2   0.477330 0.486938 0.780672 0.000000
O209  O     O_2   0.474749 0.398602 0.785829 0.000000
O210  O     O_3   0.391941 0.441494 0.774189 0.000000
H484  H     H_    0.530041 0.402418 0.585383 0.000000
H485  H     H_    0.476507 0.361833 0.592471 0.000000
H486  H     H_    0.538634 0.338080 0.595295 0.000000
H487  H     H_    0.596596 0.385605 0.634742 0.000000
H488  H     H_    0.593771 0.415287 0.689189 0.000000
H489  H     H_    0.438512 0.386629 0.640011 0.000000
H490  H     H_    0.390113 0.466723 0.791434 0.000000
C561  C     C_3   0.514536 0.233479 0.615685 0.000000
C562  C     C_R   0.464280 0.254909 0.612619 0.000000
C563  C     C_R   0.438619 0.250359 0.585061 0.000000
C564  C     C_R   0.392622 0.272163 0.582174 0.000000
C565  C     C_R   0.373096 0.297659 0.607311 0.000000
N141  N     N_R   0.329742 0.322348 0.609376 0.000000
C566  C     C_R   0.331503 0.341980 0.639017 0.000000
N142  N     N_R   0.372458 0.328745 0.655724 0.000000
C567  C     C_R   0.397872 0.301115 0.634535 0.000000
C568  C     C_R   0.443937 0.280651 0.637488 0.000000
S71   S     S_3+2 0.294998 0.392546 0.649849 0.000000
O211  O     O_2   0.290544 0.425863 0.622407 0.000000
O212  O     O_2   0.323566 0.427921 0.672251 0.000000
O213  O     O_3   0.235914 0.384145 0.663182 0.000000
H491  H     H_    0.526530 0.215894 0.593580 0.000000
H492  H     H_    0.513405 0.205038 0.633562 0.000000
H493  H     H_    0.541611 0.263841 0.622828 0.000000
H494  H     H_    0.454684 0.230400 0.565546 0.000000
H495  H     H_    0.373338 0.269703 0.560592 0.000000
H496  H     H_    0.465469 0.287091 0.657811 0.000000
H497  H     H_    0.224071 0.353693 0.651441 0.000000
C569  C     C_3   0.021424 0.279919 0.221379 0.000000
C570  C     C_R   0.974475 0.251360 0.213724 0.000000
C571  C     C_R   0.975518 0.199234 0.210388 0.000000
C572  C     C_R   0.931951 0.171107 0.206853 0.000000
C573  C     C_R   0.887523 0.195879 0.207873 0.000000
N143  N     N_R   0.840567 0.176013 0.207457 0.000000
C574  C     C_R   0.813507 0.219050 0.207101 0.000000
N144  N     N_R   0.839718 0.263909 0.204922 0.000000
C575  C     C_R   0.886892 0.247790 0.207420 0.000000
C576  C     C_R   0.930124 0.276226 0.210500 0.000000
S72   S     S_3+2 0.750676 0.217375 0.209512 0.000000
O214  O     O_2   0.727569 0.168022 0.197298 0.000000
O215  O     O_2   0.736571 0.250724 0.184307 0.000000
O216  O     O_3   0.718639 0.239644 0.240834 0.000000
H498  H     H_    0.038503 0.263651 0.241691 0.000000
H499  H     H_    0.013659 0.320113 0.226982 0.000000
H500  H     H_    0.047658 0.276795 0.201832 0.000000
H501  H     H_    0.010609 0.180253 0.211262 0.000000
H502  H     H_    0.933901 0.131050 0.203054 0.000000
H503  H     H_    0.929635 0.316548 0.211604 0.000000
H504  H     H_    0.744666 0.255186 0.254332 0.000000
C577  C     C_3   0.942763 0.225175 0.550116 0.000000
C578  C     C_R   0.970908 0.205372 0.576099 0.000000
C579  C     C_R   0.975101 0.153365 0.578458 0.000000
C580  C     C_R   0.000889 0.133662 0.602433 0.000000
C581  C     C_R   0.022291 0.166949 0.623523 0.000000
N145  N     N_R   0.047842 0.156299 0.648996 0.000000
C582  C     C_R   0.052909 0.203909 0.663362 0.000000
N146  N     N_R   0.040628 0.242618 0.644773 0.000000
C583  C     C_R   0.018230 0.217948 0.621085 0.000000
C584  C     C_R   0.992639 0.238489 0.597785 0.000000
S73   S     S_3+2 0.031242 0.210980 0.701704 0.000000
O217  O     O_2   0.031757 0.154990 0.692884 0.000000
O218  O     O_2   0.974432 0.204003 0.702973 0.000000
O219  O     O_3   0.051071 0.188579 0.735544 0.000000
H505  H     H_    0.960356 0.212512 0.528268 0.000000
H506  H     H_    0.942907 0.267039 0.551661 0.000000
H507  H     H_    0.903793 0.210530 0.550789 0.000000
H508  H     H_    0.957728 0.127979 0.561492 0.000000
H509  H     H_    0.003175 0.093569 0.604760 0.000000
H510  H     H_    0.989537 0.278969 0.596684 0.000000
H511  H     H_    0.022315 0.193002 0.749498 0.000000
C585  C     C_3   0.996793 0.851353 0.901710 0.000000
C586  C     C_R   0.043106 0.847396 0.917003 0.000000
C587  C     C_R   0.045810 0.868034 0.945812 0.000000
C588  C     C_R   0.091004 0.875031 0.959209 0.000000
C589  C     C_R   0.132061 0.856235 0.944918 0.000000
N147  N     N_R   0.177926 0.870989 0.954161 0.000000
C590  C     C_R   0.194348 0.893334 0.927197 0.000000
N148  N     N_R   0.162832 0.885056 0.902021 0.000000
C591  C     C_R   0.127964 0.855838 0.914096 0.000000
C592  C     C_R   0.085069 0.842783 0.899897 0.000000
S74   S     S_3+2 0.247096 0.934901 0.925603 0.000000
O220  O     O_2   0.251058 0.970455 0.954104 0.000000
O221  O     O_2   0.243459 0.973209 0.900467 0.000000
O222  O     O_3   0.303775 0.907847 0.920414 0.000000
H512  H     H_    0.969324 0.824722 0.911596 0.000000
H513  H     H_    0.003712 0.844346 0.877311 0.000000
H514  H     H_    0.987165 0.891392 0.905194 0.000000
H515  H     H_    0.013158 0.883832 0.956305 0.000000
H516  H     H_    0.094430 0.905016 0.975836 0.000000
H517  H     H_    0.084241 0.836095 0.875633 0.000000
H518  H     H_    0.295878 0.874799 0.910027 0.000000
C593  C     C_3   0.350083 0.924552 0.856177 0.000000
C594  C     C_R   0.315845 0.884584 0.842821 0.000000
C595  C     C_R   0.335549 0.841310 0.829270 0.000000
C596  C     C_R   0.304732 0.804682 0.815483 0.000000
C597  C     C_R   0.254270 0.812649 0.815050 0.000000
N149  N     N_R   0.217336 0.780103 0.805700 0.000000
C598  C     C_R   0.175472 0.803661 0.816598 0.000000
N150  N     N_R   0.184904 0.850475 0.830616 0.000000
C599  C     C_R   0.234944 0.854037 0.829613 0.000000
C600  C     C_R   0.264773 0.890368 0.843804 0.000000
S75   S     S_3+2 0.122490 0.765674 0.824471 0.000000
O223  O     O_2   0.126332 0.717902 0.804109 0.000000
O224  O     O_2   0.070854 0.782653 0.815604 0.000000
O225  O     O_3   0.118425 0.743691 0.860510 0.000000
H519  H     H_    0.372773 0.908520 0.874376 0.000000
H520  H     H_    0.328626 0.956609 0.865886 0.000000
H521  H     H_    0.375192 0.938581 0.838123 0.000000
H522  H     H_    0.375340 0.836418 0.829120 0.000000
H523  H     H_    0.320505 0.771343 0.805305 0.000000
H524  H     H_    0.248552 0.922930 0.854611 0.000000
H525  H     H_    0.138954 0.767987 0.872979 0.000000
C601  C     C_3   0.002505 0.049800 0.897090 0.000000
C602  C     C_R   0.995950 0.002950 0.877719 0.000000
C603  C     C_R   0.952164 0.994119 0.861423 0.000000
C604  C     C_R   0.947735 0.953007 0.841213 0.000000
C605  C     C_R   0.988448 0.923137 0.836840 0.000000
N151  N     N_R   0.992693 0.883085 0.817167 0.000000
C606  C     C_R   0.043757 0.877001 0.817363 0.000000
N152  N     N_R   0.068040 0.901515 0.841836 0.000000
C607  C     C_R   0.031941 0.932473 0.852318 0.000000
C608  C     C_R   0.035200 0.970305 0.874314 0.000000
S76   S     S_3+2 0.072773 0.886134 0.782004 0.000000
O226  O     O_2   0.033916 0.886380 0.756689 0.000000
O227  O     O_2   0.107314 0.844513 0.770727 0.000000
O228  O     O_3   0.103936 0.942786 0.779066 0.000000
H526  H     H_    0.967770 0.071439 0.897688 0.000000
H527  H     H_    0.031711 0.073551 0.886665 0.000000
H528  H     H_    0.013795 0.040345 0.920465 0.000000
H529  H     H_    0.921490 0.019580 0.864094 0.000000
H530  H     H_    0.914023 0.946057 0.828314 0.000000
H531  H     H_    0.066835 0.973982 0.888718 0.000000
H532  H     H_    0.077369 0.967958 0.778324 0.000000
C609  C     C_3   0.108672 0.154607 0.903577 0.000000
C610  C     C_R   0.128356 0.106862 0.889666 0.000000
C611  C     C_R   0.132454 0.065132 0.907542 0.000000
C612  C     C_R   0.146038 0.019262 0.894385 0.000000
C613  C     C_R   0.158226 0.017273 0.863882 0.000000
N153  N     N_R   0.169212 0.976315 0.846228 0.000000
C614  C     C_R   0.185410 0.997948 0.819854 0.000000
N154  N     N_R   0.182939 0.049578 0.819668 0.000000
C615  C     C_R   0.162765 0.060084 0.847647 0.000000
C616  C     C_R   0.142071 0.103958 0.859100 0.000000
S77   S     S_3+2 0.218615 0.966607 0.791568 0.000000
O229  O     O_2   0.274028 0.968999 0.799390 0.000000
O230  O     O_2   0.217799 0.001003 0.764588 0.000000
O231  O     O_3   0.204323 0.907959 0.776276 0.000000
H533  H     H_    0.071131 0.147306 0.913219 0.000000
H534  H     H_    0.106154 0.183628 0.886135 0.000000
H535  H     H_    0.133828 0.168786 0.922204 0.000000
H536  H     H_    0.121927 0.067635 0.931401 0.000000
H537  H     H_    0.145958 0.985915 0.907745 0.000000
H538  H     H_    0.136072 0.135302 0.844828 0.000000
H539  H     H_    0.185477 0.915322 0.757764 0.000000
C617  C     C_3   0.069117 0.420485 0.122849 0.000000
C618  C     C_R   0.080707 0.457348 0.148583 0.000000
C619  C     C_R   0.128673 0.476613 0.151461 0.000000
C620  C     C_R   0.139114 0.515633 0.172308 0.000000
C621  C     C_R   0.104210 0.530345 0.193505 0.000000
N155  N     N_R   0.107957 0.567571 0.215800 0.000000
C622  C     C_R   0.057421 0.576053 0.221671 0.000000
N156  N     N_R   0.024569 0.546926 0.202883 0.000000
C623  C     C_R   0.055989 0.516298 0.187813 0.000000
C624  C     C_R   0.043190 0.479537 0.165995 0.000000
S78   S     S_3+2 0.035559 0.619063 0.251611 0.000000
O232  O     O_2   0.027124 0.564819 0.261644 0.000000
O233  O     O_2   0.005589 0.622164 0.222193 0.000000
O234  O     O_3   0.097027 0.625621 0.243750 0.000000
H540  H     H_    0.103211 0.412213 0.109433 0.000000
H541  H     H_    0.041623 0.436754 0.107454 0.000000
H542  H     H_    0.054475 0.384626 0.131818 0.000000
H543  H     H_    0.156928 0.465713 0.135020 0.000000
H544  H     H_    0.169472 0.539661 0.167137 0.000000
H545  H     H_    0.004715 0.471801 0.161165 0.000000
H546  H     H_    0.111640 0.635075 0.264004 0.000000
C625  C     C_3   0.929777 0.357667 0.304972 0.000000
C626  C     C_R   0.926215 0.388806 0.277572 0.000000
C627  C     C_R   0.959286 0.429143 0.274096 0.000000
C628  C     C_R   0.958036 0.457222 0.248177 0.000000
C629  C     C_R   0.920788 0.447412 0.227238 0.000000
N157  N     N_R   0.919414 0.464265 0.198561 0.000000
C630  C     C_R   0.896724 0.422672 0.183556 0.000000
N158  N     N_R   0.867868 0.393542 0.202885 0.000000
C631  C     C_R   0.890045 0.405834 0.229845 0.000000
C632  C     C_R   0.892374 0.375673 0.254710 0.000000
S79   S     S_3+2 0.942007 0.386228 0.162238 0.000000
O235  O     O_2   0.959780 0.405980 0.131649 0.000000
O236  O     O_2   0.923532 0.333099 0.152920 0.000000
O237  O     O_3   0.995895 0.375822 0.181514 0.000000
H547  H     H_    0.967218 0.341071 0.305749 0.000000
H548  H     H_    0.901097 0.326866 0.304023 0.000000
H549  H     H_    0.923927 0.381933 0.325849 0.000000
H550  H     H_    0.987916 0.437114 0.291020 0.000000
H551  H     H_    0.987782 0.483657 0.243608 0.000000
H552  H     H_    0.869903 0.341373 0.255551 0.000000
H553  H     H_    0.008654 0.344565 0.171510 0.000000
C633  C     C_3   0.863842 0.396795 0.101026 0.000000
C634  C     C_R   0.885545 0.447258 0.096197 0.000000
C635  C     C_R   0.902684 0.458790 0.067664 0.000000
C636  C     C_R   0.925005 0.504598 0.063195 0.000000
C637  C     C_R   0.931096 0.536951 0.087955 0.000000
N159  N     N_R   0.957532 0.579858 0.088081 0.000000
C638  C     C_R   0.973867 0.583324 0.118297 0.000000
N160  N     N_R   0.949504 0.549859 0.137418 0.000000
C639  C     C_R   0.923030 0.521529 0.116631 0.000000
C640  C     C_R   0.893655 0.480295 0.120868 0.000000
S80   S     S_3+2 0.036260 0.603884 0.126868 0.000000
O238  O     O_2   0.064113 0.630150 0.101224 0.000000
O239  O     O_2   0.069141 0.558338 0.129217 0.000000
O240  O     O_3   0.047166 0.637994 0.159973 0.000000
H554  H     H_    0.856906 0.393177 0.125576 0.000000
H555  H     H_    0.889674 0.367414 0.092576 0.000000
H556  H     H_    0.828451 0.392829 0.089035 0.000000
H557  H     H_    0.899717 0.431925 0.049016 0.000000
H558  H     H_    0.943664 0.511212 0.041964 0.000000
H559  H     H_    0.878118 0.473849 0.142581 0.000000
H560  H     H_    0.013912 0.639126 0.169315 0.000000
C641  C     C_3   0.896921 0.347696 0.016138 0.000000
C642  C     C_R   0.849516 0.373850 0.010361 0.000000
C643  C     C_R   0.848760 0.405084 0.986355 0.000000
C644  C     C_R   0.808594 0.434633 0.982920 0.000000
C645  C     C_R   0.768496 0.430417 0.001582 0.000000
N161  N     N_R   0.726646 0.456301 0.999708 0.000000
C646  C     C_R   0.694034 0.428131 0.017160 0.000000
N162  N     N_R   0.717545 0.392106 0.034069 0.000000
C647  C     C_R   0.764854 0.394730 0.022536 0.000000
C648  C     C_R   0.807592 0.369308 0.028959 0.000000
S81   S     S_3+2 0.633031 0.413964 0.001765 0.000000
O241  O     O_2   0.606236 0.460986 0.991798 0.000000
O242  O     O_2   0.595949 0.391760 0.024592 0.000000
O243  O     O_3   0.629513 0.373386 0.970258 0.000000
H561  H     H_    0.900433 0.314848 0.999831 0.000000
H562  H     H_    0.898410 0.335826 0.040051 0.000000
H563  H     H_    0.928885 0.373960 0.012319 0.000000
H564  H     H_    0.880081 0.407668 0.970949 0.000000
H565  H     H_    0.805969 0.456205 0.963654 0.000000
H566  H     H_    0.810787 0.349474 0.048748 0.000000
H567  H     H_    0.611590 0.343068 0.977552 0.000000
C649  C     C_3   0.772679 0.367649 0.904560 0.000000
C650  C     C_R   0.755785 0.419585 0.899401 0.000000
C651  C     C_R   0.754663 0.436551 0.870022 0.000000
C652  C     C_R   0.736979 0.483796 0.865032 0.000000
C653  C     C_R   0.725630 0.515002 0.889580 0.000000
N163  N     N_R   0.704068 0.560124 0.889015 0.000000
C654  C     C_R   0.692825 0.569518 0.919629 0.000000
N164  N     N_R   0.716157 0.536716 0.939063 0.000000
C655  C     C_R   0.730263 0.500011 0.918638 0.000000
C656  C     C_R   0.739942 0.450360 0.923613 0.000000
S82   S     S_3+2 0.627968 0.577149 0.925564 0.000000
O244  O     O_2   0.603089 0.560658 0.895208 0.000000
O245  O     O_2   0.608780 0.631064 0.929322 0.000000
O246  O     O_3   0.596513 0.538632 0.949947 0.000000
H568  H     H_    0.746928 0.339818 0.892930 0.000000
H569  H     H_    0.773856 0.361104 0.929383 0.000000
H570  H     H_    0.810662 0.363297 0.894995 0.000000
H571  H     H_    0.764263 0.411631 0.850853 0.000000
H572  H     H_    0.728359 0.494037 0.842560 0.000000
H573  H     H_    0.732346 0.434425 0.945148 0.000000
H574  H     H_    0.580660 0.512176 0.936360 0.000000
C657  C     C_3   0.975096 0.463688 0.942815 0.000000
C658  C     C_R   0.937354 0.501279 0.951332 0.000000
C659  C     C_R   0.893504 0.502644 0.934833 0.000000
C660  C     C_R   0.852753 0.526450 0.947276 0.000000
C661  C     C_R   0.855918 0.543638 0.976972 0.000000
N165  N     N_R   0.818553 0.553693 0.997225 0.000000
C662  C     C_R   0.847451 0.573561 0.022028 0.000000
N166  N     N_R   0.898056 0.574264 0.017470 0.000000
C663  C     C_R   0.901867 0.552077 0.989787 0.000000
C664  C     C_R   0.943573 0.530941 0.977591 0.000000
S83   S     S_3+2 0.829421 0.600195 0.057512 0.000000
O247  O     O_2   0.787641 0.637343 0.059242 0.000000
O248  O     O_2   0.871643 0.636962 0.066536 0.000000
O249  O     O_3   0.827439 0.565148 0.088846 0.000000
H575  H     H_    0.001700 0.459815 0.961828 0.000000
H576  H     H_    0.994803 0.476838 0.922636 0.000000
H577  H     H_    0.956492 0.426551 0.937721 0.000000
H578  H     H_    0.888735 0.480001 0.914050 0.000000
H579  H     H_    0.817678 0.522958 0.936136 0.000000
H580  H     H_    0.977867 0.531371 0.990357 0.000000
H581  H     H_    0.806450 0.586025 0.102346 0.000000
C665  C     C_3   0.899740 0.034831 0.944753 0.000000
C666  C     C_R   0.904145 0.988719 0.962552 0.000000
C667  C     C_R   0.950147 0.974392 0.972939 0.000000
C668  C     C_R   0.952850 0.936936 0.993775 0.000000
C669  C     C_R   0.909454 0.914541 0.003352 0.000000
N167  N     N_R   0.903617 0.885511 0.027635 0.000000
C670  C     C_R   0.852037 0.880777 0.029590 0.000000
N168  N     N_R   0.826485 0.901807 0.005756 0.000000
C671  C     C_R   0.864512 0.924984 0.990911 0.000000
C672  C     C_R   0.861346 0.963128 0.971064 0.000000
S84   S     S_3+2 0.823562 0.877580 0.066221 0.000000
O250  O     O_2   0.862293 0.868712 0.090601 0.000000
O251  O     O_2   0.789947 0.831261 0.069113 0.000000
O252  O     O_3   0.790586 0.926873 0.081564 0.000000
H582  H     H_    0.935175 0.056829 0.945761 0.000000
H583  H     H_    0.870675 0.058847 0.955250 0.000000
H584  H     H_    0.889523 0.024178 0.920794 0.000000
H585  H     H_    0.983801 0.994235 0.966286 0.000000
H586  H     H_    0.987901 0.927516 0.003188 0.000000
H587  H     H_    0.826387 0.977173 0.965587 0.000000
H588  H     H_    0.781905 0.916329 0.102383 0.000000
C673  C     C_3   0.557136 0.072215 0.972858 0.000000
C674  C     C_R   0.595362 0.041684 0.987625 0.000000
C675  C     C_R   0.602511 0.992615 0.976730 0.000000
C676  C     C_R   0.642158 0.965636 0.986763 0.000000
C677  C     C_R   0.674424 0.988388 0.007480 0.000000
N169  N     N_R   0.719311 0.972311 0.016469 0.000000
C678  C     C_R   0.735745 0.013044 0.035184 0.000000
N170  N     N_R   0.701704 0.051061 0.038844 0.000000
C679  C     C_R   0.664967 0.035047 0.019917 0.000000
C680  C     C_R   0.625681 0.062590 0.010589 0.000000
S85   S     S_3+2 0.799151 0.027158 0.044049 0.000000
O253  O     O_2   0.834491 0.984299 0.038410 0.000000
O254  O     O_2   0.807334 0.036451 0.078278 0.000000
O255  O     O_3   0.827218 0.076578 0.026067 0.000000
H589  H     H_    0.564913 0.072884 0.947980 0.000000
H590  H     H_    0.558355 0.111567 0.982425 0.000000
H591  H     H_    0.519720 0.054845 0.976396 0.000000
H592  H     H_    0.578322 0.976088 0.959154 0.000000
H593  H     H_    0.647862 0.928781 0.977515 0.000000
H594  H     H_    0.621967 0.100937 0.018936 0.000000
H595  H     H_    0.843235 0.060686 0.007862 0.000000
C681  C     C_3   0.774672 0.075162 0.925535 0.000000
C682  C     C_R   0.765470 0.020671 0.917404 0.000000
C683  C     C_R   0.772180 0.003179 0.887467 0.000000
C684  C     C_R   0.757508 0.954488 0.878662 0.000000
C685  C     C_R   0.736553 0.924368 0.900233 0.000000
N171  N     N_R   0.711754 0.879638 0.895821 0.000000
C686  C     C_R   0.701957 0.867037 0.926121 0.000000
N172  N     N_R   0.724217 0.900449 0.948254 0.000000
C687  C     C_R   0.739963 0.938131 0.930513 0.000000
C688  C     C_R   0.749821 0.987654 0.939401 0.000000
S86   S     S_3+2 0.649841 0.825129 0.935049 0.000000
O256  O     O_2   0.632530 0.870503 0.917438 0.000000
O257  O     O_2   0.668989 0.848258 0.965301 0.000000
O258  O     O_3   0.697982 0.796653 0.916597 0.000000
H596  H     H_    0.812589 0.086655 0.918132 0.000000
H597  H     H_    0.770884 0.082325 0.950560 0.000000
H598  H     H_    0.747206 0.097804 0.913533 0.000000
H599  H     H_    0.785747 0.028667 0.870486 0.000000
H600  H     H_    0.759155 0.942380 0.855160 0.000000
H601  H     H_    0.745716 0.000650 0.962845 0.000000
H602  H     H_    0.691721 0.760220 0.919610 0.000000
C689  C     C_3   0.162760 0.038227 0.025801 0.000000
C690  C     C_R   0.129285 0.993915 0.031220 0.000000
C691  C     C_R   0.082640 0.001193 0.043960 0.000000
C692  C     C_R   0.050228 0.960612 0.047833 0.000000
C693  C     C_R   0.065302 0.912895 0.040047 0.000000
N173  N     N_R   0.037558 0.869452 0.037364 0.000000
C694  C     C_R   0.071487 0.836331 0.024607 0.000000
N174  N     N_R   0.118599 0.857227 0.020478 0.000000
C695  C     C_R   0.112404 0.905694 0.029591 0.000000
C696  C     C_R   0.144276 0.945555 0.023417 0.000000
S87   S     S_3+2 0.051520 0.776848 0.008481 0.000000
O259  O     O_2   0.018631 0.819692 0.999338 0.000000
O260  O     O_2   0.050973 0.780590 0.043189 0.000000
O261  O     O_3   0.109620 0.794013 0.997629 0.000000
H603  H     H_    0.198420 0.025631 0.015612 0.000000
H604  H     H_    0.170415 0.058972 0.047869 0.000000
H605  H     H_    0.144435 0.063631 0.009990 0.000000
H606  H     H_    0.070531 0.039073 0.049566 0.000000
H607  H     H_    0.013282 0.967052 0.054454 0.000000
H608  H     H_    0.179155 0.939447 0.011823 0.000000
H609  H     H_    0.114397 0.773901 0.978452 0.000000
C697  C     C_3   0.876773 0.681189 0.942929 0.000000
C698  C     C_R   0.888799 0.711504 0.970940 0.000000
C699  C     C_R   0.905851 0.760232 0.968968 0.000000
C700  C     C_R   0.919625 0.787544 0.994968 0.000000
C701  C     C_R   0.925073 0.762455 0.021703 0.000000
N175  N     N_R   0.949630 0.778527 0.047225 0.000000
C702  C     C_R   0.959381 0.733229 0.060462 0.000000
N176  N     N_R   0.941675 0.690703 0.044359 0.000000
C703  C     C_R   0.917001 0.711836 0.021432 0.000000
C704  C     C_R   0.890601 0.688575 0.998175 0.000000
S88   S     S_3+2 0.994744 0.728602 0.093715 0.000000
O262  O     O_2   0.050634 0.722999 0.090114 0.000000
O263  O     O_2   0.991745 0.675838 0.078652 0.000000
O264  O     O_3   0.977085 0.696947 0.124966 0.000000
H610  H     H_    0.843994 0.697071 0.932541 0.000000
H611  H     H_    0.869596 0.641010 0.947781 0.000000
H612  H     H_    0.908390 0.683642 0.927010 0.000000
H613  H     H_    0.910188 0.776254 0.946857 0.000000
H614  H     H_    0.934016 0.824606 0.991902 0.000000
H615  H     H_    0.878759 0.650951 0.998545 0.000000
H616  H     H_    0.000193 0.711022 0.140765 0.000000
C705  C     C_3   0.840668 0.847396 0.937826 0.000000
C706  C     C_R   0.842851 0.851590 0.904986 0.000000
C707  C     C_R   0.885874 0.870091 0.893445 0.000000
C708  C     C_R   0.897908 0.856046 0.864164 0.000000
C709  C     C_R   0.860344 0.844577 0.845018 0.000000
N177  N     N_R   0.861846 0.852162 0.815393 0.000000
C710  C     C_R   0.812115 0.859177 0.808907 0.000000
N178  N     N_R   0.780615 0.848412 0.833430 0.000000
C711  C     C_R   0.813730 0.840427 0.855419 0.000000
C712  C     C_R   0.805941 0.833324 0.885632 0.000000
S89   S     S_3+2 0.794887 0.898867 0.778030 0.000000
O265  O     O_2   0.846368 0.915218 0.790361 0.000000
O266  O     O_2   0.760063 0.907867 0.805155 0.000000
O267  O     O_3   0.794790 0.836217 0.769188 0.000000
H617  H     H_    0.813727 0.874418 0.946972 0.000000
H618  H     H_    0.877595 0.856311 0.947840 0.000000
H619  H     H_    0.831786 0.807755 0.942033 0.000000
H620  H     H_    0.910974 0.890294 0.908598 0.000000
H621  H     H_    0.934090 0.858117 0.855639 0.000000
H622  H     H_    0.773190 0.815132 0.893727 0.000000
H623  H     H_    0.759529 0.828508 0.764685 0.000000
C713  C     C_3   0.029538 0.631327 0.718995 0.000000
C714  C     C_R   0.018695 0.670382 0.742724 0.000000
C715  C     C_R   0.020851 0.721851 0.737490 0.000000
C716  C     C_R   0.997701 0.755728 0.757361 0.000000
C717  C     C_R   0.968413 0.736031 0.779800 0.000000
N179  N     N_R   0.941234 0.760748 0.801077 0.000000
C718  C     C_R   0.924392 0.721164 0.818981 0.000000
N180  N     N_R   0.935830 0.673595 0.806736 0.000000
C719  C     C_R   0.965961 0.685606 0.783758 0.000000
C720  C     C_R   0.995533 0.653330 0.768002 0.000000
S90   S     S_3+2 0.928210 0.729760 0.859470 0.000000
O268  O     O_2   0.972230 0.766534 0.863306 0.000000
O269  O     O_2   0.951677 0.685381 0.875114 0.000000
O270  O     O_3   0.886832 0.756114 0.884616 0.000000
H624  H     H_    0.052612 0.646788 0.700950 0.000000
H625  H     H_    0.993938 0.617814 0.709055 0.000000
H626  H     H_    0.046273 0.598570 0.729427 0.000000
H627  H     H_    0.038342 0.735707 0.717281 0.000000
H628  H     H_    0.000636 0.795673 0.754204 0.000000
H629  H     H_    0.999182 0.614943 0.774158 0.000000
H630  H     H_    0.862677 0.728861 0.888514 0.000000
C721  C     C_3   0.667858 0.057719 0.853131 0.000000
C722  C     C_R   0.660134 0.016099 0.829656 0.000000
C723  C     C_R   0.649001 0.027797 0.799825 0.000000
C724  C     C_R   0.635166 0.989924 0.778659 0.000000
C725  C     C_R   0.634346 0.941100 0.787986 0.000000
N181  N     N_R   0.617587 0.899557 0.772161 0.000000
C726  C     C_R   0.637184 0.861558 0.790001 0.000000
N182  N     N_R   0.660341 0.878831 0.816995 0.000000
C727  C     C_R   0.654845 0.929201 0.815275 0.000000
C728  C     C_R   0.663499 0.966103 0.837504 0.000000
S91   S     S_3+2 0.639474 0.795904 0.779151 0.000000
O271  O     O_2   0.621623 0.760138 0.803604 0.000000
O272  O     O_2   0.685883 0.805102 0.798634 0.000000
O273  O     O_3   0.680133 0.762953 0.756272 0.000000
H631  H     H_    0.700848 0.081100 0.846912 0.000000
H632  H     H_    0.673684 0.042098 0.875917 0.000000
H633  H     H_    0.634488 0.081566 0.854093 0.000000
H634  H     H_    0.647706 0.066852 0.793667 0.000000
H635  H     H_    0.623471 0.998747 0.756000 0.000000
H636  H     H_    0.668574 0.956145 0.860754 0.000000
H637  H     H_    0.693122 0.737018 0.769521 0.000000
C729  C     C_3   0.508822 0.673268 0.878929 0.000000
C730  C     C_R   0.557874 0.698681 0.873728 0.000000
C731  C     C_R   0.561367 0.751153 0.875657 0.000000
C732  C     C_R   0.605900 0.776018 0.869601 0.000000
C733  C     C_R   0.646817 0.747269 0.863560 0.000000
N183  N     N_R   0.691532 0.764017 0.853719 0.000000
C734  C     C_R   0.715112 0.718798 0.846583 0.000000
N184  N     N_R   0.687080 0.675354 0.852942 0.000000
C735  C     C_R   0.643883 0.695482 0.862570 0.000000
C736  C     C_R   0.599237 0.670392 0.866161 0.000000
S92   S     S_3+2 0.770311 0.717212 0.823540 0.000000
O274  O     O_2   0.817787 0.732492 0.840768 0.000000
O275  O     O_2   0.769182 0.759252 0.801063 0.000000
O276  O     O_3   0.785456 0.667474 0.800021 0.000000
H638  H     H_    0.481135 0.688077 0.863084 0.000000
H639  H     H_    0.496674 0.681458 0.902815 0.000000
H640  H     H_    0.511534 0.631833 0.874928 0.000000
H641  H     H_    0.528528 0.772782 0.880661 0.000000
H642  H     H_    0.608005 0.816666 0.868572 0.000000
H643  H     H_    0.596322 0.630180 0.861931 0.000000
H644  H     H_    0.762525 0.669513 0.782757 0.000000
C737  C     C_3   0.078686 0.714741 0.924479 0.000000
C738  C     C_R   0.063215 0.685326 0.951119 0.000000
C739  C     C_R   0.013205 0.678701 0.957127 0.000000
C740  C     C_R   0.997876 0.649974 0.981017 0.000000
C741  C     C_R   0.032617 0.631938 0.999852 0.000000
N185  N     N_R   0.024233 0.604128 0.024316 0.000000
C742  C     C_R   0.070778 0.585650 0.029894 0.000000
N186  N     N_R   0.107372 0.604823 0.011042 0.000000
C743  C     C_R   0.081306 0.633695 0.992447 0.000000
C744  C     C_R   0.097901 0.660289 0.967829 0.000000
S93   S     S_3+2 0.079692 0.530960 0.051738 0.000000
O277  O     O_2   0.035994 0.520896 0.073141 0.000000
O278  O     O_2   0.122990 0.536596 0.074482 0.000000
O279  O     O_3   0.086121 0.473816 0.032696 0.000000
H645  H     H_    0.094098 0.688386 0.907270 0.000000
H646  H     H_    0.107546 0.743511 0.930993 0.000000
H647  H     H_    0.046400 0.733507 0.914594 0.000000
H648  H     H_    0.986323 0.694250 0.942257 0.000000
H649  H     H_    0.960354 0.637484 0.983172 0.000000
H650  H     H_    0.135801 0.659510 0.960192 0.000000
H651  H     H_    0.051583 0.460761 0.029707 0.000000
C745  C     C_3   0.068466 0.797569 0.536778 0.000000
C746  C     C_R   0.112701 0.784134 0.555040 0.000000
C747  C     C_R   0.160191 0.797072 0.546072 0.000000
C748  C     C_R   0.199239 0.781355 0.563279 0.000000
C749  C     C_R   0.190434 0.745016 0.583883 0.000000
N187  N     N_R   0.223536 0.716940 0.597951 0.000000
C750  C     C_R   0.195949 0.698407 0.621527 0.000000
N188  N     N_R   0.146236 0.711257 0.621493 0.000000
C751  C     C_R   0.144848 0.740254 0.596594 0.000000
C752  C     C_R   0.106506 0.764968 0.583595 0.000000
S94   S     S_3+2 0.220193 0.651325 0.643589 0.000000
O280  O     O_2   0.222676 0.605411 0.621659 0.000000
O281  O     O_2   0.182249 0.632886 0.666584 0.000000
O282  O     O_3   0.275852 0.651667 0.662263 0.000000
H652  H     H_    0.079934 0.822121 0.517951 0.000000
H653  H     H_    0.040752 0.817106 0.551559 0.000000
H654  H     H_    0.050777 0.762396 0.526892 0.000000
H655  H     H_    0.166658 0.821216 0.527095 0.000000
H656  H     H_    0.235581 0.796371 0.560255 0.000000
H657  H     H_    0.074342 0.774928 0.595395 0.000000
H658  H     H_    0.271028 0.626270 0.678034 0.000000
C753  C     C_3   0.362109 0.783284 0.945353 0.000000
C754  C     C_R   0.317577 0.753265 0.954885 0.000000
C755  C     C_R   0.314606 0.701513 0.948769 0.000000
C756  C     C_R   0.275459 0.673168 0.960196 0.000000
C757  C     C_R   0.239986 0.696899 0.977600 0.000000
N189  N     N_R   0.203726 0.676202 0.994948 0.000000
C758  C     C_R   0.183555 0.718812 0.008876 0.000000
N190  N     N_R   0.202974 0.764470 0.998778 0.000000
C759  C     C_R   0.240325 0.748365 0.980728 0.000000
C760  C     C_R   0.279182 0.777113 0.970247 0.000000
S95   S     S_3+2 0.154682 0.714467 0.045166 0.000000
O283  O     O_2   0.100698 0.695756 0.043338 0.000000
O284  O     O_2   0.148990 0.767436 0.059381 0.000000
O285  O     O_3   0.180785 0.680782 0.073384 0.000000
H659  H     H_    0.389234 0.758425 0.933472 0.000000
H660  H     H_    0.379933 0.801634 0.965893 0.000000
H661  H     H_    0.350788 0.812794 0.929760 0.000000
H662  H     H_    0.343851 0.682578 0.936152 0.000000
H663  H     H_    0.274708 0.633609 0.956659 0.000000
H664  H     H_    0.280607 0.816768 0.975011 0.000000
H665  H     H_    0.165504 0.646526 0.070677 0.000000
C761  C     C_3   0.371087 0.951545 0.967302 0.000000
C762  C     C_R   0.343238 0.945071 0.996359 0.000000
C763  C     C_R   0.358057 0.973792 0.021791 0.000000
C764  C     C_R   0.336679 0.965069 0.049609 0.000000
C765  C     C_R   0.305077 0.924090 0.052159 0.000000
N191  N     N_R   0.283058 0.907978 0.077853 0.000000
C766  C     C_R   0.240474 0.884733 0.065926 0.000000
N192  N     N_R   0.239486 0.879088 0.033902 0.000000
C767  C     C_R   0.282044 0.904073 0.026547 0.000000
C768  C     C_R   0.301686 0.912923 0.998155 0.000000
S96   S     S_3+2 0.186917 0.891832 0.088791 0.000000
O286  O     O_2   0.141945 0.857152 0.082301 0.000000
O287  O     O_2   0.165554 0.944601 0.086135 0.000000
O288  O     O_3   0.197866 0.891330 0.126642 0.000000
H666  H     H_    0.349755 0.974919 0.951822 0.000000
H667  H     H_    0.378748 0.913925 0.956533 0.000000
H668  H     H_    0.407249 0.971224 0.972111 0.000000
H669  H     H_    0.386493 0.003119 0.020142 0.000000
H670  H     H_    0.345750 0.990153 0.068461 0.000000
H671  H     H_    0.285714 0.895346 0.978026 0.000000
H672  H     H_    0.204189 0.927692 0.131393 0.000000
C769  C     C_3   0.811847 0.438510 0.312381 0.000000
C770  C     C_R   0.775350 0.402725 0.297130 0.000000
C771  C     C_R   0.734176 0.386216 0.313389 0.000000
C772  C     C_R   0.695571 0.361105 0.298131 0.000000
C773  C     C_R   0.701247 0.350477 0.267386 0.000000
N193  N     N_R   0.664794 0.338560 0.247465 0.000000
C774  C     C_R   0.689637 0.335290 0.219920 0.000000
N194  N     N_R   0.741375 0.345272 0.222272 0.000000
C775  C     C_R   0.745127 0.358230 0.252515 0.000000
C776  C     C_R   0.780523 0.388950 0.266404 0.000000
S97   S     S_3+2 0.654017 0.322403 0.185393 0.000000
O289  O     O_2   0.642292 0.267451 0.175423 0.000000
O290  O     O_2   0.699198 0.322696 0.165984 0.000000
O291  O     O_3   0.624628 0.360617 0.161189 0.000000
H673  H     H_    0.792107 0.472245 0.321442 0.000000
H674  H     H_    0.840632 0.450729 0.295896 0.000000
H675  H     H_    0.829877 0.419771 0.331505 0.000000
H676  H     H_    0.730061 0.397314 0.337282 0.000000
H677  H     H_    0.661068 0.352797 0.309703 0.000000
H678  H     H_    0.805975 0.409027 0.252504 0.000000
H679  H     H_    0.648397 0.364426 0.144239 0.000000
C777  C     C_3   0.390827 0.303928 0.285300 0.000000
C778  C     C_R   0.417257 0.314649 0.256249 0.000000
C779  C     C_R   0.390708 0.320955 0.229339 0.000000
C780  C     C_R   0.415149 0.333584 0.202686 0.000000
C781  C     C_R   0.465515 0.342857 0.204470 0.000000
N195  N     N_R   0.496139 0.358948 0.182328 0.000000
C782  C     C_R   0.539688 0.370342 0.198640 0.000000
N196  N     N_R   0.539558 0.350025 0.227476 0.000000
C783  C     C_R   0.491343 0.336740 0.230810 0.000000
C784  C     C_R   0.468538 0.320734 0.256653 0.000000
S98   S     S_3+2 0.563518 0.434302 0.196840 0.000000
O292  O     O_2   0.540287 0.462929 0.171103 0.000000
O293  O     O_2   0.619132 0.443680 0.191198 0.000000
O294  O     O_3   0.549912 0.471163 0.228322 0.000000
H680  H     H_    0.397860 0.335769 0.302082 0.000000
H681  H     H_    0.405106 0.268885 0.294661 0.000000
H682  H     H_    0.350201 0.299625 0.281413 0.000000
H683  H     H_    0.350621 0.316707 0.229115 0.000000
H684  H     H_    0.394967 0.338745 0.181756 0.000000
H685  H     H_    0.489939 0.315409 0.276862 0.000000
H686  H     H_    0.517290 0.457582 0.235189 0.000000
C785  C     C_3   0.340550 0.190221 0.235943 0.000000
C786  C     C_R   0.390297 0.166779 0.235772 0.000000
C787  C     C_R   0.416334 0.164581 0.263023 0.000000
C788  C     C_R   0.462571 0.142987 0.263588 0.000000
C789  C     C_R   0.480707 0.121877 0.236696 0.000000
N197  N     N_R   0.526460 0.102411 0.232163 0.000000
C790  C     C_R   0.524647 0.092147 0.201043 0.000000
N198  N     N_R   0.483923 0.108592 0.185368 0.000000
C791  C     C_R   0.455742 0.125358 0.209312 0.000000
C792  C     C_R   0.410553 0.148051 0.208562 0.000000
S99   S     S_3+2 0.578292 0.082548 0.184099 0.000000
O295  O     O_2   0.612052 0.107709 0.207965 0.000000
O296  O     O_2   0.588066 0.116108 0.157654 0.000000
O297  O     O_3   0.600935 0.024277 0.177963 0.000000
H687  H     H_    0.315637 0.170621 0.252074 0.000000
H688  H     H_    0.324124 0.187915 0.212712 0.000000
H689  H     H_    0.344212 0.230180 0.243728 0.000000
H690  H     H_    0.400314 0.179740 0.283999 0.000000
H691  H     H_    0.483575 0.142358 0.284578 0.000000
H692  H     H_    0.391941 0.152377 0.187482 0.000000
H693  H     H_    0.575449 0.003285 0.188179 0.000000
C793  C     C_3   0.588452 0.283241 0.398287 0.000000
C794  C     C_R   0.584302 0.254408 0.368478 0.000000
C795  C     C_R   0.576922 0.202193 0.368413 0.000000
C796  C     C_R   0.576415 0.173496 0.341287 0.000000
C797  C     C_R   0.582464 0.198467 0.314684 0.000000
N199  N     N_R   0.587850 0.177967 0.286221 0.000000
C798  C     C_R   0.593561 0.221037 0.269901 0.000000
N200  N     N_R   0.588342 0.266706 0.285471 0.000000
C799  C     C_R   0.584740 0.250759 0.314430 0.000000
C800  C     C_R   0.588187 0.279298 0.341198 0.000000
S100  S     S_3+2 0.595341 0.218846 0.231617 0.000000
O298  O     O_2   0.640015 0.198762 0.213984 0.000000
O299  O     O_2   0.589235 0.271869 0.221570 0.000000
O300  O     O_3   0.544426 0.191644 0.217779 0.000000
H694  H     H_    0.552573 0.280480 0.410759 0.000000
H695  H     H_    0.598027 0.323435 0.394630 0.000000
H696  H     H_    0.618217 0.267053 0.412100 0.000000
H697  H     H_    0.573207 0.183595 0.389863 0.000000
H698  H     H_    0.571859 0.132895 0.341183 0.000000
H699  H     H_    0.594898 0.319531 0.340883 0.000000
H700  H     H_    0.520881 0.205697 0.233146 0.000000
C801  C     C_3   0.711971 0.929130 0.170049 0.000000
C802  C     C_R   0.701000 0.966004 0.196526 0.000000
C803  C     C_R   0.655867 0.963526 0.212376 0.000000
C804  C     C_R   0.642431 0.001024 0.233631 0.000000
C805  C     C_R   0.674926 0.040793 0.238616 0.000000
N201  N     N_R   0.665044 0.085766 0.252563 0.000000
C806  C     C_R   0.711168 0.111119 0.249392 0.000000
N202  N     N_R   0.744582 0.086267 0.229616 0.000000
C807  C     C_R   0.721078 0.041241 0.225240 0.000000
C808  C     C_R   0.734184 0.005371 0.203785 0.000000
S101  S     S_3+2 0.735760 0.150722 0.280225 0.000000
O301  O     O_2   0.746445 0.118016 0.307494 0.000000
O302  O     O_2   0.698606 0.187887 0.294598 0.000000
O303  O     O_3   0.790887 0.183657 0.275798 0.000000
H701  H     H_    0.677910 0.915901 0.158211 0.000000
H702  H     H_    0.732262 0.895510 0.176318 0.000000
H703  H     H_    0.736787 0.946274 0.153354 0.000000
H704  H     H_    0.628803 0.933965 0.206919 0.000000
H705  H     H_    0.605837 0.000697 0.243904 0.000000
H706  H     H_    0.766381 0.013051 0.190237 0.000000
H707  H     H_    0.814241 0.167814 0.289766 0.000000
C809  C     C_3   0.849809 0.244006 0.041894 0.000000
C810  C     C_R   0.831701 0.259370 0.073211 0.000000
C811  C     C_R   0.862277 0.260219 0.098538 0.000000
C812  C     C_R   0.843803 0.273334 0.127218 0.000000
C813  C     C_R   0.802079 0.301697 0.128067 0.000000
N203  N     N_R   0.790478 0.337598 0.149236 0.000000
C814  C     C_R   0.758439 0.367182 0.133344 0.000000
N204  N     N_R   0.743085 0.344865 0.105226 0.000000
C815  C     C_R   0.774474 0.306008 0.102428 0.000000
C816  C     C_R   0.785317 0.278694 0.076153 0.000000
S102  S     S_3+2 0.736842 0.425705 0.151264 0.000000
O304  O     O_2   0.714384 0.417227 0.182653 0.000000
O305  O     O_2   0.692612 0.449125 0.135449 0.000000
O306  O     O_3   0.778752 0.473802 0.160018 0.000000
H708  H     H_    0.890998 0.242864 0.041364 0.000000
H709  H     H_    0.836418 0.270327 0.025104 0.000000
H710  H     H_    0.833884 0.207211 0.033885 0.000000
H711  H     H_    0.900586 0.250552 0.095709 0.000000
H712  H     H_    0.865545 0.268457 0.147274 0.000000
H713  H     H_    0.766293 0.284296 0.055421 0.000000
H714  H     H_    0.789867 0.467339 0.181011 0.000000
C817  C     C_3   0.948751 0.175142 0.118405 0.000000
C818  C     C_R   0.897765 0.152365 0.112927 0.000000
C819  C     C_R   0.875523 0.152139 0.084148 0.000000
C820  C     C_R   0.824474 0.143335 0.080665 0.000000
C821  C     C_R   0.797971 0.129089 0.105385 0.000000
N205  N     N_R   0.750300 0.111150 0.106039 0.000000
C822  C     C_R   0.749730 0.094024 0.135214 0.000000
N206  N     N_R   0.790955 0.103211 0.153271 0.000000
C823  C     C_R   0.821601 0.123688 0.132890 0.000000
C824  C     C_R   0.870668 0.135679 0.137325 0.000000
S103  S     S_3+2 0.697359 0.071700 0.147912 0.000000
O307  O     O_2   0.662231 0.101888 0.129983 0.000000
O308  O     O_2   0.685309 0.089607 0.179778 0.000000
O309  O     O_3   0.681015 0.011107 0.140949 0.000000
H715  H     H_    0.971318 0.152405 0.133454 0.000000
H716  H     H_    0.945318 0.212119 0.130896 0.000000
H717  H     H_    0.968360 0.180603 0.096425 0.000000
H718  H     H_    0.897526 0.162682 0.064652 0.000000
H719  H     H_    0.805488 0.145684 0.059245 0.000000
H720  H     H_    0.887959 0.129920 0.158802 0.000000
H721  H     H_    0.705167 0.001012 0.124813 0.000000
C825  C     C_3   0.709377 0.270020 0.941570 0.000000
C826  C     C_R   0.704931 0.244735 0.971149 0.000000
C827  C     C_R   0.709490 0.192573 0.971547 0.000000
C828  C     C_R   0.704542 0.167539 0.998550 0.000000
C829  C     C_R   0.693780 0.195812 0.024547 0.000000
N207  N     N_R   0.688130 0.179701 0.053147 0.000000
C830  C     C_R   0.680987 0.223977 0.069554 0.000000
N208  N     N_R   0.682888 0.267102 0.052936 0.000000
C831  C     C_R   0.690165 0.247449 0.024322 0.000000
C832  C     C_R   0.696370 0.272981 0.997937 0.000000
S104  S     S_3+2 0.678213 0.226421 0.109149 0.000000
O310  O     O_2   0.636741 0.193923 0.122826 0.000000
O311  O     O_2   0.661963 0.279354 0.118635 0.000000
O312  O     O_3   0.730738 0.215908 0.129191 0.000000
H722  H     H_    0.747057 0.263991 0.931914 0.000000
H723  H     H_    0.703115 0.311008 0.945078 0.000000
H724  H     H_    0.681053 0.253653 0.925429 0.000000
H725  H     H_    0.717113 0.171350 0.950526 0.000000
H726  H     H_    0.709487 0.127326 0.998961 0.000000
H727  H     H_    0.693902 0.313457 0.998055 0.000000
H728  H     H_    0.720287 0.188042 0.142161 0.000000
C833  C     C_3   0.947758 0.094596 0.767046 0.000000
C834  C     C_R   0.002234 0.089191 0.762474 0.000000
C835  C     C_R   0.033546 0.094792 0.787435 0.000000
C836  C     C_R   0.084205 0.091387 0.783439 0.000000
C837  C     C_R   0.102535 0.082829 0.754583 0.000000
N209  N     N_R   0.150395 0.076917 0.746627 0.000000
C838  C     C_R   0.145832 0.064871 0.715344 0.000000
N210  N     N_R   0.099982 0.076948 0.703547 0.000000
C839  C     C_R   0.072623 0.081251 0.729616 0.000000
C840  C     C_R   0.021763 0.081369 0.733384 0.000000
S105  S     S_3+2 0.160194 0.001815 0.704195 0.000000
O313  O     O_2   0.213824 0.985818 0.706721 0.000000
O314  O     O_2   0.151085 0.993742 0.670173 0.000000
O315  O     O_3   0.124724 0.954477 0.719338 0.000000
H729  H     H_    0.933892 0.065588 0.782742 0.000000
H730  H     H_    0.928004 0.090239 0.744877 0.000000
H731  H     H_    0.940582 0.132652 0.777347 0.000000
H732  H     H_    0.018374 0.101877 0.810061 0.000000
H733  H     H_    0.108654 0.096125 0.802356 0.000000
H734  H     H_    0.997553 0.076766 0.714350 0.000000
H735  H     H_    0.090011 0.964286 0.715724 0.000000
C841  C     C_3   0.182805 0.293730 0.903399 0.000000
C842  C     C_R   0.194376 0.262602 0.875322 0.000000
C843  C     C_R   0.213214 0.214743 0.878095 0.000000
C844  C     C_R   0.218693 0.182666 0.852669 0.000000
C845  C     C_R   0.205150 0.199529 0.824628 0.000000
N211  N     N_R   0.202412 0.174203 0.797004 0.000000
C846  C     C_R   0.197120 0.213942 0.778093 0.000000
N212  N     N_R   0.194160 0.261267 0.792180 0.000000
C847  C     C_R   0.195987 0.249811 0.821734 0.000000
C848  C     C_R   0.186951 0.281190 0.846610 0.000000
S106  S     S_3+2 0.189861 0.202339 0.739568 0.000000
O316  O     O_2   0.148919 0.174971 0.756966 0.000000
O317  O     O_2   0.210086 0.150578 0.730799 0.000000
O318  O     O_3   0.139746 0.208875 0.716751 0.000000
H736  H     H_    0.154488 0.273458 0.917083 0.000000
H737  H     H_    0.167982 0.330635 0.897217 0.000000
H738  H     H_    0.217075 0.300093 0.917201 0.000000
H739  H     H_    0.220951 0.201197 0.900515 0.000000
H740  H     H_    0.230468 0.144854 0.855719 0.000000
H741  H     H_    0.173320 0.318600 0.843688 0.000000
H742  H     H_    0.133858 0.174322 0.707965 0.000000
C849  C     C_3   0.594551 0.529980 0.049597 0.000000
C850  C     C_R   0.588831 0.495443 0.075187 0.000000
C851  C     C_R   0.544991 0.496571 0.091561 0.000000
C852  C     C_R   0.530930 0.456324 0.108431 0.000000
C853  C     C_R   0.559422 0.414218 0.106701 0.000000
N213  N     N_R   0.543030 0.366828 0.111028 0.000000
C854  C     C_R   0.579197 0.338690 0.096241 0.000000
N214  N     N_R   0.620326 0.366741 0.087156 0.000000
C855  C     C_R   0.604836 0.414421 0.092646 0.000000
C856  C     C_R   0.621920 0.456714 0.078630 0.000000
S107  S     S_3+2 0.561499 0.283529 0.074373 0.000000
O319  O     O_2   0.505345 0.280769 0.069061 0.000000
O320  O     O_2   0.569068 0.235210 0.091337 0.000000
O321  O     O_3   0.585171 0.274391 0.038267 0.000000
H743  H     H_    0.626185 0.518395 0.035232 0.000000
H744  H     H_    0.600274 0.569158 0.058158 0.000000
H745  H     H_    0.560374 0.527555 0.035439 0.000000
H746  H     H_    0.518948 0.526283 0.088750 0.000000
H747  H     H_    0.495934 0.456988 0.119817 0.000000
H748  H     H_    0.656196 0.455950 0.066437 0.000000
H749  H     H_    0.559106 0.286635 0.024659 0.000000
C857  C     C_3   0.359247 0.535424 0.948299 0.000000
C858  C     C_R   0.307573 0.536069 0.936249 0.000000
C859  C     C_R   0.299724 0.532697 0.904829 0.000000
C860  C     C_R   0.252011 0.533011 0.892962 0.000000
C861  C     C_R   0.213144 0.535595 0.913103 0.000000
N215  N     N_R   0.164002 0.533737 0.906725 0.000000
C862  C     C_R   0.143573 0.545011 0.935106 0.000000
N216  N     N_R   0.178711 0.557556 0.957867 0.000000
C863  C     C_R   0.221387 0.546079 0.943433 0.000000
C864  C     C_R   0.267781 0.542809 0.956076 0.000000
S108  S     S_3+2 0.078474 0.534325 0.941519 0.000000
O322  O     O_2   0.094051 0.492564 0.918482 0.000000
O323  O     O_2   0.088536 0.581817 0.923584 0.000000
O324  O     O_3   0.118679 0.529003 0.971073 0.000000
H750  H     H_    0.376480 0.499182 0.941190 0.000000
H751  H     H_    0.359002 0.539487 0.973608 0.000000
H752  H     H_    0.381278 0.567207 0.938927 0.000000
H753  H     H_    0.331120 0.528944 0.889523 0.000000
H754  H     H_    0.245388 0.530436 0.868747 0.000000
H755  H     H_    0.273159 0.548206 0.980443 0.000000
H756  H     H_    0.110410 0.494738 0.978094 0.000000
C865  C     C_3   0.173137 0.386942 0.023201 0.000000
C866  C     C_R   0.195617 0.431134 0.040708 0.000000
C867  C     C_R   0.219920 0.424111 0.068166 0.000000
C868  C     C_R   0.245931 0.463729 0.082709 0.000000
C869  C     C_R   0.246203 0.509844 0.069604 0.000000
N217  N     N_R   0.276469 0.549822 0.076891 0.000000
C870  C     C_R   0.262076 0.583750 0.054680 0.000000
N218  N     N_R   0.223904 0.565960 0.035467 0.000000
C871  C     C_R   0.217838 0.518171 0.044444 0.000000
C872  C     C_R   0.194019 0.478819 0.028829 0.000000
S109  S     S_3+2 0.297722 0.637956 0.043633 0.000000
O325  O     O_2   0.335543 0.656010 0.067280 0.000000
O326  O     O_2   0.267408 0.685719 0.042104 0.000000
O327  O     O_3   0.330962 0.634281 0.010244 0.000000
H757  H     H_    0.179272 0.351681 0.035314 0.000000
H758  H     H_    0.190739 0.383798 0.000276 0.000000
H759  H     H_    0.132624 0.391873 0.020513 0.000000
H760  H     H_    0.221057 0.387008 0.077506 0.000000
H761  H     H_    0.267823 0.457715 0.102651 0.000000
H762  H     H_    0.177204 0.484244 0.007041 0.000000
H763  H     H_    0.348523 0.667479 0.009577 0.000000
C873  C     C_3   0.729785 0.427978 0.766095 0.000000
C874  C     C_R   0.763646 0.470691 0.775873 0.000000
C875  C     C_R   0.814036 0.463204 0.777195 0.000000
C876  C     C_R   0.844914 0.500129 0.790073 0.000000
C877  C     C_R   0.825927 0.544464 0.801164 0.000000
N219  N     N_R   0.849977 0.577501 0.820415 0.000000
C878  C     C_R   0.811250 0.596524 0.837597 0.000000
N220  N     N_R   0.764764 0.581343 0.827086 0.000000
C879  C     C_R   0.775882 0.548798 0.803609 0.000000
C880  C     C_R   0.744446 0.514531 0.788483 0.000000
S110  S     S_3+2 0.819916 0.622448 0.874892 0.000000
O328  O     O_2   0.875015 0.630592 0.882055 0.000000
O329  O     O_2   0.807301 0.582410 0.897854 0.000000
O330  O     O_3   0.788891 0.674411 0.888374 0.000000
H764  H     H_    0.738374 0.416065 0.742310 0.000000
H765  H     H_    0.690501 0.439299 0.767699 0.000000
H766  H     H_    0.735413 0.395833 0.781072 0.000000
H767  H     H_    0.828904 0.426871 0.770769 0.000000
H768  H     H_    0.880493 0.489995 0.797230 0.000000
H769  H     H_    0.705508 0.517487 0.789726 0.000000
H770  H     H_    0.755752 0.660895 0.894204 0.000000
C881  C     C_3   0.566288 0.926083 0.146220 0.000000
C882  C     C_R   0.572260 0.967180 0.124934 0.000000
C883  C     C_R   0.612200 0.965426 0.105886 0.000000
C884  C     C_R   0.626139 0.006051 0.089430 0.000000
C885  C     C_R   0.598623 0.048148 0.092926 0.000000
N221  N     N_R   0.610874 0.094408 0.083688 0.000000
C886  C     C_R   0.566404 0.119435 0.089360 0.000000
N222  N     N_R   0.534587 0.093891 0.109035 0.000000
C887  C     C_R   0.555675 0.048558 0.109372 0.000000
C888  C     C_R   0.542255 0.008984 0.126696 0.000000
S111  S     S_3+2 0.536422 0.141835 0.056231 0.000000
O331  O     O_2   0.570818 0.171698 0.035138 0.000000
O332  O     O_2   0.495238 0.179256 0.063360 0.000000
O333  O     O_3   0.507696 0.096365 0.033095 0.000000
H771  H     H_    0.537244 0.938290 0.161833 0.000000
H772  H     H_    0.600168 0.922005 0.159435 0.000000
H773  H     H_    0.557236 0.889761 0.133870 0.000000
H774  H     H_    0.638146 0.936397 0.109326 0.000000
H775  H     H_    0.661711 0.006381 0.078668 0.000000
H776  H     H_    0.511519 0.012115 0.142602 0.000000
H777  H     H_    0.474059 0.092142 0.042056 0.000000
C889  C     C_3   0.315877 0.165615 0.049638 0.000000
C890  C     C_R   0.350279 0.196482 0.069815 0.000000
C891  C     C_R   0.343252 0.248145 0.073887 0.000000
C892  C     C_R   0.375226 0.278016 0.092057 0.000000
C893  C     C_R   0.413743 0.255096 0.106112 0.000000
N223  N     N_R   0.450927 0.276556 0.123331 0.000000
C894  C     C_R   0.474265 0.234400 0.132561 0.000000
N224  N     N_R   0.453203 0.188119 0.123590 0.000000
C895  C     C_R   0.417015 0.203236 0.104865 0.000000
C896  C     C_R   0.387866 0.173531 0.085296 0.000000
S112  S     S_3+2 0.518236 0.241925 0.159762 0.000000
O334  O     O_2   0.551241 0.288584 0.155173 0.000000
O335  O     O_2   0.554616 0.199306 0.160323 0.000000
O336  O     O_3   0.489610 0.248421 0.194065 0.000000
H778  H     H_    0.277279 0.169091 0.058368 0.000000
H779  H     H_    0.326189 0.125316 0.049297 0.000000
H780  H     H_    0.318018 0.179472 0.026088 0.000000
H781  H     H_    0.312636 0.265344 0.062574 0.000000
H782  H     H_    0.368180 0.317418 0.095960 0.000000
H783  H     H_    0.393901 0.133465 0.082455 0.000000
H784  H     H_    0.455221 0.235848 0.190019 0.000000

loop_
_geom_bond_atom_site_label_1
_geom_bond_atom_site_label_2
_geom_bond_distance
_geom_bond_site_symmetry_2
_ccdc_geom_bond_type
Zn1   N12   2.181 .      S
Zn1   N123  2.136 .      S
Zn1   N134  2.146 .      S
Zn1   N188  2.130 .      S
Zn2   N2    2.099 .      S
Zn2   N9    2.009 .      S
Zn2   N30   2.120 .      S
Zn2   N49   2.075 .      S
Zn3   N4    2.065 .      S
Zn3   N6    2.169 .      S
Zn3   N71   2.128 .      S
Zn3   N212  2.108 .      S
Zn4   N5    2.119 .      S
Zn4   N7    2.073 .      S
Zn4   N138  2.186 .      S
Zn4   N215  2.107 .      S
Zn5   N8    2.070 .      S
Zn5   N10   2.110 .      S
Zn5   N11   2.175 .      S
Zn5   N149  2.091 .      S
Zn6   N13   2.084 .      S
Zn6   N15   2.123 .      S
Zn6   N28   2.255 .      S
Zn6   N62   2.152 .      S
Zn7   N18   2.110 .      S
Zn7   N19   2.152 .      S
Zn7   N33   2.116 .      S
Zn7   N117  2.138 .      S
Zn8   N17   2.127 .      S
Zn8   N21   2.163 .      S
Zn8   N38   2.155 .      S
Zn8   N155  2.207 .      S
Zn9   N23   2.066 .      S
Zn9   N43   2.202 .      S
Zn9   N96   2.089 .      S
Zn9   N111  2.121 .      S
Zn10  N20   2.181 .      S
Zn10  N26   2.169 .      S
Zn10  N98   2.047 .      S
Zn10  N113  2.142 .      S
Zn11  N27   2.254 .      S
Zn11  N29   2.088 .      S
Zn11  N32   2.165 .      S
Zn11  N181  2.203 .      S
Zn12  N34   2.199 .      S
Zn12  N36   2.099 .      S
Zn12  N86   2.033 .      S
Zn12  N191  2.173 .      S
Zn13  N37   2.119 .      S
Zn13  N40   2.133 .      S
Zn13  N83   2.073 .      S
Zn13  N217  2.196 .      S
Zn14  N31   2.230 .      S
Zn14  N42   2.121 .      S
Zn14  N44   2.178 .      S
Zn14  N129  2.065 .      S
Zn15  N41   2.183 .      S
Zn15  N45   2.141 .      S
Zn15  N47   2.267 .      S
Zn15  N56   2.178 .      S
Zn16  N46   2.181 .      S
Zn16  N50   2.059 .      S
Zn16  N52   2.200 .      S
Zn16  N139  2.139 .      S
Zn17  N53   2.158 .      S
Zn17  N64   2.067 .      S
Zn17  N70   2.175 .      S
Zn17  N141  2.106 .      S
Zn18  N24   2.152 .      S
Zn18  N55   2.149 .      S
Zn18  N57   2.079 .      S
Zn18  N108  2.136 .      S
Zn19  N22   2.190 .      S
Zn19  N25   2.081 .      S
Zn19  N60   2.149 .      S
Zn19  N110  2.074 .      S
Zn20  N61   2.179 .      S
Zn20  N63   2.036 .      S
Zn20  N65   2.190 .      S
Zn20  N100  2.100 .      S
Zn21  N144  2.149 .      S
Zn21  N158  2.162 .      S
Zn21  N194  2.204 .      S
Zn21  N203  2.087 .      S
Zn22  N67   2.228 1_455  S
Zn22  N69   2.217 .      S
Zn22  N72   2.149 .      S
Zn22  N146  2.099 .      S
Zn23  N74   2.187 .      S
Zn23  N75   2.134 .      S
Zn23  N77   1.958 .      S
Zn23  N80   2.185 .      S
Zn24  N82   1.989 .      S
Zn24  N84   2.137 .      S
Zn24  N85   2.128 .      S
Zn24  N88   2.140 .      S
Zn25  N78   2.035 .      S
Zn25  N87   2.206 .      S
Zn25  N90   2.065 .      S
Zn25  N92   2.031 .      S
Zn26  N94   2.018 .      S
Zn26  N95   2.104 .      S
Zn26  N97   2.118 .      S
Zn26  N99   2.106 .      S
Zn27  N79   2.188 .      S
Zn27  N81   2.025 .      S
Zn27  N101  2.071 .      S
Zn27  N104  2.132 .      S
Zn28  N89   2.056 .      S
Zn28  N105  2.075 .      S
Zn28  N107  2.126 .      S
Zn28  N109  2.096 .      S
Zn29  N91   2.064 .      S
Zn29  N112  2.097 .      S
Zn29  N114  2.109 .      S
Zn29  N115  2.196 .      S
Zn30  N73   2.050 .      S
Zn30  N118  2.129 1_655  S
Zn30  N120  2.144 .      S
Zn30  N121  2.075 .      S
Zn31  N124  2.129 .      S
Zn31  N125  2.104 .      S
Zn31  N127  2.043 .      S
Zn31  N130  2.096 .      S
Zn32  N54   2.138 .      S
Zn32  N58   2.059 .      S
Zn32  N59   2.187 .      S
Zn32  N131  2.097 .      S
Zn33  N48   2.189 .      S
Zn33  N68   2.226 .      S
Zn33  N133  2.072 .      S
Zn33  N135  2.179 .      S
Zn34  N136  2.139 .      S
Zn34  N137  2.157 .      S
Zn34  N180  2.124 .      S
Zn34  N219  2.087 .      S
Zn35  N3    2.075 .      S
Zn35  N14   2.137 .      S
Zn35  N140  2.102 .      S
Zn35  N142  2.129 .      S
Zn36  N119  2.168 .      S
Zn36  N143  2.125 .      S
Zn36  N202  2.213 .      S
Zn36  N206  2.133 .      S
Zn37  N66   2.196 .      S
Zn37  N126  2.136 .      S
Zn37  N145  2.143 .      S
Zn37  N210  2.179 .      S
Zn38  N148  2.159 .      S
Zn38  N150  2.046 .      S
Zn38  N152  2.182 .      S
Zn38  N153  2.073 .      S
Zn39  N76   2.111 .      S
Zn39  N156  2.151 1_655  S
Zn39  N157  2.183 .      S
Zn39  N160  2.166 .      S
Zn40  N102  2.107 1_556  S
Zn40  N161  2.147 .      S
Zn40  N164  2.194 .      S
Zn40  N165  2.256 .      S
Zn41  N103  2.108 1_556  S
Zn41  N168  2.173 1_556  S
Zn41  N169  2.112 1_556  S
Zn41  N172  2.227 .      S
Zn42  N122  2.103 .      S
Zn42  N167  2.144 .      S
Zn42  N173  2.120 1_655  S
Zn42  N175  2.079 .      S
Zn43  N128  2.026 .      S
Zn43  N151  2.170 .      S
Zn43  N177  2.058 .      S
Zn43  N179  2.127 .      S
Zn44  N171  2.193 .      S
Zn44  N178  2.076 .      S
Zn44  N182  2.193 .      S
Zn44  N183  2.148 .      S
Zn45  N159  2.116 .      S
Zn45  N166  2.140 .      S
Zn45  N176  2.151 .      S
Zn45  N185  2.049 1_655  S
Zn46  N1    2.144 .      S
Zn46  N93   2.115 .      S
Zn46  N132  2.111 .      S
Zn46  N187  2.076 .      S
Zn47  N147  2.238 1_554  S
Zn47  N174  2.051 .      S
Zn47  N190  2.155 1_554  S
Zn47  N192  2.167 .      S
Zn48  N106  2.090 .      S
Zn48  N193  2.064 .      S
Zn48  N196  2.150 .      S
Zn48  N200  2.183 .      S
Zn49  N116  2.143 .      S
Zn49  N197  2.234 .      S
Zn49  N199  2.146 .      S
Zn49  N201  2.227 .      S
Zn50  N162  2.153 .      S
Zn50  N204  2.129 .      S
Zn50  N208  2.134 .      S
Zn50  N214  2.123 .      S
Zn51  N170  2.084 .      S
Zn51  N205  2.251 .      S
Zn51  N207  2.054 .      S
Zn51  N221  2.196 .      S
Zn52  N16   2.166 .      S
Zn52  N154  2.138 .      S
Zn52  N209  2.178 .      S
Zn52  N211  2.171 .      S
Zn53  N39   2.141 .      S
Zn53  N195  2.139 .      S
Zn53  N213  2.092 .      S
Zn53  N223  2.157 .      S
Zn54  N186  2.028 .      S
Zn54  N189  2.131 1_554  S
Zn54  N216  2.129 1_554  S
Zn54  N218  2.163 .      S
Zn55  N51   2.211 .      S
Zn55  N163  2.112 .      S
Zn55  N184  2.176 .      S
Zn55  N220  2.064 .      S
Zn56  N35   2.177 .      S
Zn56  N198  2.204 .      S
Zn56  N222  2.141 .      S
Zn56  N224  2.165 .      S
C1    C2    1.470 .      S
C1    H1    1.106 .      S
C1    H2    1.105 .      S
C1    H3    1.107 .      S
C3    H4    1.049 .      S
C4    H5    1.068 .      S
C6    S1    1.775 .      S
C8    H6    1.066 .      S
S1    O3    1.686 .      S
O3    H7    0.985 .      S
C9    C10   1.485 .      S
C9    H8    1.108 .      S
C9    H9    1.107 .      S
C9    H10   1.108 .      S
C11   H11   1.081 .      S
C12   H12   1.077 .      S
C14   S2    1.779 .      S
C16   H13   1.065 .      S
S2    O6    1.714 .      S
O6    H14   0.990 .      S
C17   C18   1.451 .      S
C17   H15   1.103 .      S
C17   H16   1.107 .      S
C17   H17   1.104 .      S
C19   H18   1.079 .      S
C20   H19   1.059 .      S
C22   S3    1.800 .      S
C24   H20   1.061 .      S
S3    O9    1.704 .      S
O9    H21   0.990 .      S
C25   C26   1.481 .      S
C25   H22   1.102 .      S
C25   H23   1.107 .      S
C25   H24   1.102 .      S
C27   H25   1.074 .      S
C28   H26   1.051 .      S
C30   S4    1.791 .      S
C32   H27   1.058 .      S
S4    O12   1.705 .      S
O12   H28   0.986 .      S
C33   C34   1.488 .      S
C33   H29   1.109 .      S
C33   H30   1.109 .      S
C33   H31   1.109 .      S
C35   H32   1.080 .      S
C36   H33   1.074 .      S
C38   S5    1.759 .      S
C40   H34   1.056 .      S
S5    O15   1.673 .      S
O15   H35   0.981 .      S
C41   C42   1.425 .      S
C41   H36   1.102 .      S
C41   H37   1.108 .      S
C41   H38   1.093 .      S
C43   H39   1.076 .      S
C44   H40   1.054 .      S
C46   S6    1.766 .      S
C48   H41   1.067 .      S
S6    O18   1.696 .      S
O18   H42   0.987 .      S
C49   C50   1.479 .      S
C49   H43   1.109 .      S
C49   H44   1.108 .      S
C49   H45   1.107 .      S
C51   H46   1.081 .      S
C52   H47   1.079 .      S
C54   S7    1.728 .      S
C56   H48   1.079 .      S
S7    O21   1.711 .      S
O21   H49   0.984 .      S
C57   C58   1.490 .      S
C57   H50   1.109 .      S
C57   H51   1.108 .      S
C57   H52   1.105 .      S
C59   H53   1.079 .      S
C60   H54   1.073 .      S
C62   S8    1.766 .      S
C64   H55   1.077 .      S
S8    O24   1.709 1_545  S
O24   S8    1.709 1_565  S
O24   H56   0.986 1_565  S
H56   O24   0.986 1_545  S
C65   C66   1.457 .      S
C65   H57   1.105 .      S
C65   H58   1.092 .      S
C65   H59   1.085 .      S
C67   H60   1.076 .      S
C68   H61   1.075 .      S
C70   S9    1.794 .      S
C72   H62   1.077 .      S
S9    O27   1.697 .      S
O27   H63   0.986 .      S
C73   C74   1.488 .      S
C73   H64   1.109 .      S
C73   H65   1.109 .      S
C73   H66   1.109 .      S
C75   H67   1.081 .      S
C76   H68   1.073 .      S
C78   S10   1.783 .      S
C80   H69   1.065 .      S
S10   O30   1.705 .      S
O30   H70   0.990 .      S
C81   C82   1.488 .      S
C81   H71   1.109 .      S
C81   H72   1.108 .      S
C81   H73   1.109 .      S
C83   H74   1.081 .      S
C84   H75   1.074 .      S
C86   S11   1.764 .      S
C88   H76   1.075 .      S
S11   O33   1.691 .      S
O33   H77   0.988 .      S
C89   C90   1.456 .      S
C89   H78   1.094 .      S
C89   H79   1.090 .      S
C89   H80   1.097 .      S
C91   H81   1.068 .      S
C92   H82   1.071 .      S
C94   S12   1.774 .      S
C96   H83   1.080 .      S
S12   O36   1.706 .      S
O36   H84   0.990 .      S
C97   C98   1.488 .      S
C97   H85   1.109 .      S
C97   H86   1.108 .      S
C97   H87   1.109 .      S
C99   H88   1.081 .      S
C100  H89   1.073 .      S
C102  S13   1.707 .      S
C104  H90   1.059 .      S
S13   O39   1.691 .      S
O39   H91   0.988 .      S
C105  C106  1.486 .      S
C105  H92   1.109 .      S
C105  H93   1.108 .      S
C105  H94   1.109 .      S
C107  H95   1.081 .      S
C108  H96   1.076 1_545  S
C110  S14   1.779 1_545  S
C112  H97   1.066 .      S
S14   C110  1.779 1_565  S
S14   O42   1.710 .      S
O42   H98   0.989 .      S
H96   C108  1.076 1_565  S
C113  C114  1.469 .      S
C113  H99   1.095 .      S
C113  H100  1.101 .      S
C113  H101  1.096 .      S
C115  H102  1.072 .      S
C116  H103  1.065 .      S
C118  S15   1.780 .      S
C120  H104  1.043 .      S
S15   O45   1.712 .      S
O45   H105  0.990 .      S
C121  C122  1.488 .      S
C121  H106  1.108 .      S
C121  H107  1.109 .      S
C121  H108  1.108 .      S
C123  H109  1.081 .      S
C124  H110  1.066 .      S
C126  S16   1.716 .      S
C128  H111  1.073 1_565  S
S16   O48   1.710 .      S
O48   H112  0.989 .      S
H111  C128  1.073 1_545  S
C129  C130  1.482 .      S
C129  H113  1.109 .      S
C129  H114  1.107 .      S
C129  H115  1.107 .      S
C131  H116  1.081 .      S
C132  H117  1.080 .      S
C134  S17   1.764 .      S
C136  H118  1.062 1_565  S
S17   O51   1.700 .      S
O51   H119  0.990 .      S
H118  C136  1.062 1_545  S
C137  C138  1.487 .      S
C137  H120  1.109 .      S
C137  H121  1.109 .      S
C137  H122  1.109 .      S
C139  H123  1.081 .      S
C140  H124  1.067 .      S
C142  S18   1.796 1_545  S
C144  H125  1.080 .      S
S18   C142  1.796 1_565  S
S18   O54   1.690 .      S
O54   H126  0.987 .      S
C145  C146  1.488 .      S
C145  H127  1.109 .      S
C145  H128  1.109 .      S
C145  H129  1.109 .      S
C147  H130  1.081 .      S
C148  H131  1.074 .      S
C150  S19   1.755 .      S
C152  H132  1.078 .      S
S19   O57   1.691 .      S
O57   H133  0.989 .      S
C153  C154  1.488 .      S
C153  H134  1.109 1_554  S
C153  H135  1.109 .      S
C153  H136  1.109 1_554  S
C155  H137  1.081 .      S
C156  H138  1.065 .      S
C158  S20   1.788 .      S
C160  H139  1.069 .      S
S20   O60   1.713 .      S
O60   H140  0.990 .      S
H134  C153  1.109 1_556  S
H136  C153  1.109 1_556  S
C161  C162  1.487 .      S
C161  H141  1.106 .      S
C161  H142  1.105 .      S
C161  H143  1.102 .      S
C163  H144  1.048 .      S
C164  H145  1.061 .      S
C166  S21   1.766 .      S
C168  H146  1.069 .      S
S21   O63   1.700 .      S
O63   H147  0.988 .      S
C169  C170  1.488 1_545  S
C169  H148  1.109 .      S
C169  H149  1.109 .      S
C169  H150  1.109 .      S
C170  C169  1.488 1_565  S
C171  H151  1.081 1_565  S
C172  H152  1.065 .      S
C174  S22   1.787 .      S
C176  H153  1.063 .      S
S22   O66   1.713 .      S
O66   H154  0.990 .      S
H151  C171  1.081 1_545  S
C177  C178  1.483 .      S
C177  H155  1.107 .      S
C177  H156  1.105 .      S
C177  H157  1.107 .      S
C179  H158  1.081 .      S
C180  H159  1.080 .      S
C182  S23   1.806 .      S
C184  H160  1.080 .      S
S23   O69   1.708 .      S
O69   H161  0.990 .      S
C185  C186  1.487 .      S
C185  H162  1.109 .      S
C185  H163  1.108 .      S
C185  H164  1.109 .      S
C187  H165  1.081 .      S
C188  H166  1.072 .      S
C190  S24   1.787 .      S
C192  H167  1.076 .      S
S24   O72   1.693 .      S
O72   H168  0.987 .      S
C193  C194  1.482 .      S
C193  H169  1.092 .      S
C193  H170  1.105 .      S
C193  H171  1.104 .      S
C195  H172  1.054 .      S
C196  H173  1.064 .      S
C198  S25   1.791 .      S
C200  H174  1.061 .      S
S25   O75   1.713 .      S
O75   H175  0.989 .      S
C201  C202  1.490 .      S
C201  H176  1.108 .      S
C201  H177  1.108 .      S
C201  H178  1.106 .      S
C203  H179  1.081 .      S
C204  H180  1.073 .      S
C206  S26   1.744 .      S
C208  H181  1.078 .      S
S26   O78   1.708 .      S
O78   H182  0.987 .      S
C209  C210  1.487 .      S
C209  H183  1.109 .      S
C209  H184  1.108 .      S
C209  H185  1.109 .      S
C211  H186  1.080 .      S
C212  H187  1.060 .      S
C214  S27   1.814 .      S
C216  H188  1.072 .      S
S27   O81   1.714 .      S
O81   H189  0.989 .      S
C217  C218  1.486 .      S
C217  H190  1.108 .      S
C217  H191  1.107 .      S
C217  H192  1.106 .      S
C219  H193  1.079 .      S
C220  H194  1.072 .      S
C222  S28   1.786 .      S
C224  H195  1.074 .      S
S28   O84   1.715 .      S
O84   H196  0.990 .      S
C225  C226  1.488 .      S
C225  H197  1.109 .      S
C225  H198  1.109 .      S
C225  H199  1.109 .      S
C227  H200  1.081 .      S
C228  H201  1.079 .      S
C230  S29   1.737 .      S
C232  H202  1.077 .      S
S29   O87   1.676 .      S
O87   H203  0.990 .      S
C233  C234  1.488 .      S
C233  H204  1.109 .      S
C233  H205  1.108 .      S
C233  H206  1.109 .      S
C235  H207  1.081 .      S
C236  H208  1.076 .      S
C238  S30   1.749 .      S
C240  H209  1.072 .      S
S30   O90   1.697 .      S
O90   H210  0.988 .      S
C241  C242  1.489 .      S
C241  H211  1.109 .      S
C241  H212  1.107 .      S
C241  H213  1.107 .      S
C243  H214  1.080 .      S
C244  H215  1.079 .      S
C246  S31   1.751 .      S
C248  H216  1.080 .      S
S31   O93   1.695 .      S
O93   H217  0.989 1_545  S
H217  O93   0.989 1_565  S
C249  C250  1.488 .      S
C249  H218  1.109 .      S
C249  H219  1.109 .      S
C249  H220  1.109 .      S
C251  H221  1.081 .      S
C252  H222  1.080 .      S
C254  S32   1.742 .      S
C256  H223  1.071 .      S
S32   O96   1.709 .      S
O96   H224  0.981 .      S
C257  C258  1.465 .      S
C257  H225  1.098 .      S
C257  H226  1.104 .      S
C257  H227  1.102 .      S
C259  H228  1.081 .      S
C260  H229  1.078 1_565  S
C262  S33   1.768 .      S
C264  H230  1.064 .      S
S33   O99   1.689 .      S
O99   H231  0.986 .      S
H229  C260  1.078 1_545  S
C265  C266  1.483 .      S
C265  H232  1.109 .      S
C265  H233  1.101 .      S
C265  H234  1.109 .      S
C267  H235  1.081 .      S
C268  H236  1.064 .      S
N67   Zn22  2.228 1_655  S
C270  S34   1.795 .      S
C272  H237  1.073 .      S
S34   O102  1.715 1_655  S
O102  S34   1.715 1_455  S
O102  H238  0.990 1_455  S
H238  O102  0.990 1_655  S
C273  C274  1.479 .      S
C273  H239  1.106 .      S
C273  H240  1.107 .      S
C273  H241  1.108 .      S
C275  H242  1.080 .      S
C276  H243  1.053 .      S
C278  S35   1.811 .      S
C280  H244  1.065 .      S
S35   O105  1.714 .      S
O105  H245  0.990 .      S
C281  C282  1.452 .      S
C281  H246  1.095 .      S
C281  H247  1.099 .      S
C281  H248  1.105 .      S
C283  H249  1.057 .      S
C284  H250  1.058 .      S
C286  S36   1.784 .      S
C288  H251  1.053 .      S
S36   O108  1.706 .      S
O108  H252  0.990 .      S
C289  C290  1.484 .      S
C289  H253  1.108 .      S
C289  H254  1.103 .      S
C289  H255  1.106 .      S
C291  H256  1.081 .      S
C292  H257  1.069 .      S
C294  S37   1.785 .      S
C296  H258  1.037 .      S
S37   O111  1.695 .      S
O111  H259  0.985 .      S
C297  C298  1.488 .      S
C297  H260  1.109 .      S
C297  H261  1.109 .      S
C297  H262  1.108 .      S
C299  H263  1.080 .      S
C300  H264  1.047 .      S
C302  S38   1.738 .      S
C304  H265  1.056 .      S
S38   O114  1.701 .      S
O114  H266  0.982 .      S
C305  C306  1.485 .      S
C305  H267  1.108 .      S
C305  H268  1.109 .      S
C305  H269  1.105 .      S
C307  H270  1.081 .      S
C308  H271  1.081 .      S
C310  S39   1.801 .      S
C312  H272  1.072 .      S
S39   O117  1.710 .      S
O117  H273  0.989 .      S
C313  C314  1.456 .      S
C313  H274  1.095 .      S
C313  H275  1.104 .      S
C313  H276  1.096 .      S
C315  H277  1.074 .      S
C316  H278  1.059 .      S
C318  S40   1.793 .      S
C320  H279  1.050 .      S
S40   O120  1.718 .      S
O120  H280  0.990 .      S
C321  C322  1.488 .      S
C321  H281  1.109 .      S
C321  H282  1.107 .      S
C321  H283  1.109 .      S
C323  H284  1.081 .      S
C324  H285  1.072 .      S
C326  S41   1.804 .      S
C328  H286  1.067 .      S
S41   O123  1.716 .      S
O123  H287  0.989 .      S
C329  C330  1.488 .      S
C329  H288  1.108 .      S
C329  H289  1.108 .      S
C329  H290  1.108 1_554  S
C331  H291  1.081 .      S
C332  H292  1.064 .      S
C334  S42   1.762 .      S
C336  H293  1.059 .      S
S42   O126  1.691 .      S
O126  H294  0.989 .      S
H290  C329  1.108 1_556  S
C337  C338  1.475 .      S
C337  H295  1.107 .      S
C337  H296  1.108 .      S
C337  H297  1.108 .      S
C339  H298  1.073 .      S
C340  H299  1.062 .      S
C342  S43   1.766 .      S
C344  H300  1.065 .      S
S43   O129  1.712 .      S
O129  H301  0.989 .      S
C345  C346  1.471 .      S
C345  H302  1.096 .      S
C345  H303  1.084 .      S
C345  H304  1.096 .      S
C347  H305  1.053 .      S
C348  H306  1.065 .      S
C350  S44   1.805 .      S
C352  H307  1.078 .      S
S44   O132  1.708 .      S
O132  H308  0.989 .      S
C353  C354  1.485 .      S
C353  H309  1.109 .      S
C353  H310  1.106 .      S
C353  H311  1.109 .      S
C355  H312  1.079 .      S
C356  H313  1.054 .      S
C358  S45   1.761 .      S
C360  H314  1.049 .      S
S45   O135  1.698 .      S
O135  H315  0.989 .      S
C361  C362  1.450 .      S
C361  H316  1.091 .      S
C361  H317  1.105 .      S
C361  H318  1.100 .      S
C363  H319  1.078 .      S
C364  H320  1.061 .      S
C366  S46   1.747 .      S
C368  H321  1.067 .      S
S46   O138  1.698 .      S
O138  H322  0.985 .      S
C369  C370  1.481 .      S
C369  H323  1.099 .      S
C369  H324  1.109 .      S
C369  H325  1.109 .      S
C371  H326  1.064 .      S
C372  H327  1.060 .      S
C374  S47   1.767 .      S
C376  H328  1.071 .      S
S47   O141  1.715 .      S
O141  H329  0.990 .      S
C377  C378  1.487 1_545  S
C377  H330  1.109 .      S
C377  H331  1.108 .      S
C377  H332  1.109 .      S
C378  C377  1.487 1_565  S
C379  H333  1.080 .      S
C380  H334  1.060 .      S
C382  S48   1.796 .      S
C384  H335  1.059 .      S
S48   O144  1.704 .      S
O144  H336  0.989 .      S
C385  C386  1.487 1_545  S
C385  H337  1.109 .      S
C385  H338  1.109 .      S
C385  H339  1.109 .      S
C386  C385  1.487 1_565  S
C387  H340  1.081 1_565  S
C388  H341  1.073 .      S
C390  S49   1.760 .      S
C392  H342  1.079 .      S
S49   O147  1.700 .      S
O147  H343  0.984 .      S
H340  C387  1.081 1_545  S
C393  C394  1.444 .      S
C393  H344  1.083 .      S
C393  H345  1.102 .      S
C393  H346  1.091 .      S
C395  H347  1.076 .      S
C396  H348  1.075 .      S
C398  S50   1.808 .      S
C400  H349  1.056 1_565  S
S50   O150  1.711 .      S
O150  H350  0.990 .      S
H349  C400  1.056 1_545  S
C401  C402  1.461 .      S
C401  H351  1.099 .      S
C401  H352  1.092 .      S
C401  H353  1.104 .      S
C403  H354  1.078 .      S
C404  H355  1.060 .      S
C406  S51   1.779 .      S
N102  Zn40  2.107 1_554  S
C408  H356  1.055 .      S
S51   O153  1.717 1_554  S
O153  S51   1.717 1_556  S
O153  H357  0.988 .      S
C409  C410  1.474 .      S
C409  H358  1.093 .      S
C409  H359  1.097 .      S
C409  H360  1.101 .      S
C411  H361  1.078 .      S
C412  H362  1.044 .      S
N103  Zn41  2.108 1_554  S
C414  S52   1.760 .      S
C416  H363  1.040 .      S
S52   O156  1.711 .      S
O156  H364  0.990 .      S
C417  C418  1.484 .      S
C417  H365  1.109 .      S
C417  H366  1.100 .      S
C417  H367  1.105 .      S
C419  H368  1.075 .      S
C420  H369  1.060 .      S
C422  S53   1.803 .      S
C424  H370  1.062 .      S
S53   O159  1.712 .      S
O159  H371  0.990 .      S
C425  C426  1.488 .      S
C425  H372  1.109 .      S
C425  H373  1.109 .      S
C425  H374  1.109 .      S
C427  H375  1.081 .      S
C428  H376  1.070 .      S
C430  S54   1.791 .      S
C432  H377  1.075 .      S
S54   O162  1.706 .      S
O162  H378  0.990 .      S
C433  C434  1.487 .      S
C433  H379  1.108 .      S
C433  H380  1.108 .      S
C433  H381  1.107 .      S
C435  H382  1.080 .      S
C436  H383  1.061 .      S
C438  S55   1.790 .      S
C440  H384  1.062 .      S
S55   O165  1.688 .      S
O165  H385  0.981 .      S
C441  C442  1.487 .      S
C441  H386  1.109 .      S
C441  H387  1.105 .      S
C441  H388  1.109 .      S
C443  H389  1.081 .      S
C444  H390  1.080 .      S
C446  S56   1.774 .      S
C448  H391  1.074 .      S
S56   O168  1.686 .      S
O168  H392  0.988 .      S
C449  C450  1.460 .      S
C449  H393  1.089 .      S
C449  H394  1.104 .      S
C449  H395  1.093 .      S
C451  H396  1.072 .      S
C452  H397  1.075 .      S
C454  S57   1.814 .      S
C456  H398  1.067 .      S
S57   O171  1.692 .      S
O171  H399  0.986 .      S
C457  C458  1.489 .      S
C457  H400  1.106 .      S
C457  H401  1.105 .      S
C457  H402  1.109 .      S
C459  H403  1.078 .      S
C460  H404  1.042 .      S
C462  S58   1.790 .      S
C464  H405  1.057 .      S
S58   O174  1.713 .      S
O174  H406  0.989 .      S
C465  C466  1.490 .      S
C465  H407  1.109 .      S
C465  H408  1.108 .      S
C465  H409  1.109 .      S
C467  H410  1.080 .      S
C468  H411  1.065 .      S
C470  S59   1.780 .      S
N118  Zn30  2.129 1_455  S
C472  H412  1.053 .      S
S59   O177  1.697 .      S
O177  H413  0.987 .      S
C473  C474  1.488 1_455  S
C473  H414  1.109 .      S
C473  H415  1.109 .      S
C473  H416  1.109 1_455  S
C474  C473  1.488 1_655  S
C475  H417  1.081 .      S
C476  H418  1.079 .      S
C478  S60   1.768 1_545  S
C480  H419  1.080 1_645  S
S60   C478  1.768 1_565  S
S60   O180  1.709 .      S
O180  H420  0.989 1_565  S
H416  C473  1.109 1_655  S
H419  C480  1.080 1_465  S
H420  O180  0.989 1_545  S
C481  C482  1.486 .      S
C481  H421  1.100 .      S
C481  H422  1.108 .      S
C481  H423  1.106 .      S
C483  H424  1.061 .      S
C484  H425  1.074 .      S
C486  S61   1.742 1_655  S
C488  H426  1.063 .      S
S61   C486  1.742 1_455  S
S61   O183  1.701 .      S
O183  H427  0.989 .      S
C489  C490  1.486 .      S
C489  H428  1.109 .      S
C489  H429  1.106 .      S
C489  H430  1.107 .      S
C491  H431  1.081 .      S
C492  H432  1.075 .      S
C494  S62   1.771 .      S
C496  H433  1.056 .      S
S62   O186  1.695 .      S
O186  H434  0.987 .      S
C497  C498  1.488 .      S
C497  H435  1.109 .      S
C497  H436  1.107 .      S
C497  H437  1.109 .      S
C499  H438  1.081 .      S
C500  H439  1.066 .      S
C502  S63   1.800 .      S
C504  H440  1.066 .      S
S63   O189  1.715 1_565  S
O189  S63   1.715 1_545  S
O189  H441  0.990 .      S
C505  C506  1.467 .      S
C505  H442  1.096 .      S
C505  H443  1.079 .      S
C505  H444  1.105 .      S
C507  H445  1.068 .      S
C508  H446  1.070 .      S
C510  S64   1.790 .      S
C512  H447  1.078 .      S
S64   O192  1.713 .      S
O192  H448  0.989 .      S
C513  C514  1.488 .      S
C513  H449  1.109 .      S
C513  H450  1.104 .      S
C513  H451  1.109 .      S
C515  H452  1.081 .      S
C516  H453  1.067 .      S
C518  S65   1.785 .      S
C520  H454  1.065 .      S
S65   O195  1.696 .      S
O195  H455  0.989 .      S
C521  C522  1.484 .      S
C521  H456  1.097 .      S
C521  H457  1.098 .      S
C521  H458  1.105 .      S
C523  H459  1.073 .      S
C524  H460  1.051 .      S
C526  S66   1.813 .      S
C528  H461  1.045 .      S
S66   O198  1.717 .      S
O198  H462  0.990 .      S
C529  C530  1.492 .      S
C529  H463  1.107 .      S
C529  H464  1.106 .      S
C529  H465  1.098 .      S
C531  H466  1.076 .      S
C532  H467  1.038 .      S
C534  S67   1.769 .      S
C536  H468  1.064 .      S
S67   O201  1.698 .      S
O201  H469  0.983 .      S
C537  C538  1.485 .      S
C537  H470  1.107 .      S
C537  H471  1.109 .      S
C537  H472  1.102 .      S
C539  H473  1.066 .      S
C540  H474  1.033 .      S
C542  S68   1.783 .      S
C544  H475  1.034 .      S
S68   O204  1.709 .      S
O204  H476  0.989 .      S
C545  C546  1.489 .      S
C545  H477  1.108 .      S
C545  H478  1.109 1_655  S
C545  H479  1.108 .      S
C547  H480  1.081 .      S
C548  H481  1.080 .      S
C550  S69   1.734 .      S
C552  H482  1.080 .      S
S69   O207  1.688 .      S
O207  H483  0.986 .      S
H478  C545  1.109 1_455  S
C553  C554  1.485 .      S
C553  H484  1.106 .      S
C553  H485  1.104 .      S
C553  H486  1.106 .      S
C555  H487  1.081 .      S
C556  H488  1.048 .      S
C558  S70   1.793 .      S
C560  H489  1.066 .      S
S70   O210  1.714 .      S
O210  H490  0.990 .      S
C561  C562  1.486 .      S
C561  H491  1.107 .      S
C561  H492  1.108 .      S
C561  H493  1.108 .      S
C563  H494  1.081 .      S
C564  H495  1.078 .      S
C566  S71   1.729 .      S
C568  H496  1.068 .      S
S71   O213  1.703 .      S
O213  H497  0.986 .      S
C569  C570  1.488 1_455  S
C569  H498  1.109 .      S
C569  H499  1.108 .      S
C569  H500  1.109 .      S
C570  C569  1.488 1_655  S
C571  H501  1.081 1_655  S
C572  H502  1.070 .      S
C574  S72   1.691 .      S
C576  H503  1.068 .      S
S72   O216  1.709 .      S
O216  H504  0.988 .      S
H501  C571  1.081 1_455  S
C577  C578  1.488 .      S
C577  H505  1.109 .      S
C577  H506  1.108 .      S
C577  H507  1.109 .      S
C579  H508  1.081 .      S
C580  H509  1.074 .      S
C582  S73   1.779 .      S
C584  H510  1.081 .      S
S73   O219  1.709 .      S
O219  H511  0.990 .      S
C585  C586  1.423 1_655  S
C585  H512  1.108 .      S
C585  H513  1.093 1_655  S
C585  H514  1.102 .      S
C586  C585  1.423 1_455  S
C587  H515  1.075 .      S
C588  H516  1.058 .      S
N147  Zn47  2.238 1_556  S
C590  S74   1.777 .      S
C592  H517  1.070 .      S
S74   O222  1.710 .      S
O222  H518  0.989 .      S
H513  C585  1.093 1_455  S
C593  C594  1.489 .      S
C593  H519  1.109 .      S
C593  H520  1.108 .      S
C593  H521  1.107 .      S
C595  H522  1.080 .      S
C596  H523  1.069 .      S
C598  S75   1.765 .      S
C600  H524  1.069 .      S
S75   O225  1.706 .      S
O225  H525  0.986 .      S
C601  C602  1.482 1_455  S
C601  H526  1.107 1_455  S
C601  H527  1.103 .      S
C601  H528  1.108 .      S
C602  C601  1.482 1_655  S
C603  H529  1.081 1_565  S
C604  H530  1.077 .      S
C606  S76   1.754 .      S
C608  H531  1.060 .      S
S76   O228  1.710 .      S
O228  H532  0.990 .      S
H526  C601  1.107 1_655  S
H529  C603  1.081 1_545  S
C609  C610  1.489 .      S
C609  H533  1.108 .      S
C609  H534  1.108 .      S
C609  H535  1.109 .      S
C611  H536  1.081 .      S
C612  H537  1.079 1_545  S
C614  S77   1.722 .      S
C616  H538  1.074 .      S
S77   O231  1.702 .      S
O231  H539  0.985 .      S
H537  C612  1.079 1_565  S
C617  C618  1.489 .      S
C617  H540  1.108 .      S
C617  H541  1.108 .      S
C617  H542  1.106 .      S
C619  H543  1.081 .      S
C620  H544  1.052 .      S
C622  S78   1.808 .      S
N156  Zn39  2.151 1_455  S
C624  H545  1.069 .      S
S78   O234  1.693 .      S
O234  H546  0.991 .      S
C625  C626  1.487 .      S
C625  H547  1.109 .      S
C625  H548  1.109 .      S
C625  H549  1.109 .      S
C627  H550  1.081 .      S
C628  H551  1.074 .      S
C630  S79   1.806 .      S
C632  H552  1.081 .      S
S79   O237  1.712 .      S
O237  H553  0.989 1_655  S
H553  O237  0.989 1_455  S
C633  C634  1.468 .      S
C633  H554  1.098 .      S
C633  H555  1.107 .      S
C633  H556  1.089 .      S
C635  H557  1.063 .      S
C636  H558  1.073 .      S
C638  S80   1.787 1_655  S
C640  H559  1.055 .      S
S80   C638  1.787 1_455  S
S80   O240  1.699 .      S
O240  H560  0.982 .      S
C641  C642  1.492 .      S
C641  H561  1.109 1_554  S
C641  H562  1.106 .      S
C641  H563  1.109 .      S
C643  H564  1.080 .      S
C644  H565  1.041 .      S
C646  S81   1.800 .      S
C648  H566  1.036 .      S
S81   O243  1.715 1_554  S
O243  S81   1.715 1_556  S
O243  H567  0.990 .      S
H561  C641  1.109 1_556  S
C649  C650  1.485 .      S
C649  H568  1.109 .      S
C649  H569  1.108 .      S
C649  H570  1.109 .      S
C651  H571  1.081 .      S
C652  H572  1.059 .      S
C654  S82   1.777 .      S
C656  H573  1.065 .      S
S82   O246  1.713 .      S
O246  H574  0.990 .      S
C657  C658  1.475 .      S
C657  H575  1.108 1_655  S
C657  H576  1.093 .      S
C657  H577  1.108 .      S
C659  H578  1.076 .      S
C660  H579  1.063 .      S
C662  S83   1.752 .      S
C664  H580  1.079 .      S
S83   O249  1.687 .      S
O249  H581  0.980 .      S
H575  C657  1.108 1_455  S
C665  C666  1.482 1_545  S
C665  H582  1.105 .      S
C665  H583  1.106 .      S
C665  H584  1.109 .      S
C666  C665  1.482 1_565  S
C667  H585  1.080 .      S
C668  H586  1.068 1_556  S
C670  S84   1.779 .      S
N168  Zn41  2.173 1_554  S
C672  H587  1.051 .      S
S84   O252  1.710 .      S
O252  H588  0.989 .      S
H586  C668  1.068 1_554  S
C673  C674  1.488 .      S
C673  H589  1.109 .      S
C673  H590  1.107 .      S
C673  H591  1.109 .      S
C675  H592  1.081 .      S
C676  H593  1.056 .      S
N169  Zn41  2.112 1_554  S
C678  S85   1.777 .      S
C680  H594  1.072 .      S
S85   O255  1.713 .      S
O255  H595  0.988 .      S
C681  C682  1.488 .      S
C681  H596  1.108 .      S
C681  H597  1.109 .      S
C681  H598  1.109 .      S
C683  H599  1.081 .      S
C684  H600  1.066 .      S
C686  S86   1.818 .      S
C688  H601  1.075 1_565  S
S86   O258  1.699 .      S
O258  H602  0.990 .      S
H601  C688  1.075 1_545  S
C689  C690  1.488 1_545  S
C689  H603  1.109 .      S
C689  H604  1.109 .      S
C689  H605  1.109 .      S
C690  C689  1.488 1_565  S
C691  H606  1.081 .      S
C692  H607  1.050 .      S
N173  Zn42  2.120 1_455  S
C694  S87   1.772 .      S
C696  H608  1.077 .      S
S87   O261  1.688 1_554  S
O261  S87   1.688 1_556  S
O261  H609  0.986 .      S
C697  C698  1.471 .      S
C697  H610  1.093 .      S
C697  H611  1.106 .      S
C697  H612  1.100 .      S
C699  H613  1.077 .      S
C700  H614  1.060 .      S
C702  S88   1.751 .      S
C704  H615  1.040 .      S
S88   O264  1.694 .      S
O264  H616  0.987 1_655  S
H616  O264  0.987 1_455  S
C705  C706  1.447 .      S
C705  H617  1.094 .      S
C705  H618  1.103 .      S
C705  H619  1.094 .      S
C707  H620  1.067 .      S
C708  H621  1.041 .      S
C710  S89   1.813 .      S
C712  H622  1.060 .      S
S89   O267  1.689 .      S
O267  H623  0.984 .      S
C713  C714  1.470 .      S
C713  H624  1.089 .      S
C713  H625  1.098 1_455  S
C713  H626  1.103 .      S
C715  H627  1.074 .      S
C716  H628  1.074 1_655  S
C718  S90   1.781 .      S
C720  H629  1.069 .      S
S90   O270  1.704 .      S
O270  H630  0.979 .      S
H625  C713  1.098 1_655  S
H628  C716  1.074 1_455  S
C721  C722  1.488 .      S
C721  H631  1.109 .      S
C721  H632  1.108 .      S
C721  H633  1.109 .      S
C723  H634  1.081 .      S
C724  H635  1.078 .      S
C726  S91   1.787 .      S
C728  H636  1.071 .      S
S91   O273  1.711 .      S
O273  H637  0.987 .      S
C729  C730  1.487 .      S
C729  H638  1.108 .      S
C729  H639  1.109 .      S
C729  H640  1.109 .      S
C731  H641  1.081 .      S
C732  H642  1.080 .      S
C734  S92   1.792 .      S
C736  H643  1.075 .      S
S92   O276  1.696 .      S
O276  H644  0.981 .      S
C737  C738  1.481 .      S
C737  H645  1.094 .      S
C737  H646  1.104 .      S
C737  H647  1.108 .      S
C739  H648  1.074 1_455  S
C740  H649  1.059 .      S
N185  Zn45  2.049 1_455  S
C742  S93   1.789 .      S
C744  H650  1.072 .      S
S93   O279  1.711 .      S
O279  H651  0.990 .      S
H648  C739  1.074 1_655  S
C745  C746  1.493 .      S
C745  H652  1.109 .      S
C745  H653  1.109 .      S
C745  H654  1.109 .      S
C747  H655  1.080 .      S
C748  H656  1.056 .      S
C750  S94   1.747 .      S
C752  H657  1.040 .      S
S94   O282  1.706 .      S
O282  H658  0.989 .      S
C753  C754  1.489 .      S
C753  H659  1.108 .      S
C753  H660  1.109 .      S
C753  H661  1.107 .      S
C755  H662  1.081 .      S
C756  H663  1.053 .      S
N189  Zn54  2.131 1_556  S
C758  S95   1.772 .      S
N190  Zn47  2.155 1_556  S
C760  H664  1.062 .      S
S95   O285  1.714 .      S
O285  H665  0.990 .      S
C761  C762  1.488 .      S
C761  H666  1.106 .      S
C761  H667  1.109 .      S
C761  H668  1.108 .      S
C763  H669  1.081 1_565  S
C764  H670  1.064 .      S
C766  S96   1.760 .      S
C768  H671  1.066 .      S
S96   O288  1.684 .      S
O288  H672  0.988 .      S
H669  C763  1.081 1_545  S
C769  C770  1.488 .      S
C769  H673  1.109 .      S
C769  H674  1.108 .      S
C769  H675  1.109 .      S
C771  H676  1.081 .      S
C772  H677  1.078 .      S
C774  S97   1.808 .      S
C776  H678  1.062 .      S
S97   O291  1.703 .      S
O291  H679  0.984 .      S
C777  C778  1.489 .      S
C777  H680  1.109 .      S
C777  H681  1.107 .      S
C777  H682  1.108 .      S
C779  H683  1.081 .      S
C780  H684  1.081 .      S
C782  S98   1.801 .      S
C784  H685  1.072 .      S
S98   O294  1.700 .      S
O294  H686  0.990 .      S
C785  C786  1.488 .      S
C785  H687  1.107 .      S
C785  H688  1.109 .      S
C785  H689  1.101 .      S
C787  H690  1.080 .      S
C788  H691  1.081 .      S
C790  S99   1.640 .      S
C792  H692  1.062 .      S
S99   O297  1.684 .      S
O297  H693  0.989 .      S
C793  C794  1.488 .      S
C793  H694  1.109 .      S
C793  H695  1.107 .      S
C793  H696  1.109 .      S
C795  H697  1.081 .      S
C796  H698  1.079 .      S
C798  S100  1.675 .      S
C800  H699  1.077 .      S
S100  O300  1.637 .      S
O300  H700  0.990 .      S
C801  C802  1.518 .      S
C801  H701  1.096 .      S
C801  H702  1.100 .      S
C801  H703  1.093 .      S
C803  H704  1.076 .      S
C804  H705  1.080 .      S
C806  S101  1.794 .      S
C808  H706  1.068 .      S
S101  O303  1.716 .      S
O303  H707  0.990 .      S
C809  C810  1.497 .      S
C809  H708  1.108 .      S
C809  H709  1.100 .      S
C809  H710  1.100 .      S
C811  H711  1.073 .      S
C812  H712  1.070 .      S
C814  S102  1.816 .      S
C816  H713  1.060 .      S
S102  O306  1.713 .      S
O306  H714  0.990 .      S
C817  C818  1.500 .      S
C817  H715  1.103 .      S
C817  H716  1.108 .      S
C817  H717  1.108 .      S
C819  H718  1.079 .      S
C820  H719  1.073 .      S
C822  S103  1.619 .      S
C824  H720  1.068 .      S
S103  O309  1.670 .      S
O309  H721  0.991 .      S
C825  C826  1.485 .      S
C825  H722  1.109 .      S
C825  H723  1.107 .      S
C825  H724  1.109 .      S
C827  H725  1.080 .      S
C828  H726  1.078 .      S
C830  S104  1.733 .      S
C832  H727  1.076 .      S
S104  O312  1.699 .      S
O312  H728  0.984 .      S
C833  C834  1.487 1_655  S
C833  H729  1.108 .      S
C833  H730  1.108 .      S
C833  H731  1.109 .      S
C834  C833  1.487 1_455  S
C835  H732  1.081 .      S
C836  H733  1.060 .      S
C838  S105  1.772 .      S
C840  H734  1.060 1_455  S
S105  O315  1.711 1_545  S
O315  S105  1.711 1_565  S
O315  H735  0.989 .      S
H734  C840  1.060 1_655  S
C841  C842  1.488 .      S
C841  H736  1.109 .      S
C841  H737  1.108 .      S
C841  H738  1.109 .      S
C843  H739  1.081 .      S
C844  H740  1.071 .      S
C846  S106  1.713 .      S
C848  H741  1.077 .      S
S106  O318  1.695 .      S
O318  H742  0.988 .      S
C849  C850  1.480 .      S
C849  H743  1.098 .      S
C849  H744  1.097 .      S
C849  H745  1.109 .      S
C851  H746  1.077 .      S
C852  H747  1.063 .      S
C854  S107  1.770 .      S
C856  H748  1.063 .      S
S107  O321  1.712 .      S
O321  H749  0.990 .      S
C857  C858  1.488 .      S
C857  H750  1.109 .      S
C857  H751  1.109 .      S
C857  H752  1.109 .      S
C859  H753  1.080 .      S
C860  H754  1.074 .      S
C862  S108  1.789 .      S
N216  Zn54  2.129 1_556  S
C864  H755  1.080 .      S
S108  O324  1.700 .      S
O324  H756  0.990 .      S
C865  C866  1.490 .      S
C865  H757  1.108 .      S
C865  H758  1.109 .      S
C865  H759  1.107 .      S
C867  H760  1.081 .      S
C868  H761  1.073 .      S
C870  S109  1.789 .      S
C872  H762  1.073 .      S
S109  O327  1.711 .      S
O327  H763  0.989 .      S
C873  C874  1.485 .      S
C873  H764  1.101 .      S
C873  H765  1.106 .      S
C873  H766  1.109 .      S
C875  H767  1.078 .      S
C876  H768  1.051 .      S
C878  S110  1.759 .      S
C880  H769  1.052 .      S
S110  O330  1.710 .      S
O330  H770  0.989 .      S
C881  C882  1.467 .      S
C881  H771  1.083 .      S
C881  H772  1.090 .      S
C881  H773  1.107 .      S
C883  H774  1.066 .      S
C884  H775  1.065 .      S
C886  S111  1.790 .      S
C888  H776  1.081 .      S
S111  O333  1.713 .      S
O333  H777  0.990 .      S
C889  C890  1.488 .      S
C889  H778  1.109 .      S
C889  H779  1.109 .      S
C889  H780  1.109 .      S
C891  H781  1.081 .      S
C892  H782  1.072 .      S
C894  S112  1.683 .      S
C896  H783  1.080 .      S
S112  O336  1.689 .      S
O336  H784  0.989 .      S
C2    C3    1.365 .      A
C2    C8    1.362 .      A
C3    C4    1.369 .      A
C4    C5    1.366 .      A
C5    N1    1.347 .      A
C5    C7    1.354 .      A
N1    C6    1.410 .      A
C6    N2    1.373 .      A
N2    C7    1.328 .      A
C7    C8    1.357 .      A
C10   C11   1.391 .      A
C10   C16   1.380 .      A
C11   C12   1.384 .      A
C12   C13   1.373 .      A
C13   N3    1.345 .      A
C13   C15   1.354 .      A
N3    C14   1.388 .      A
C14   N4    1.375 .      A
N4    C15   1.339 .      A
C15   C16   1.361 .      A
C18   C19   1.374 .      A
C18   C24   1.364 .      A
C19   C20   1.367 .      A
C20   C21   1.366 .      A
C21   N5    1.333 .      A
C21   C23   1.352 .      A
N5    C22   1.400 .      A
C22   N6    1.403 .      A
N6    C23   1.340 .      A
C23   C24   1.350 .      A
C26   C27   1.375 .      A
C26   C32   1.365 .      A
C27   C28   1.378 .      A
C28   C29   1.375 .      A
C29   N7    1.355 .      A
C29   C31   1.342 .      A
N7    C30   1.383 .      A
C30   N8    1.380 .      A
N8    C31   1.341 .      A
C31   C32   1.363 .      A
C34   C35   1.383 .      A
C34   C40   1.384 .      A
C35   C36   1.378 .      A
C36   C37   1.373 .      A
C37   N9    1.339 .      A
C37   C39   1.362 .      A
N9    C38   1.367 .      A
C38   N10   1.379 .      A
N10   C39   1.363 .      A
C39   C40   1.376 .      A
C42   C43   1.357 .      A
C42   C48   1.352 .      A
C43   C44   1.356 .      A
C44   C45   1.371 .      A
C45   N11   1.348 .      A
C45   C47   1.367 .      A
N11   C46   1.390 .      A
C46   N12   1.406 .      A
N12   C47   1.326 .      A
C47   C48   1.347 .      A
C50   C51   1.391 .      A
C50   C56   1.387 .      A
C51   C52   1.381 .      A
C52   C53   1.369 .      A
C53   N13   1.344 .      A
C53   C55   1.377 .      A
N13   C54   1.377 .      A
C54   N14   1.373 .      A
N14   C55   1.352 .      A
C55   C56   1.369 .      A
C58   C59   1.387 .      A
C58   C64   1.380 .      A
C59   C60   1.385 .      A
C60   C61   1.374 .      A
C61   N15   1.353 .      A
C61   C63   1.360 .      A
N15   C62   1.374 .      A
C62   N16   1.398 .      A
N16   C63   1.335 .      A
C63   C64   1.364 .      A
C66   C67   1.375 .      A
C66   C72   1.371 .      A
C67   C68   1.378 .      A
C68   C69   1.361 .      A
C69   N17   1.340 .      A
C69   C71   1.358 .      A
N17   C70   1.395 .      A
C70   N18   1.392 .      A
N18   C71   1.333 .      A
C71   C72   1.354 .      A
C74   C75   1.384 .      A
C74   C80   1.383 .      A
C75   C76   1.379 .      A
C76   C77   1.372 .      A
C77   N19   1.345 .      A
C77   C79   1.366 .      A
N19   C78   1.391 .      A
C78   N20   1.397 .      A
N20   C79   1.357 .      A
C79   C80   1.375 .      A
C82   C83   1.391 .      A
C82   C88   1.387 .      A
C83   C84   1.383 .      A
C84   C85   1.368 .      A
C85   N21   1.346 .      A
C85   C87   1.378 .      A
N21   C86   1.386 .      A
C86   N22   1.403 .      A
N22   C87   1.353 .      A
C87   C88   1.372 .      A
C90   C91   1.374 .      A
C90   C96   1.388 .      A
C91   C92   1.347 .      A
C92   C93   1.358 .      A
C93   N23   1.320 .      A
C93   C95   1.360 .      A
N23   C94   1.383 .      A
C94   N24   1.398 .      A
N24   C95   1.353 .      A
C95   C96   1.366 .      A
C98   C99   1.387 .      A
C98   C104  1.386 .      A
C99   C100  1.380 .      A
C100  C101  1.370 .      A
C101  N25   1.339 .      A
C101  C103  1.364 .      A
N25   C102  1.377 .      A
C102  N26   1.382 .      A
N26   C103  1.358 .      A
C103  C104  1.370 .      A
C106  C107  1.385 .      A
C106  C112  1.385 .      A
C107  C108  1.380 .      A
C108  C109  1.374 .      A
C109  N27   1.354 1_545  A
C109  C111  1.373 .      A
N27   C109  1.354 1_565  A
N27   C110  1.410 1_565  A
C110  N27   1.410 1_545  A
C110  N28   1.410 .      A
N28   C111  1.349 .      A
C111  C112  1.364 .      A
C114  C115  1.377 .      A
C114  C120  1.357 .      A
C115  C116  1.375 .      A
C116  C117  1.367 .      A
C117  N29   1.333 .      A
C117  C119  1.349 .      A
N29   C118  1.384 .      A
C118  N30   1.374 .      A
N30   C119  1.336 .      A
C119  C120  1.339 .      A
C122  C123  1.387 .      A
C122  C128  1.379 1_545  A
C123  C124  1.383 1_545  A
C124  C123  1.383 1_565  A
C124  C125  1.371 .      A
C125  N31   1.357 .      A
C125  C127  1.377 .      A
N31   C126  1.395 .      A
C126  N32   1.381 .      A
N32   C127  1.343 .      A
C127  C128  1.373 .      A
C128  C122  1.379 1_565  A
C130  C131  1.383 .      A
C130  C136  1.383 1_545  A
C131  C132  1.378 1_545  A
C132  C131  1.378 1_565  A
C132  C133  1.367 .      A
C133  N33   1.334 .      A
C133  C135  1.366 .      A
N33   C134  1.390 .      A
C134  N34   1.395 .      A
N34   C135  1.362 .      A
C135  C136  1.371 .      A
C136  C130  1.383 1_565  A
C138  C139  1.388 .      A
C138  C144  1.381 .      A
C139  C140  1.385 .      A
C140  C141  1.373 .      A
C141  N35   1.363 .      A
C141  C143  1.364 .      A
N35   C142  1.405 .      A
C142  N36   1.380 1_545  A
N36   C142  1.380 1_565  A
N36   C143  1.336 1_565  A
C143  N36   1.336 1_545  A
C143  C144  1.372 .      A
C146  C147  1.389 .      A
C146  C152  1.385 .      A
C147  C148  1.383 .      A
C148  C149  1.376 .      A
C149  N37   1.350 .      A
C149  C151  1.371 .      A
N37   C150  1.377 .      A
C150  N38   1.399 .      A
N38   C151  1.353 .      A
C151  C152  1.375 .      A
C154  C155  1.386 .      A
C154  C160  1.384 .      A
C155  C156  1.380 .      A
C156  C157  1.366 .      A
C157  N39   1.347 .      A
C157  C159  1.364 .      A
N39   C158  1.392 .      A
C158  N40   1.396 .      A
N40   C159  1.351 .      A
C159  C160  1.376 .      A
C162  C163  1.394 .      A
C162  C168  1.351 .      A
C163  C164  1.374 .      A
C164  C165  1.333 .      A
C165  N41   1.340 .      A
C165  C167  1.356 .      A
N41   C166  1.396 .      A
C166  N42   1.401 .      A
N42   C167  1.316 .      A
C167  C168  1.351 .      A
C170  C171  1.380 .      A
C170  C176  1.378 .      A
C171  C172  1.380 .      A
C172  C173  1.378 .      A
C173  N43   1.355 .      A
C173  C175  1.373 .      A
N43   C174  1.399 .      A
C174  N44   1.393 .      A
N44   C175  1.349 .      A
C175  C176  1.369 .      A
C178  C179  1.389 .      A
C178  C184  1.394 .      A
C179  C180  1.379 .      A
C180  C181  1.372 .      A
C181  N45   1.336 .      A
C181  C183  1.365 .      A
N45   C182  1.394 .      A
C182  N46   1.393 .      A
N46   C183  1.353 .      A
C183  C184  1.372 .      A
C186  C187  1.388 .      A
C186  C192  1.385 .      A
C187  C188  1.383 .      A
C188  C189  1.368 .      A
C189  N47   1.353 .      A
C189  C191  1.375 .      A
N47   C190  1.422 .      A
C190  N48   1.392 .      A
N48   C191  1.344 .      A
C191  C192  1.371 .      A
C194  C195  1.365 .      A
C194  C200  1.362 .      A
C195  C196  1.370 .      A
C196  C197  1.347 .      A
C197  N49   1.335 .      A
C197  C199  1.343 .      A
N49   C198  1.387 .      A
C198  N50   1.389 .      A
N50   C199  1.331 .      A
C199  C200  1.354 .      A
C202  C203  1.391 .      A
C202  C208  1.386 .      A
C203  C204  1.383 .      A
C204  C205  1.371 .      A
C205  N51   1.355 .      A
C205  C207  1.382 .      A
N51   C206  1.387 .      A
C206  N52   1.405 .      A
N52   C207  1.349 .      A
C207  C208  1.374 .      A
C210  C211  1.385 .      A
C210  C216  1.382 .      A
C211  C212  1.383 .      A
C212  C213  1.363 .      A
C213  N53   1.352 .      A
C213  C215  1.359 .      A
N53   C214  1.392 .      A
C214  N54   1.406 .      A
N54   C215  1.341 .      A
C215  C216  1.371 .      A
C218  C219  1.382 .      A
C218  C224  1.392 .      A
C219  C220  1.375 .      A
C220  C221  1.359 .      A
C221  N55   1.337 .      A
C221  C223  1.362 .      A
N55   C222  1.396 .      A
C222  N56   1.406 .      A
N56   C223  1.354 .      A
C223  C224  1.376 .      A
C226  C227  1.394 .      A
C226  C232  1.391 .      A
C227  C228  1.385 .      A
C228  C229  1.370 .      A
C229  N57   1.345 .      A
C229  C231  1.368 .      A
N57   C230  1.376 .      A
C230  N58   1.376 .      A
N58   C231  1.349 .      A
C231  C232  1.375 .      A
C234  C235  1.390 .      A
C234  C240  1.385 .      A
C235  C236  1.384 .      A
C236  C237  1.373 .      A
C237  N59   1.351 .      A
C237  C239  1.375 .      A
N59   C238  1.392 .      A
C238  N60   1.391 .      A
N60   C239  1.350 .      A
C239  C240  1.370 .      A
C242  C243  1.392 .      A
C242  C248  1.389 .      A
C243  C244  1.384 .      A
C244  C245  1.370 .      A
C245  N61   1.348 .      A
C245  C247  1.375 .      A
N61   C246  1.388 .      A
C246  N62   1.391 .      A
N62   C247  1.349 .      A
C247  C248  1.372 .      A
C250  C251  1.391 .      A
C250  C256  1.386 .      A
C251  C252  1.386 .      A
C252  C253  1.366 .      A
C253  N63   1.344 .      A
C253  C255  1.370 .      A
N63   C254  1.360 .      A
C254  N64   1.379 .      A
N64   C255  1.350 .      A
C255  C256  1.369 .      A
C258  C259  1.383 .      A
C258  C264  1.377 .      A
C259  C260  1.374 .      A
C260  C261  1.371 1_565  A
C261  C260  1.371 1_545  A
C261  N65   1.334 .      A
C261  C263  1.362 .      A
N65   C262  1.391 .      A
C262  N66   1.391 .      A
N66   C263  1.352 .      A
C263  C264  1.356 1_545  A
C264  C263  1.356 1_565  A
C266  C267  1.386 .      A
C266  C272  1.390 .      A
C267  C268  1.379 .      A
C268  C269  1.360 .      A
C269  N67   1.346 .      A
C269  C271  1.372 .      A
N67   C270  1.407 .      A
C270  N68   1.397 .      A
N68   C271  1.351 .      A
C271  C272  1.372 .      A
C274  C275  1.374 .      A
C274  C280  1.377 .      A
C275  C276  1.376 .      A
C276  C277  1.349 .      A
C277  N69   1.336 .      A
C277  C279  1.365 .      A
N69   C278  1.396 .      A
C278  N70   1.404 .      A
N70   C279  1.346 .      A
C279  C280  1.371 .      A
C282  C283  1.341 .      A
C282  C288  1.341 .      A
C283  C284  1.354 .      A
C284  C285  1.354 .      A
C285  N71   1.329 .      A
C285  C287  1.362 .      A
N71   C286  1.382 .      A
C286  N72   1.405 .      A
N72   C287  1.334 .      A
C287  C288  1.355 .      A
C290  C291  1.364 .      A
C290  C296  1.388 .      A
C291  C292  1.360 .      A
C292  C293  1.372 .      A
C293  N73   1.328 .      A
C293  C295  1.351 .      A
N73   C294  1.382 .      A
C294  N74   1.384 .      A
N74   C295  1.373 .      A
C295  C296  1.374 .      A
C298  C299  1.382 .      A
C298  C304  1.377 .      A
C299  C300  1.382 .      A
C300  C301  1.365 .      A
C301  N75   1.355 .      A
C301  C303  1.361 .      A
N75   C302  1.381 .      A
C302  N76   1.381 .      A
N76   C303  1.340 .      A
C303  C304  1.363 .      A
C306  C307  1.386 .      A
C306  C312  1.380 .      A
C307  C308  1.380 .      A
C308  C309  1.385 .      A
C309  N77   1.346 .      A
C309  C311  1.348 .      A
N77   C310  1.347 .      A
C310  N78   1.372 .      A
N78   C311  1.359 .      A
C311  C312  1.380 .      A
C314  C315  1.379 .      A
C314  C320  1.351 .      A
C315  C316  1.376 .      A
C316  C317  1.361 .      A
C317  N79   1.339 .      A
C317  C319  1.353 .      A
N79   C318  1.408 .      A
C318  N80   1.406 .      A
N80   C319  1.326 .      A
C319  C320  1.331 .      A
C322  C323  1.384 .      A
C322  C328  1.384 .      A
C323  C324  1.381 .      A
C324  C325  1.380 .      A
C325  N81   1.350 .      A
C325  C327  1.356 .      A
N81   C326  1.370 .      A
C326  N82   1.364 .      A
N82   C327  1.348 .      A
C327  C328  1.374 .      A
C330  C331  1.386 .      A
C330  C336  1.386 .      A
C331  C332  1.381 .      A
C332  C333  1.371 .      A
C333  N83   1.340 .      A
C333  C335  1.361 .      A
N83   C334  1.375 .      A
C334  N84   1.394 .      A
N84   C335  1.354 .      A
C335  C336  1.374 .      A
C338  C339  1.373 .      A
C338  C344  1.363 .      A
C339  C340  1.383 .      A
C340  C341  1.352 .      A
C341  N85   1.346 .      A
C341  C343  1.354 .      A
N85   C342  1.392 .      A
C342  N86   1.380 .      A
N86   C343  1.329 .      A
C343  C344  1.362 .      A
C346  C347  1.382 .      A
C346  C352  1.370 .      A
C347  C348  1.372 .      A
C348  C349  1.348 .      A
C349  N87   1.339 .      A
C349  C351  1.359 .      A
N87   C350  1.412 .      A
C350  N88   1.395 .      A
N88   C351  1.320 .      A
C351  C352  1.354 .      A
C354  C355  1.367 .      A
C354  C360  1.376 .      A
C355  C356  1.372 .      A
C356  C357  1.372 .      A
C357  N89   1.348 .      A
C357  C359  1.346 .      A
N89   C358  1.381 .      A
C358  N90   1.365 .      A
N90   C359  1.353 .      A
C359  C360  1.374 .      A
C362  C363  1.389 .      A
C362  C368  1.342 .      A
C363  C364  1.382 .      A
C364  C365  1.358 .      A
C365  N91   1.339 .      A
C365  C367  1.343 .      A
N91   C366  1.382 .      A
C366  N92   1.370 .      A
N92   C367  1.318 .      A
C367  C368  1.326 .      A
C370  C371  1.374 .      A
C370  C376  1.366 .      A
C371  C372  1.374 .      A
C372  C373  1.362 .      A
C373  N93   1.354 .      A
C373  C375  1.347 .      A
N93   C374  1.383 .      A
C374  N94   1.376 .      A
N94   C375  1.333 .      A
C375  C376  1.372 .      A
C378  C379  1.383 1_565  A
C378  C384  1.382 .      A
C379  C378  1.383 1_545  A
C379  C380  1.381 1_545  A
C380  C379  1.381 1_565  A
C380  C381  1.366 .      A
C381  N95   1.349 .      A
C381  C383  1.349 .      A
N95   C382  1.390 .      A
C382  N96   1.385 .      A
N96   C383  1.341 .      A
C383  C384  1.361 .      A
C386  C387  1.389 .      A
C386  C392  1.383 .      A
C387  C388  1.385 .      A
C388  C389  1.372 .      A
C389  N97   1.354 .      A
C389  C391  1.366 .      A
N97   C390  1.382 .      A
C390  N98   1.376 .      A
N98   C391  1.344 .      A
C391  C392  1.372 .      A
C394  C395  1.379 .      A
C394  C400  1.353 .      A
C395  C396  1.367 .      A
C396  C397  1.365 .      A
C397  N99   1.330 .      A
C397  C399  1.340 .      A
N99   C398  1.399 1_565  A
C398  N99   1.399 1_545  A
C398  N100  1.393 .      A
N100  C399  1.329 1_545  A
C399  N100  1.329 1_565  A
C399  C400  1.339 .      A
C402  C403  1.390 .      A
C402  C408  1.351 .      A
C403  C404  1.381 .      A
C404  C405  1.361 .      A
C405  N101  1.335 .      A
C405  C407  1.345 .      A
N101  C406  1.380 .      A
C406  N102  1.392 .      A
N102  C407  1.332 .      A
C407  C408  1.333 .      A
C410  C411  1.369 .      A
C410  C416  1.369 1_556  A
C411  C412  1.370 .      A
C412  C413  1.349 1_556  A
C413  C412  1.349 1_554  A
C413  N103  1.336 .      A
C413  C415  1.341 .      A
N103  C414  1.386 .      A
C414  N104  1.391 .      A
N104  C415  1.347 .      A
C415  C416  1.357 .      A
C416  C410  1.369 1_554  A
C418  C419  1.378 .      A
C418  C424  1.382 .      A
C419  C420  1.369 .      A
C420  C421  1.365 .      A
C421  N105  1.337 .      A
C421  C423  1.347 .      A
N105  C422  1.385 .      A
C422  N106  1.393 .      A
N106  C423  1.355 .      A
C423  C424  1.375 .      A
C426  C427  1.389 .      A
C426  C432  1.384 .      A
C427  C428  1.383 .      A
C428  C429  1.372 .      A
C429  N107  1.354 .      A
C429  C431  1.366 .      A
N107  C430  1.372 .      A
C430  N108  1.405 .      A
N108  C431  1.345 .      A
C431  C432  1.372 .      A
C434  C435  1.380 .      A
C434  C440  1.381 .      A
C435  C436  1.378 .      A
C436  C437  1.374 .      A
C437  N109  1.350 .      A
C437  C439  1.360 .      A
N109  C438  1.382 .      A
C438  N110  1.388 .      A
N110  C439  1.351 .      A
C439  C440  1.375 .      A
C442  C443  1.391 .      A
C442  C448  1.390 .      A
C443  C444  1.382 .      A
C444  C445  1.370 .      A
C445  N111  1.345 .      A
C445  C447  1.373 .      A
N111  C446  1.395 .      A
C446  N112  1.373 .      A
N112  C447  1.351 .      A
C447  C448  1.370 .      A
C450  C451  1.374 .      A
C450  C456  1.348 .      A
C451  C452  1.385 .      A
C452  C453  1.371 .      A
C453  N113  1.346 .      A
C453  C455  1.353 .      A
N113  C454  1.406 .      A
C454  N114  1.387 .      A
N114  C455  1.330 .      A
C455  C456  1.348 .      A
C458  C459  1.373 .      A
C458  C464  1.381 .      A
C459  C460  1.373 1_545  A
C460  C459  1.373 1_565  A
C460  C461  1.356 .      A
C461  N115  1.342 .      A
C461  C463  1.341 1_565  A
N115  C462  1.404 1_565  A
C462  N115  1.404 1_545  A
C462  N116  1.394 .      A
N116  C463  1.348 .      A
C463  C461  1.341 1_545  A
C463  C464  1.366 .      A
C466  C467  1.380 1_655  A
C466  C472  1.384 .      A
C467  C466  1.380 1_455  A
C467  C468  1.377 .      A
C468  C469  1.366 .      A
C469  N117  1.342 .      A
C469  C471  1.359 .      A
N117  C470  1.401 .      A
C470  N118  1.381 .      A
N118  C471  1.356 .      A
C471  C472  1.378 1_455  A
C472  C471  1.378 1_655  A
C474  C475  1.393 .      A
C474  C480  1.386 .      A
C475  C476  1.385 .      A
C476  C477  1.372 .      A
C477  N119  1.351 .      A
C477  C479  1.373 .      A
N119  C478  1.396 .      A
C478  N120  1.385 1_545  A
N120  C478  1.385 1_565  A
N120  C479  1.347 1_565  A
C479  N120  1.347 1_545  A
C479  C480  1.372 .      A
C482  C483  1.381 .      A
C482  C488  1.373 1_545  A
C483  C484  1.372 .      A
C484  C485  1.368 1_545  A
C485  C484  1.368 1_565  A
C485  N121  1.343 .      A
C485  C487  1.357 .      A
N121  C486  1.369 .      A
C486  N122  1.385 .      A
N122  C487  1.347 .      A
C487  C488  1.368 .      A
C488  C482  1.373 1_565  A
C490  C491  1.380 .      A
C490  C496  1.387 .      A
C491  C492  1.376 1_655  A
C492  C491  1.376 1_455  A
C492  C493  1.383 .      A
C493  N123  1.350 .      A
C493  C495  1.366 1_455  A
N123  C494  1.398 .      A
C494  N124  1.378 1_455  A
N124  C494  1.378 1_655  A
N124  C495  1.359 .      A
C495  C493  1.366 1_655  A
C495  C496  1.375 .      A
C498  C499  1.385 .      A
C498  C504  1.386 .      A
C499  C500  1.379 1_545  A
C500  C499  1.379 1_565  A
C500  C501  1.367 .      A
C501  N125  1.341 .      A
C501  C503  1.358 1_565  A
N125  C502  1.387 1_655  A
C502  N125  1.387 1_455  A
C502  N126  1.386 1_565  A
N126  C502  1.386 1_545  A
N126  C503  1.352 1_455  A
C503  C501  1.358 1_545  A
C503  N126  1.352 1_655  A
C503  C504  1.379 .      A
C506  C507  1.372 .      A
C506  C512  1.379 .      A
C507  C508  1.368 .      A
C508  C509  1.357 .      A
C509  N127  1.333 .      A
C509  C511  1.351 .      A
N127  C510  1.384 .      A
C510  N128  1.377 .      A
N128  C511  1.340 .      A
C511  C512  1.366 .      A
C514  C515  1.385 .      A
C514  C520  1.387 .      A
C515  C516  1.379 .      A
C516  C517  1.373 .      A
C517  N129  1.346 .      A
C517  C519  1.359 .      A
N129  C518  1.383 .      A
C518  N130  1.383 .      A
N130  C519  1.348 .      A
C519  C520  1.366 .      A
C522  C523  1.377 .      A
C522  C528  1.372 .      A
C523  C524  1.380 .      A
C524  C525  1.347 .      A
C525  N131  1.336 .      A
C525  C527  1.334 .      A
N131  C526  1.395 .      A
C526  N132  1.398 .      A
N132  C527  1.329 .      A
C527  C528  1.348 .      A
C530  C531  1.365 .      A
C530  C536  1.397 .      A
C531  C532  1.356 .      A
C532  C533  1.343 .      A
C533  N133  1.335 1_455  A
C533  C535  1.348 .      A
N133  C533  1.335 1_655  A
N133  C534  1.371 .      A
C534  N134  1.397 1_655  A
N134  C534  1.397 1_455  A
N134  C535  1.348 .      A
C535  C536  1.366 .      A
C538  C539  1.366 .      A
C538  C544  1.367 .      A
C539  C540  1.363 .      A
C540  C541  1.351 .      A
C541  N135  1.350 .      A
C541  C543  1.347 .      A
N135  C542  1.405 .      A
C542  N136  1.385 .      A
N136  C543  1.339 .      A
C543  C544  1.361 .      A
C546  C547  1.392 .      A
C546  C552  1.387 1_655  A
C547  C548  1.386 .      A
C548  C549  1.375 .      A
C549  N137  1.355 .      A
C549  C551  1.378 1_655  A
N137  C550  1.380 1_655  A
C550  N137  1.380 1_455  A
C550  N138  1.390 .      A
N138  C551  1.348 .      A
C551  C549  1.378 1_455  A
C551  C552  1.374 .      A
C552  C546  1.387 1_455  A
C554  C555  1.377 .      A
C554  C560  1.384 .      A
C555  C556  1.376 .      A
C556  C557  1.355 .      A
C557  N139  1.343 .      A
C557  C559  1.343 .      A
N139  C558  1.388 .      A
C558  N140  1.396 .      A
N140  C559  1.346 .      A
C559  C560  1.371 .      A
C562  C563  1.391 .      A
C562  C568  1.380 .      A
C563  C564  1.385 .      A
C564  C565  1.377 .      A
C565  N141  1.351 .      A
C565  C567  1.366 .      A
N141  C566  1.379 .      A
C566  N142  1.383 .      A
N142  C567  1.352 .      A
C567  C568  1.372 .      A
C570  C571  1.384 .      A
C570  C576  1.386 .      A
C571  C572  1.378 .      A
C572  C573  1.376 .      A
C573  N143  1.356 .      A
C573  C575  1.377 .      A
N143  C574  1.368 .      A
C574  N144  1.373 .      A
N144  C575  1.354 .      A
C575  C576  1.373 .      A
C578  C579  1.393 .      A
C578  C584  1.387 .      A
C579  C580  1.386 1_655  A
C580  C579  1.386 1_455  A
C580  C581  1.369 .      A
C581  N145  1.354 .      A
C581  C583  1.366 .      A
N145  C582  1.390 .      A
C582  N146  1.381 .      A
N146  C583  1.340 .      A
C583  C584  1.370 1_455  A
C584  C583  1.370 1_655  A
C586  C587  1.355 .      A
C586  C592  1.357 .      A
C587  C588  1.356 .      A
C588  C589  1.362 .      A
C589  N147  1.343 .      A
C589  C591  1.353 .      A
N147  C590  1.407 .      A
C590  N148  1.399 .      A
N148  C591  1.323 .      A
C591  C592  1.343 .      A
C594  C595  1.385 .      A
C594  C600  1.385 .      A
C595  C596  1.382 .      A
C596  C597  1.378 .      A
C597  N149  1.352 .      A
C597  C599  1.359 .      A
N149  C598  1.375 .      A
C598  N150  1.380 .      A
N150  C599  1.347 .      A
C599  C600  1.368 .      A
C602  C603  1.388 1_545  A
C602  C608  1.384 1_645  A
C603  C602  1.388 1_565  A
C603  C604  1.378 .      A
C604  C605  1.374 .      A
C605  N151  1.346 .      A
C605  C607  1.365 1_655  A
N151  C606  1.386 1_655  A
C606  N151  1.386 1_455  A
C606  N152  1.387 .      A
N152  C607  1.353 .      A
C607  C605  1.365 1_455  A
C607  C608  1.363 .      A
C608  C602  1.384 1_465  A
C610  C611  1.386 .      A
C610  C616  1.386 .      A
C611  C612  1.380 .      A
C612  C613  1.373 .      A
C613  N153  1.345 1_545  A
C613  C615  1.365 .      A
N153  C613  1.345 1_565  A
N153  C614  1.374 .      A
C614  N154  1.371 1_565  A
N154  C614  1.371 1_545  A
N154  C615  1.359 .      A
C615  C616  1.376 .      A
C618  C619  1.379 .      A
C618  C624  1.390 .      A
C619  C620  1.375 .      A
C620  C621  1.370 .      A
C621  N155  1.361 .      A
C621  C623  1.361 .      A
N155  C622  1.403 .      A
C622  N156  1.404 .      A
N156  C623  1.339 .      A
C623  C624  1.375 .      A
C626  C627  1.386 .      A
C626  C632  1.383 .      A
C627  C628  1.382 .      A
C628  C629  1.372 .      A
C629  N157  1.350 .      A
C629  C631  1.369 .      A
N157  C630  1.389 .      A
C630  N158  1.390 .      A
N158  C631  1.348 .      A
C631  C632  1.378 .      A
C634  C635  1.373 .      A
C634  C640  1.377 .      A
C635  C636  1.362 .      A
C636  C637  1.362 .      A
C637  N159  1.326 .      A
C637  C639  1.351 .      A
N159  C638  1.394 .      A
C638  N160  1.394 .      A
N160  C639  1.349 .      A
C639  C640  1.351 .      A
C642  C643  1.364 1_554  A
C642  C648  1.394 .      A
C643  C642  1.364 1_556  A
C643  C644  1.361 .      A
C644  C645  1.355 1_556  A
C645  C644  1.355 1_554  A
C645  N161  1.336 1_554  A
C645  C647  1.345 .      A
N161  C645  1.336 1_556  A
N161  C646  1.385 1_556  A
C646  N161  1.385 1_554  A
C646  N162  1.395 .      A
N162  C647  1.368 .      A
C647  C648  1.381 .      A
C650  C651  1.380 .      A
C650  C656  1.383 .      A
C651  C652  1.375 .      A
C652  C653  1.367 .      A
C653  N163  1.342 .      A
C653  C655  1.355 .      A
N163  C654  1.387 .      A
C654  N164  1.400 .      A
N164  C655  1.354 .      A
C655  C656  1.373 .      A
C658  C659  1.386 .      A
C658  C664  1.374 .      A
C659  C660  1.377 .      A
C660  C661  1.362 .      A
C661  N165  1.362 .      A
C661  C663  1.368 .      A
N165  C662  1.414 1_556  A
C662  N165  1.414 1_554  A
C662  N166  1.374 .      A
N166  C663  1.330 1_554  A
C663  N166  1.330 1_556  A
C663  C664  1.363 .      A
C666  C667  1.385 .      A
C666  C672  1.379 .      A
C667  C668  1.378 .      A
C668  C669  1.368 1_556  A
C669  C668  1.368 1_554  A
C669  N167  1.343 .      A
C669  C671  1.365 1_554  A
N167  C670  1.392 .      A
C670  N168  1.393 .      A
N168  C671  1.357 1_554  A
C671  C669  1.365 1_556  A
C671  N168  1.357 1_556  A
C671  C672  1.363 .      A
C674  C675  1.384 1_545  A
C674  C680  1.385 1_556  A
C675  C674  1.384 1_565  A
C675  C676  1.380 .      A
C676  C677  1.369 1_556  A
C677  C676  1.369 1_554  A
C677  N169  1.354 .      A
C677  C679  1.360 1_565  A
N169  C678  1.392 1_565  A
C678  N169  1.392 1_545  A
C678  N170  1.381 .      A
N170  C679  1.341 .      A
C679  C677  1.360 1_545  A
C679  C680  1.370 .      A
C680  C674  1.385 1_554  A
C682  C683  1.385 .      A
C682  C688  1.384 1_545  A
C683  C684  1.380 1_545  A
C684  C683  1.380 1_565  A
C684  C685  1.371 .      A
C685  N171  1.353 .      A
C685  C687  1.363 .      A
N171  C686  1.403 .      A
C686  N172  1.410 .      A
N172  C687  1.348 .      A
C687  C688  1.373 .      A
C688  C682  1.384 1_565  A
C690  C691  1.385 1_565  A
C690  C696  1.382 .      A
C691  C690  1.385 1_545  A
C691  C692  1.383 1_545  A
C692  C691  1.383 1_565  A
C692  C693  1.366 .      A
C693  N173  1.357 .      A
C693  C695  1.360 .      A
N173  C694  1.382 .      A
C694  N174  1.384 .      A
N174  C695  1.343 .      A
C695  C696  1.378 .      A
C698  C699  1.365 .      A
C698  C704  1.361 .      A
C699  C700  1.371 .      A
C700  C701  1.379 1_556  A
C701  C700  1.379 1_554  A
C701  N175  1.348 .      A
C701  C703  1.353 .      A
N175  C702  1.384 .      A
C702  N176  1.380 .      A
N176  C703  1.352 .      A
C703  C704  1.361 1_554  A
C704  C703  1.361 1_556  A
C706  C707  1.350 .      A
C706  C712  1.373 .      A
C707  C708  1.360 .      A
C708  C709  1.336 .      A
C709  N177  1.320 .      A
C709  C711  1.335 .      A
N177  C710  1.386 .      A
C710  N178  1.399 .      A
N178  C711  1.339 .      A
C711  C712  1.358 .      A
C714  C715  1.391 .      A
C714  C720  1.356 1_455  A
C715  C716  1.382 1_455  A
C716  C715  1.382 1_655  A
C716  C717  1.369 .      A
C717  N179  1.341 .      A
C717  C719  1.354 .      A
N179  C718  1.400 .      A
C718  N180  1.390 .      A
N180  C719  1.333 .      A
C719  C720  1.349 .      A
C720  C714  1.356 1_655  A
C722  C723  1.389 .      A
C722  C728  1.387 1_545  A
C723  C724  1.383 1_545  A
C724  C723  1.383 1_565  A
C724  C725  1.371 .      A
C725  N181  1.346 .      A
C725  C727  1.368 .      A
N181  C726  1.411 .      A
C726  N182  1.393 .      A
N182  C727  1.351 .      A
C727  C728  1.368 .      A
C728  C722  1.387 1_565  A
C730  C731  1.390 .      A
C730  C736  1.387 .      A
C731  C732  1.382 .      A
C732  C733  1.372 .      A
C733  N183  1.347 .      A
C733  C735  1.371 .      A
N183  C734  1.393 .      A
C734  N184  1.397 .      A
N184  C735  1.348 .      A
C735  C736  1.369 .      A
C738  C739  1.377 .      A
C738  C744  1.384 .      A
C739  C740  1.374 1_455  A
C740  C739  1.374 1_655  A
C740  C741  1.355 1_655  A
C741  C740  1.355 1_455  A
C741  N185  1.339 1_556  A
C741  C743  1.347 .      A
N185  C741  1.339 1_554  A
N185  C742  1.380 .      A
C742  N186  1.382 .      A
N186  C743  1.348 1_554  A
C743  N186  1.348 1_556  A
C743  C744  1.378 .      A
C746  C747  1.374 .      A
C746  C752  1.376 .      A
C747  C748  1.376 .      A
C748  C749  1.361 .      A
C749  N187  1.340 .      A
C749  C751  1.349 .      A
N187  C750  1.369 .      A
C750  N188  1.387 .      A
N188  C751  1.359 .      A
C751  C752  1.371 .      A
C754  C755  1.387 .      A
C754  C760  1.382 .      A
C755  C756  1.382 .      A
C756  C757  1.368 .      A
C757  N189  1.353 .      A
C757  C759  1.365 .      A
N189  C758  1.383 1_556  A
C758  N189  1.383 1_554  A
C758  N190  1.394 1_554  A
N190  C758  1.394 1_556  A
N190  C759  1.343 .      A
C759  C760  1.367 .      A
C762  C763  1.377 1_556  A
C762  C768  1.392 .      A
C763  C762  1.377 1_554  A
C763  C764  1.370 .      A
C764  C765  1.370 .      A
C765  N191  1.349 .      A
C765  C767  1.364 .      A
N191  C766  1.380 .      A
C766  N192  1.404 .      A
N192  C767  1.352 .      A
C767  C768  1.375 1_554  A
C768  C767  1.375 1_556  A
C770  C771  1.385 .      A
C770  C776  1.387 .      A
C771  C772  1.379 .      A
C772  C773  1.373 .      A
C773  N193  1.337 .      A
C773  C775  1.361 .      A
N193  C774  1.377 .      A
C774  N194  1.412 .      A
N194  C775  1.357 .      A
C775  C776  1.365 .      A
C778  C779  1.397 .      A
C778  C784  1.384 .      A
C779  C780  1.386 .      A
C780  C781  1.372 .      A
C781  N195  1.345 .      A
C781  C783  1.365 .      A
N195  C782  1.393 .      A
C782  N196  1.392 .      A
N196  C783  1.344 .      A
C783  C784  1.363 .      A
C786  C787  1.389 .      A
C786  C792  1.387 .      A
C787  C788  1.381 .      A
C788  C789  1.376 .      A
C789  N197  1.356 .      A
C789  C791  1.383 .      A
N197  C790  1.379 .      A
C790  N198  1.382 .      A
N198  C791  1.358 .      A
C791  C792  1.369 .      A
C794  C795  1.392 .      A
C794  C800  1.389 .      A
C795  C796  1.384 .      A
C796  C797  1.369 .      A
C797  N199  1.348 .      A
C797  C799  1.386 .      A
N199  C798  1.375 .      A
C798  N200  1.374 .      A
N200  C799  1.354 .      A
C799  C800  1.371 .      A
C802  C803  1.397 .      A
C802  C808  1.384 1_565  A
C803  C804  1.387 1_565  A
C804  C803  1.387 1_545  A
C804  C805  1.363 .      A
C805  N201  1.348 .      A
C805  C807  1.370 .      A
N201  C806  1.405 .      A
C806  N202  1.402 .      A
N202  C807  1.343 .      A
C807  C808  1.361 .      A
C808  C802  1.384 1_545  A
C810  C811  1.381 .      A
C810  C816  1.363 .      A
C811  C812  1.383 .      A
C812  C813  1.364 .      A
C813  N203  1.342 .      A
C813  C815  1.357 .      A
N203  C814  1.385 .      A
C814  N204  1.403 .      A
N204  C815  1.348 .      A
C815  C816  1.368 .      A
C818  C819  1.396 .      A
C818  C824  1.373 .      A
C819  C820  1.394 .      A
C820  C821  1.355 .      A
C821  N205  1.356 .      A
C821  C823  1.377 .      A
N205  C822  1.372 .      A
C822  N206  1.374 .      A
N206  C823  1.335 .      A
C823  C824  1.362 .      A
C826  C827  1.391 .      A
C826  C832  1.387 .      A
C827  C828  1.383 .      A
C828  C829  1.371 1_556  A
C829  C828  1.371 1_554  A
C829  N207  1.346 .      A
C829  C831  1.374 .      A
N207  C830  1.368 .      A
C830  N208  1.379 .      A
N208  C831  1.352 .      A
C831  C832  1.369 1_554  A
C832  C831  1.369 1_556  A
C834  C835  1.382 .      A
C834  C840  1.385 .      A
C835  C836  1.377 .      A
C836  C837  1.367 .      A
C837  N209  1.343 .      A
C837  C839  1.357 .      A
N209  C838  1.398 .      A
C838  N210  1.387 .      A
N210  C839  1.358 .      A
C839  C840  1.376 .      A
C842  C843  1.386 .      A
C842  C848  1.385 .      A
C843  C844  1.382 .      A
C844  C845  1.376 .      A
C845  N211  1.360 .      A
C845  C847  1.371 .      A
N211  C846  1.375 .      A
C846  N212  1.379 .      A
N212  C847  1.342 .      A
C847  C848  1.368 .      A
C850  C851  1.378 .      A
C850  C856  1.387 .      A
C851  C852  1.366 .      A
C852  C853  1.367 .      A
C853  N213  1.341 .      A
C853  C855  1.365 .      A
N213  C854  1.383 .      A
C854  N214  1.383 .      A
N214  C855  1.351 .      A
C855  C856  1.368 .      A
C858  C859  1.391 .      A
C858  C864  1.386 .      A
C859  C860  1.385 .      A
C860  C861  1.366 .      A
C861  N215  1.350 .      A
C861  C863  1.363 .      A
N215  C862  1.381 .      A
C862  N216  1.400 .      A
N216  C863  1.343 .      A
C863  C864  1.372 .      A
C866  C867  1.391 .      A
C866  C872  1.387 .      A
C867  C868  1.382 .      A
C868  C869  1.370 .      A
C869  N217  1.348 .      A
C869  C871  1.369 .      A
N217  C870  1.411 .      A
C870  N218  1.390 .      A
N218  C871  1.347 .      A
C871  C872  1.370 .      A
C874  C875  1.375 .      A
C874  C880  1.377 .      A
C875  C876  1.372 .      A
C876  C877  1.363 .      A
C877  N219  1.346 .      A
C877  C879  1.356 .      A
N219  C878  1.376 .      A
C878  N220  1.378 .      A
N220  C879  1.352 .      A
C879  C880  1.376 .      A
C882  C883  1.358 .      A
C882  C888  1.385 1_565  A
C883  C884  1.363 1_565  A
C884  C883  1.363 1_545  A
C884  C885  1.356 .      A
C885  N221  1.339 .      A
C885  C887  1.359 .      A
N221  C886  1.397 .      A
C886  N222  1.395 .      A
N222  C887  1.341 .      A
C887  C888  1.359 .      A
C888  C882  1.385 1_545  A
C890  C891  1.390 .      A
C890  C896  1.384 .      A
C891  C892  1.385 .      A
C892  C893  1.372 .      A
C893  N223  1.354 .      A
C893  C895  1.378 .      A
N223  C894  1.369 .      A
C894  N224  1.381 .      A
N224  C895  1.352 .      A
C895  C896  1.374 .      A
S1    O1    1.528 .      D
S1    O2    1.520 .      D
S2    O4    1.533 .      D
S2    O5    1.532 .      D
S3    O7    1.533 .      D
S3    O8    1.534 .      D
S4    O10   1.532 .      D
S4    O11   1.533 .      D
S5    O13   1.530 .      D
S5    O14   1.517 .      D
S6    O16   1.521 .      D
S6    O17   1.530 .      D
S7    O19   1.522 .      D
S7    O20   1.526 .      D
S8    O22   1.522 1_545  D
S8    O23   1.528 1_545  D
O22   S8    1.522 1_565  D
O23   S8    1.528 1_565  D
S9    O25   1.520 .      D
S9    O26   1.533 .      D
S10   O28   1.531 .      D
S10   O29   1.536 .      D
S11   O31   1.531 .      D
S11   O32   1.531 .      D
S12   O34   1.534 .      D
S12   O35   1.522 .      D
S13   O37   1.523 .      D
S13   O38   1.519 .      D
S14   O40   1.536 .      D
S14   O41   1.534 1_565  D
O41   S14   1.534 1_545  D
S15   O43   1.532 .      D
S15   O44   1.532 .      D
S16   O46   1.527 .      D
S16   O47   1.525 .      D
S17   O49   1.523 .      D
S17   O50   1.530 .      D
S18   O52   1.536 .      D
S18   O53   1.525 .      D
S19   O55   1.523 .      D
S19   O56   1.531 .      D
S20   O58   1.517 .      D
S20   O59   1.530 .      D
S21   O61   1.532 .      D
S21   O62   1.527 .      D
S22   O64   1.532 .      D
S22   O65   1.533 .      D
S23   O67   1.525 .      D
S23   O68   1.527 .      D
S24   O70   1.532 .      D
S24   O71   1.518 .      D
S25   O73   1.535 .      D
S25   O74   1.534 .      D
S26   O76   1.506 .      D
S26   O77   1.531 .      D
S27   O79   1.532 .      D
S27   O80   1.521 .      D
S28   O82   1.535 .      D
S28   O83   1.529 .      D
S29   O85   1.517 .      D
S29   O86   1.516 .      D
S30   O88   1.519 .      D
S30   O89   1.513 .      D
S31   O91   1.515 .      D
S31   O92   1.517 .      D
S32   O94   1.517 .      D
S32   O95   1.518 .      D
S33   O97   1.521 .      D
S33   O98   1.534 .      D
S34   O100  1.534 1_655  D
S34   O101  1.536 .      D
O100  S34   1.534 1_455  D
S35   O103  1.528 .      D
S35   O104  1.531 .      D
S36   O106  1.534 .      D
S36   O107  1.532 .      D
S37   O109  1.533 .      D
S37   O110  1.525 .      D
S38   O112  1.526 .      D
S38   O113  1.526 .      D
S39   O115  1.535 .      D
S39   O116  1.533 .      D
S40   O118  1.504 .      D
S40   O119  1.519 .      D
S41   O121  1.526 .      D
S41   O122  1.529 .      D
S42   O124  1.522 .      D
S42   O125  1.527 .      D
S43   O127  1.525 .      D
S43   O128  1.534 .      D
S44   O130  1.529 .      D
S44   O131  1.534 .      D
S45   O133  1.520 .      D
S45   O134  1.536 .      D
S46   O136  1.522 .      D
S46   O137  1.530 .      D
S47   O139  1.524 .      D
S47   O140  1.521 .      D
S48   O142  1.518 .      D
S48   O143  1.524 .      D
S49   O145  1.522 .      D
S49   O146  1.521 .      D
S50   O148  1.531 .      D
S50   O149  1.536 .      D
S51   O151  1.528 .      D
S51   O152  1.527 1_554  D
O152  S51   1.527 1_556  D
S52   O154  1.531 .      D
S52   O155  1.536 .      D
S53   O157  1.532 .      D
S53   O158  1.535 .      D
S54   O160  1.520 .      D
S54   O161  1.527 .      D
S55   O163  1.517 .      D
S55   O164  1.528 .      D
S56   O166  1.534 .      D
S56   O167  1.511 .      D
S57   O169  1.536 .      D
S57   O170  1.537 .      D
S58   O172  1.535 .      D
S58   O173  1.533 .      D
S59   O175  1.535 1_565  D
S59   O176  1.531 .      D
O175  S59   1.535 1_545  D
S60   O178  1.525 .      D
S60   O179  1.527 .      D
S61   O181  1.532 .      D
S61   O182  1.522 .      D
S62   O184  1.527 .      D
S62   O185  1.519 .      D
S63   O187  1.535 1_455  D
S63   O188  1.529 .      D
O187  S63   1.535 1_655  D
S64   O190  1.532 .      D
S64   O191  1.531 .      D
S65   O193  1.529 .      D
S65   O194  1.530 .      D
S66   O196  1.530 .      D
S66   O197  1.536 .      D
S67   O199  1.522 .      D
S67   O200  1.532 .      D
S68   O202  1.527 .      D
S68   O203  1.529 .      D
S69   O205  1.521 .      D
S69   O206  1.511 .      D
S70   O208  1.535 .      D
S70   O209  1.533 .      D
S71   O211  1.525 .      D
S71   O212  1.525 .      D
S72   O214  1.512 .      D
S72   O215  1.496 .      D
S73   O217  1.518 .      D
S73   O218  1.535 1_455  D
O218  S73   1.535 1_655  D
S74   O220  1.535 .      D
S74   O221  1.531 .      D
S75   O223  1.524 .      D
S75   O224  1.525 .      D
S76   O226  1.525 .      D
S76   O227  1.524 .      D
S77   O229  1.528 .      D
S77   O230  1.521 1_565  D
O230  S77   1.521 1_545  D
S78   O232  1.531 .      D
S78   O233  1.527 .      D
S79   O235  1.528 .      D
S79   O236  1.522 .      D
S80   O238  1.529 .      D
S80   O239  1.519 .      D
S81   O241  1.533 1_554  D
S81   O242  1.533 .      D
O241  S81   1.533 1_556  D
S82   O244  1.532 .      D
S82   O245  1.533 .      D
S83   O247  1.510 .      D
S83   O248  1.520 .      D
S84   O250  1.522 .      D
S84   O251  1.515 .      D
S85   O253  1.510 1_545  D
S85   O254  1.524 .      D
O253  S85   1.510 1_565  D
S86   O256  1.536 .      D
S86   O257  1.522 .      D
S87   O259  1.522 1_554  D
S87   O260  1.518 .      D
O259  S87   1.522 1_556  D
S88   O262  1.520 1_655  D
S88   O263  1.522 .      D
O262  S88   1.520 1_455  D
S89   O265  1.533 .      D
S89   O266  1.524 .      D
S90   O268  1.520 .      D
S90   O269  1.533 .      D
S91   O271  1.526 .      D
S91   O272  1.522 .      D
S92   O274  1.522 .      D
S92   O275  1.516 .      D
S93   O277  1.525 .      D
S93   O278  1.534 .      D
S94   O280  1.521 .      D
S94   O281  1.517 .      D
S95   O283  1.523 .      D
S95   O284  1.523 .      D
S96   O286  1.521 .      D
S96   O287  1.533 .      D
S97   O289  1.529 .      D
S97   O290  1.480 .      D
S98   O292  1.526 .      D
S98   O293  1.530 .      D
S99   O295  1.510 .      D
S99   O296  1.506 .      D
S100  O298  1.521 .      D
S100  O299  1.501 .      D
S101  O301  1.535 .      D
S101  O302  1.535 .      D
S102  O304  1.522 .      D
S102  O305  1.534 .      D
S103  O307  1.496 .      D
S103  O308  1.492 .      D
S104  O310  1.527 .      D
S104  O311  1.520 .      D
S105  O313  1.518 1_545  D
S105  O314  1.516 1_545  D
O313  S105  1.518 1_565  D
O314  S105  1.516 1_565  D
S106  O316  1.522 .      D
S106  O317  1.521 .      D
S107  O319  1.527 .      D
S107  O320  1.523 .      D
S108  O322  1.532 .      D
S108  O323  1.528 .      D
S109  O325  1.509 .      D
S109  O326  1.525 .      D
S110  O328  1.523 .      D
S110  O329  1.522 .      D
S111  O331  1.533 .      D
S111  O332  1.527 .      D
S112  O334  1.524 .      D
S112  O335  1.512 .      D
