data_str_m1_o12434_DON
_audit_creation_date              2015-10-01T06:30:33-0700
_symmetry_space_group_name_H-M    P1
_symmetry_Int_Tables_number       1
_space_group_crystal_system       triclinic
loop_
_symmetry_equiv_pos_as_xyz
  x,y,z
_cell_length_a                    17.8234995
_cell_length_b                    31.6656701
_cell_length_c                    31.8772353
_cell_angle_alpha                 75.9110709
_cell_angle_beta                  88.3533270
_cell_angle_gamma                 90.0539881
_cell_volume                      17442.3047846

loop_
_atom_site_label
_atom_site_type_symbol
_atom_site_description
_atom_site_fract_x
_atom_site_fract_y
_atom_site_fract_z
_atom_type_partial_charge
Zn1   Zn    Zn3+2 0.008704 0.476552 0.534143 0.000000
Zn2   Zn    Zn3+2 0.508857 0.512848 0.324814 0.000000
Zn3   Zn    Zn3+2 0.516698 0.824053 0.372959 0.000000
Zn4   Zn    Zn3+2 0.006139 0.667340 0.552747 0.000000
Zn5   Zn    Zn3+2 0.491489 0.451269 0.717225 0.000000
Zn6   Zn    Zn3+2 0.009863 0.693088 0.251041 0.000000
Zn7   Zn    Zn3+2 0.010145 0.658624 0.925969 0.000000
Zn8   Zn    Zn3+2 0.857299 0.635775 0.741022 0.000000
Zn9   Zn    Zn3+2 0.397270 0.714165 0.236564 0.000000
Zn10  Zn    Zn3+2 0.383577 0.669779 0.924061 0.000000
Zn11  Zn    Zn3+2 0.863868 0.164963 0.019127 0.000000
Zn12  Zn    Zn3+2 0.522569 0.186985 0.012407 0.000000
Zn13  Zn    Zn3+2 0.887148 0.198945 0.207682 0.000000
Zn14  Zn    Zn3+2 0.992115 0.351139 0.906824 0.000000
Zn15  Zn    Zn3+2 0.032603 0.985371 0.083591 0.000000
Zn16  Zn    Zn3+2 0.533842 0.202172 0.204483 0.000000
Zn17  Zn    Zn3+2 0.010065 0.386741 0.209702 0.000000
Zn18  Zn    Zn3+2 0.396152 0.994341 0.063299 0.000000
Zn19  Zn    Zn3+2 0.021536 0.005092 0.274361 0.000000
Zn20  Zn    Zn3+2 0.896420 0.794353 0.052093 0.000000
Zn21  Zn    Zn3+2 0.359543 0.362398 0.905173 0.000000
Zn22  Zn    Zn3+2 0.846033 0.443809 0.723219 0.000000
Zn23  Zn    Zn3+2 0.864640 0.471785 0.029819 0.000000
Zn24  Zn    Zn3+2 0.376861 0.378731 0.216563 0.000000
Zn25  Zn    Zn3+2 0.871650 0.493483 0.343340 0.000000
Zn26  Zn    Zn3+2 0.880591 0.809016 0.381221 0.000000
Zn27  Zn    Zn3+2 0.391960 0.015375 0.259141 0.000000
Zn28  Zn    Zn3+2 0.493656 0.479892 0.025341 0.000000
Zn29  Zn    Zn3+2 0.524281 0.806319 0.038331 0.000000
Zn30  Zn    Zn3+2 0.361220 0.503851 0.522154 0.000000
Zn31  Zn    Zn3+2 0.504526 0.649920 0.733077 0.000000
Zn32  Zn    Zn3+2 0.361393 0.688422 0.548473 0.000000
C1    C     C_R   0.111401 0.233227 0.570585 0.000000
C2    C     C_R   0.058291 0.251206 0.541046 0.000000
C3    C     C_R   0.043209 0.295121 0.532867 0.000000
C4    C     C_R   0.081312 0.321482 0.554016 0.000000
C5    C     C_R   0.131214 0.302709 0.585593 0.000000
C6    C     C_R   0.147310 0.258904 0.593167 0.000000
N1    N     N_2   0.074189 0.367430 0.540985 0.000000
C7    C     C_R   0.144439 0.386745 0.525830 0.000000
N2    N     N_R   0.198782 0.361873 0.513944 0.000000
C8    C     C_R   0.270807 0.375558 0.506027 0.000000
N3    N     N_R   0.291842 0.414862 0.510904 0.000000
C9    C     C_R   0.238622 0.440199 0.522070 0.000000
N4    N     N_R   0.249687 0.480809 0.526019 0.000000
C10   C     C_R   0.177432 0.493236 0.534520 0.000000
N5    N     N_R   0.123060 0.461983 0.535015 0.000000
C11   C     C_R   0.164590 0.428160 0.528280 0.000000
H1    H     H_    0.123837 0.198905 0.576621 0.000000
H2    H     H_    0.028992 0.230971 0.523894 0.000000
H3    H     H_    0.001916 0.308771 0.509384 0.000000
H4    H     H_    0.160885 0.322749 0.602744 0.000000
H5    H     H_    0.188263 0.244668 0.616730 0.000000
H6    H     H_    0.051161 0.380548 0.564902 0.000000
H7    H     H_    0.312190 0.354240 0.496934 0.000000
H8    H     H_    0.164429 0.524999 0.539472 0.000000
C12   C     C_R   0.158671 0.487074 0.336677 0.000000
C13   C     C_R   0.108616 0.520772 0.330006 0.000000
C14   C     C_R   0.081711 0.537381 0.363540 0.000000
C15   C     C_R   0.105290 0.520087 0.404950 0.000000
C16   C     C_R   0.153064 0.484582 0.411542 0.000000
C17   C     C_R   0.181080 0.468860 0.377801 0.000000
N6    N     N_2   0.069837 0.529231 0.442351 0.000000
C18   C     C_R   0.025585 0.565488 0.445324 0.000000
N7    N     N_R   0.023361 0.600834 0.412224 0.000000
C19   C     C_R   0.006509 0.640386 0.418421 0.000000
N8    N     N_R   0.995545 0.646502 0.458487 0.000000
C20   C     C_R   0.993768 0.611353 0.491561 0.000000
N9    N     N_R   0.992744 0.611161 0.533801 0.000000
C21   C     C_R   0.998451 0.567630 0.553169 0.000000
N10   N     N_R   0.005717 0.541917 0.524103 0.000000
C22   C     C_R   0.003704 0.570784 0.485553 0.000000
H9    H     H_    0.179733 0.474801 0.309837 0.000000
H10   H     H_    0.089149 0.533642 0.298287 0.000000
H11   H     H_    0.039919 0.562194 0.356733 0.000000
H12   H     H_    0.169141 0.468573 0.443638 0.000000
H13   H     H_    0.220016 0.442063 0.383801 0.000000
H14   H     H_    0.078511 0.507095 0.470597 0.000000
H15   H     H_    0.010848 0.667681 0.391448 0.000000
H16   H     H_    0.998442 0.554965 0.587608 0.000000
C23   C     C_R   0.239776 0.679536 0.459292 0.000000
C24   C     C_R   0.307294 0.663586 0.450045 0.000000
C25   C     C_R   0.313524 0.621647 0.445684 0.000000
C26   C     C_R   0.252595 0.594419 0.455334 0.000000
C27   C     C_R   0.186573 0.609683 0.469009 0.000000
C28   C     C_R   0.178428 0.652818 0.468111 0.000000
N11   N     N_2   0.260026 0.549796 0.458108 0.000000
C29   C     C_R   0.295279 0.540912 0.421701 0.000000
N12   N     N_R   0.262587 0.553661 0.383182 0.000000
C30   C     C_R   0.293116 0.546189 0.346565 0.000000
N13   N     N_R   0.360676 0.527696 0.347296 0.000000
C31   C     C_R   0.393641 0.515558 0.385477 0.000000
N14   N     N_R   0.464496 0.503638 0.389685 0.000000
C32   C     C_R   0.471339 0.494954 0.434814 0.000000
N15   N     N_R   0.406753 0.503560 0.457425 0.000000
C33   C     C_R   0.360958 0.518456 0.423647 0.000000
H17   H     H_    0.237141 0.712244 0.462817 0.000000
H18   H     H_    0.355829 0.683294 0.449828 0.000000
H19   H     H_    0.368194 0.608328 0.442142 0.000000
H20   H     H_    0.142520 0.587479 0.482469 0.000000
H21   H     H_    0.126337 0.664974 0.478136 0.000000
H22   H     H_    0.207148 0.537248 0.460128 0.000000
H23   H     H_    0.265112 0.557238 0.316271 0.000000
H24   H     H_    0.523539 0.484984 0.450572 0.000000
C34   C     C_R   0.779751 0.778696 0.219320 0.000000
C35   C     C_R   0.750391 0.767058 0.260980 0.000000
C36   C     C_R   0.677648 0.752556 0.268376 0.000000
C37   C     C_R   0.637581 0.744788 0.234671 0.000000
C38   C     C_R   0.667841 0.755924 0.193242 0.000000
C39   C     C_R   0.737458 0.774798 0.185370 0.000000
N16   N     N_2   0.568909 0.722077 0.243099 0.000000
C40   C     C_R   0.580606 0.678663 0.264047 0.000000
N17   N     N_R   0.650441 0.665435 0.275080 0.000000
C41   C     C_R   0.665906 0.623493 0.292426 0.000000
N18   N     N_R   0.611823 0.593060 0.298967 0.000000
C42   C     C_R   0.543053 0.605510 0.286825 0.000000
N19   N     N_R   0.484511 0.578642 0.290270 0.000000
C43   C     C_R   0.428662 0.607922 0.271996 0.000000
N20   N     N_R   0.451888 0.651532 0.259419 0.000000
C44   C     C_R   0.525394 0.647675 0.268941 0.000000
H25   H     H_    0.835102 0.791849 0.212523 0.000000
H26   H     H_    0.782592 0.771037 0.287765 0.000000
H27   H     H_    0.654246 0.743940 0.301036 0.000000
H28   H     H_    0.638960 0.748435 0.166950 0.000000
H29   H     H_    0.760566 0.784654 0.152811 0.000000
H30   H     H_    0.538848 0.723447 0.216168 0.000000
H31   H     H_    0.722851 0.614019 0.298059 0.000000
H32   H     H_    0.370752 0.598267 0.271280 0.000000
C45   C     C_R   0.255427 0.768478 0.383698 0.000000
C46   C     C_R   0.224030 0.792234 0.410380 0.000000
C47   C     C_R   0.250877 0.833014 0.409213 0.000000
C48   C     C_R   0.317462 0.846366 0.386917 0.000000
C49   C     C_R   0.343619 0.823881 0.357797 0.000000
C50   C     C_R   0.309877 0.786447 0.354194 0.000000
N21   N     N_2   0.368965 0.870851 0.404406 0.000000
C51   C     C_R   0.375314 0.849024 0.447183 0.000000
N22   N     N_R   0.333018 0.861882 0.477627 0.000000
C52   C     C_R   0.311461 0.833545 0.515043 0.000000
N23   N     N_R   0.329045 0.791087 0.521929 0.000000
C53   C     C_R   0.371579 0.778820 0.491749 0.000000
N24   N     N_R   0.399263 0.739289 0.495079 0.000000
C54   C     C_R   0.447724 0.746491 0.458717 0.000000
N25   N     N_R   0.446793 0.788529 0.431633 0.000000
C55   C     C_R   0.397896 0.807272 0.455204 0.000000
H33   H     H_    0.237253 0.735899 0.384884 0.000000
H34   H     H_    0.180363 0.778218 0.433600 0.000000
H35   H     H_    0.226584 0.850446 0.431354 0.000000
H36   H     H_    0.396254 0.832068 0.341900 0.000000
H37   H     H_    0.331740 0.768544 0.331995 0.000000
H38   H     H_    0.350995 0.900843 0.405365 0.000000
H39   H     H_    0.277593 0.844707 0.538821 0.000000
H40   H     H_    0.486143 0.722168 0.454194 0.000000
C56   C     C_R   0.704544 0.929227 0.155975 0.000000
C57   C     C_R   0.729289 0.891191 0.182134 0.000000
C58   C     C_R   0.698390 0.877020 0.223024 0.000000
C59   C     C_R   0.643395 0.900574 0.237830 0.000000
C60   C     C_R   0.625850 0.941596 0.213650 0.000000
C61   C     C_R   0.655206 0.955296 0.172174 0.000000
N26   N     N_2   0.595177 0.878970 0.272153 0.000000
C62   C     C_R   0.539184 0.859619 0.252897 0.000000
N27   N     N_R   0.539761 0.870383 0.209439 0.000000
C63   C     C_R   0.502761 0.847796 0.186300 0.000000
N28   N     N_R   0.462689 0.812564 0.206168 0.000000
C64   C     C_R   0.460079 0.800706 0.249021 0.000000
N29   N     N_R   0.443087 0.760190 0.270848 0.000000
C65   C     C_R   0.474701 0.759702 0.310229 0.000000
N30   N     N_R   0.499662 0.799522 0.315372 0.000000
C66   C     C_R   0.496452 0.823692 0.274038 0.000000
H41   H     H_    0.727323 0.939489 0.123422 0.000000
H42   H     H_    0.770388 0.871786 0.169916 0.000000
H43   H     H_    0.713130 0.846162 0.242990 0.000000
H44   H     H_    0.582079 0.960325 0.224602 0.000000
H45   H     H_    0.637279 0.985762 0.151905 0.000000
H46   H     H_    0.572551 0.901401 0.286597 0.000000
H47   H     H_    0.508426 0.856872 0.151736 0.000000
H48   H     H_    0.502348 0.731246 0.326625 0.000000
C67   C     C_R   0.055139 0.494830 0.751336 0.000000
C68   C     C_R   0.056272 0.485809 0.711421 0.000000
C69   C     C_R   0.057109 0.519303 0.674700 0.000000
C70   C     C_R   0.060980 0.561944 0.677758 0.000000
C71   C     C_R   0.059758 0.570932 0.718019 0.000000
C72   C     C_R   0.055901 0.537392 0.754668 0.000000
N31   N     N_2   0.064019 0.596382 0.640169 0.000000
C73   C     C_R   0.135929 0.600752 0.621016 0.000000
N32   N     N_R   0.189151 0.572684 0.639622 0.000000
C74   C     C_R   0.262862 0.581584 0.631741 0.000000
N33   N     N_R   0.285255 0.620540 0.607742 0.000000
C75   C     C_R   0.233196 0.647958 0.587899 0.000000
N34   N     N_R   0.248552 0.683915 0.557325 0.000000
C76   C     C_R   0.178086 0.698055 0.544075 0.000000
N35   N     N_R   0.120637 0.670227 0.564006 0.000000
C77   C     C_R   0.158927 0.638861 0.592046 0.000000
H49   H     H_    0.052600 0.468201 0.779677 0.000000
H50   H     H_    0.055894 0.452363 0.709220 0.000000
H51   H     H_    0.055474 0.512040 0.643529 0.000000
H52   H     H_    0.060703 0.604069 0.721345 0.000000
H53   H     H_    0.052711 0.544825 0.785845 0.000000
H54   H     H_    0.053663 0.624911 0.648610 0.000000
H55   H     H_    0.304459 0.558122 0.645747 0.000000
H56   H     H_    0.170199 0.725528 0.517364 0.000000
C78   C     C_R   0.139469 0.316783 0.709811 0.000000
C79   C     C_R   0.133116 0.349873 0.730857 0.000000
C80   C     C_R   0.193735 0.375901 0.732907 0.000000
C81   C     C_R   0.259441 0.371287 0.710697 0.000000
C82   C     C_R   0.266276 0.337772 0.690023 0.000000
C83   C     C_R   0.206733 0.310058 0.690364 0.000000
N36   N     N_2   0.320082 0.400229 0.709135 0.000000
C84   C     C_R   0.306957 0.441204 0.682454 0.000000
N37   N     N_R   0.235778 0.452269 0.672134 0.000000
C85   C     C_R   0.220564 0.478480 0.633528 0.000000
N38   N     N_R   0.274513 0.488073 0.602472 0.000000
C86   C     C_R   0.343955 0.474979 0.612265 0.000000
N39   N     N_R   0.402203 0.477952 0.584229 0.000000
C87   C     C_R   0.461007 0.467790 0.612756 0.000000
N40   N     N_R   0.438314 0.457229 0.656397 0.000000
C88   C     C_R   0.363020 0.459758 0.653458 0.000000
H57   H     H_    0.092480 0.295442 0.709346 0.000000
H58   H     H_    0.081372 0.355192 0.746653 0.000000
H59   H     H_    0.188531 0.401177 0.750294 0.000000
H60   H     H_    0.317896 0.333003 0.673180 0.000000
H61   H     H_    0.212482 0.283512 0.674751 0.000000
H62   H     H_    0.366360 0.388747 0.695884 0.000000
H63   H     H_    0.163572 0.486912 0.625475 0.000000
H64   H     H_    0.519274 0.470478 0.602162 0.000000
C89   C     C_R   0.144495 0.707560 0.727574 0.000000
C90   C     C_R   0.157729 0.682234 0.698745 0.000000
C91   C     C_R   0.221156 0.657027 0.701808 0.000000
C92   C     C_R   0.271325 0.656492 0.734026 0.000000
C93   C     C_R   0.259234 0.683593 0.761263 0.000000
C94   C     C_R   0.195910 0.708559 0.758508 0.000000
N41   N     N_2   0.340821 0.634804 0.735516 0.000000
C95   C     C_R   0.343466 0.591524 0.731794 0.000000
N42   N     N_R   0.279990 0.568521 0.731113 0.000000
C96   C     C_R   0.282435 0.526341 0.729142 0.000000
N43   N     N_R   0.348840 0.506053 0.727810 0.000000
C97   C     C_R   0.411985 0.528244 0.729800 0.000000
N44   N     N_R   0.482064 0.512597 0.730386 0.000000
C98   C     C_R   0.523780 0.547387 0.736891 0.000000
N45   N     N_R   0.481715 0.584332 0.736619 0.000000
C99   C     C_R   0.411073 0.570119 0.732951 0.000000
H65   H     H_    0.094276 0.726635 0.726123 0.000000
H66   H     H_    0.118667 0.682179 0.673586 0.000000
H67   H     H_    0.231792 0.638702 0.678292 0.000000
H68   H     H_    0.297905 0.683874 0.786523 0.000000
H69   H     H_    0.185732 0.727323 0.782072 0.000000
H70   H     H_    0.374453 0.639752 0.759074 0.000000
H71   H     H_    0.230679 0.508768 0.728496 0.000000
H72   H     H_    0.584230 0.546888 0.738687 0.000000
C100  C     C_R   0.542248 0.635504 0.395759 0.000000
C101  C     C_R   0.514665 0.674313 0.399903 0.000000
C102  C     C_R   0.442901 0.686293 0.387336 0.000000
C103  C     C_R   0.402902 0.662643 0.364734 0.000000
C104  C     C_R   0.428111 0.622004 0.364616 0.000000
C105  C     C_R   0.496874 0.607861 0.381098 0.000000
N46   N     N_2   0.354264 0.684916 0.332443 0.000000
C106  C     C_R   0.284376 0.666428 0.327186 0.000000
N47   N     N_R   0.246329 0.643239 0.361797 0.000000
C107  C     C_R   0.174083 0.631413 0.360073 0.000000
N48   N     N_R   0.133687 0.646313 0.324577 0.000000
C108  C     C_R   0.169699 0.670510 0.289751 0.000000
N49   N     N_R   0.136653 0.691733 0.253346 0.000000
C109  C     C_R   0.200231 0.711199 0.229260 0.000000
N50   N     N_R   0.270075 0.703809 0.250228 0.000000
C110  C     C_R   0.245999 0.678804 0.289109 0.000000
H73   H     H_    0.600024 0.627900 0.402166 0.000000
H74   H     H_    0.552348 0.697222 0.408465 0.000000
H75   H     H_    0.423852 0.718522 0.387516 0.000000
H76   H     H_    0.395635 0.602626 0.349274 0.000000
H77   H     H_    0.519556 0.577400 0.377828 0.000000
H78   H     H_    0.382300 0.693148 0.303729 0.000000
H79   H     H_    0.148841 0.610708 0.388195 0.000000
H80   H     H_    0.193991 0.729681 0.196838 0.000000
C111  C     C_R   0.287700 0.463920 0.873718 0.000000
C112  C     C_R   0.276438 0.472002 0.913710 0.000000
C113  C     C_R   0.288502 0.513284 0.918675 0.000000
C114  C     C_R   0.313053 0.546314 0.884463 0.000000
C115  C     C_R   0.329533 0.537082 0.845356 0.000000
C116  C     C_R   0.311951 0.496828 0.839624 0.000000
N51   N     N_2   0.317737 0.589314 0.889409 0.000000
C117  C     C_R   0.266477 0.618064 0.864387 0.000000
N52   N     N_R   0.227924 0.605445 0.833634 0.000000
C118  C     C_R   0.160063 0.622212 0.821380 0.000000
N53   N     N_R   0.123672 0.646061 0.844997 0.000000
C119  C     C_R   0.161394 0.656809 0.876574 0.000000
N54   N     N_R   0.130310 0.665812 0.912117 0.000000
C120  C     C_R   0.194405 0.673351 0.933170 0.000000
N55   N     N_R   0.262352 0.665065 0.914291 0.000000
C121  C     C_R   0.236994 0.651003 0.880402 0.000000
H81   H     H_    0.275566 0.432401 0.868425 0.000000
H82   H     H_    0.255376 0.446668 0.940644 0.000000
H83   H     H_    0.274424 0.520055 0.948892 0.000000
H84   H     H_    0.349836 0.562231 0.818339 0.000000
H85   H     H_    0.314979 0.491178 0.808053 0.000000
H86   H     H_    0.312885 0.590452 0.921154 0.000000
H87   H     H_    0.131350 0.612179 0.795975 0.000000
H88   H     H_    0.191418 0.682015 0.962584 0.000000
C122  C     C_R   0.068412 0.845175 0.767079 0.000000
C123  C     C_R   0.080032 0.801055 0.776277 0.000000
C124  C     C_R   0.036081 0.773047 0.807388 0.000000
C125  C     C_R   0.981302 0.789530 0.830475 0.000000
C126  C     C_R   0.969096 0.833925 0.820265 0.000000
C127  C     C_R   0.011222 0.861386 0.788035 0.000000
N56   N     N_2   0.942994 0.762103 0.866644 0.000000
C128  C     C_R   0.888292 0.736976 0.853510 0.000000
N57   N     N_R   0.826464 0.757613 0.836461 0.000000
C129  C     C_R   0.784610 0.742187 0.809082 0.000000
N58   N     N_R   0.809237 0.709032 0.792977 0.000000
C130  C     C_R   0.871951 0.688905 0.809005 0.000000
N59   N     N_R   0.901800 0.654226 0.797916 0.000000
C131  C     C_R   0.952236 0.640552 0.831383 0.000000
N60   N     N_R   0.955091 0.666469 0.861642 0.000000
C132  C     C_R   0.905606 0.698053 0.843840 0.000000
H89   H     H_    0.102131 0.866819 0.742164 0.000000
H90   H     H_    0.123467 0.788890 0.758385 0.000000
H91   H     H_    0.047632 0.738589 0.815088 0.000000
H92   H     H_    0.927046 0.847846 0.837457 0.000000
H93   H     H_    0.999539 0.895748 0.779042 0.000000
H94   H     H_    0.917150 0.780991 0.884725 0.000000
H95   H     H_    0.735760 0.759673 0.796656 0.000000
H96   H     H_    0.984377 0.611444 0.833796 0.000000
C133  C     C_R   0.836864 0.875185 0.698980 0.000000
C134  C     C_R   0.912865 0.868485 0.696651 0.000000
C135  C     C_R   0.940584 0.826865 0.702374 0.000000
C136  C     C_R   0.892555 0.791108 0.709705 0.000000
C137  C     C_R   0.816244 0.798484 0.712840 0.000000
C138  C     C_R   0.788624 0.840072 0.707314 0.000000
N61   N     N_2   0.919660 0.747502 0.716654 0.000000
C139  C     C_R   0.963060 0.738694 0.682114 0.000000
N62   N     N_R   0.011281 0.769361 0.659694 0.000000
C140  C     C_R   0.046394 0.765999 0.622810 0.000000
N63   N     N_R   0.028888 0.733185 0.604998 0.000000
C141  C     C_R   0.980061 0.702948 0.626036 0.000000
N64   N     N_R   0.956526 0.669281 0.611374 0.000000
C142  C     C_R   0.913963 0.645923 0.646153 0.000000
N65   N     N_R   0.912441 0.663903 0.681759 0.000000
C143  C     C_R   0.952265 0.701689 0.666490 0.000000
H97   H     H_    0.815238 0.907798 0.694662 0.000000
H98   H     H_    0.951146 0.895943 0.690625 0.000000
H99   H     H_    0.000494 0.823126 0.701252 0.000000
H100  H     H_    0.776735 0.771816 0.719821 0.000000
H101  H     H_    0.728830 0.845043 0.709720 0.000000
H102  H     H_    0.877969 0.724811 0.725257 0.000000
H103  H     H_    0.085417 0.791109 0.606296 0.000000
H104  H     H_    0.887312 0.615553 0.645973 0.000000
C144  C     C_R   0.582049 0.896215 0.655885 0.000000
C145  C     C_R   0.546202 0.869817 0.691350 0.000000
C146  C     C_R   0.543098 0.825388 0.696174 0.000000
C147  C     C_R   0.576208 0.806228 0.665826 0.000000
C148  C     C_R   0.608600 0.833801 0.628760 0.000000
C149  C     C_R   0.612671 0.878128 0.624414 0.000000
N66   N     N_2   0.570313 0.759981 0.671446 0.000000
C150  C     C_R   0.639649 0.738753 0.669433 0.000000
N67   N     N_R   0.694718 0.760821 0.643217 0.000000
C151  C     C_R   0.765906 0.747270 0.643750 0.000000
N68   N     N_R   0.785898 0.712001 0.673627 0.000000
C152  C     C_R   0.733227 0.689545 0.700543 0.000000
N69   N     N_R   0.746005 0.652895 0.730418 0.000000
C153  C     C_R   0.674128 0.637602 0.742661 0.000000
N70   N     N_R   0.618334 0.664832 0.722777 0.000000
C154  C     C_R   0.658611 0.698664 0.696858 0.000000
H105  H     H_    0.584129 0.931056 0.652155 0.000000
H106  H     H_    0.519172 0.884059 0.715175 0.000000
H107  H     H_    0.513018 0.805947 0.723815 0.000000
H108  H     H_    0.628756 0.821751 0.601658 0.000000
H109  H     H_    0.638448 0.898842 0.595665 0.000000
H110  H     H_    0.535267 0.744523 0.696447 0.000000
H111  H     H_    0.807698 0.766077 0.621701 0.000000
H112  H     H_    0.662030 0.606654 0.764980 0.000000
C155  C     C_R   0.577000 0.891397 0.829716 0.000000
C156  C     C_R   0.592256 0.860959 0.867357 0.000000
C157  C     C_R   0.548225 0.824291 0.880515 0.000000
C158  C     C_R   0.490540 0.816612 0.855733 0.000000
C159  C     C_R   0.473496 0.847694 0.818587 0.000000
C160  C     C_R   0.516772 0.885069 0.805741 0.000000
N71   N     N_2   0.458894 0.774421 0.864608 0.000000
C161  C     C_R   0.503985 0.750054 0.842991 0.000000
N72   N     N_R   0.560381 0.771617 0.817448 0.000000
C162  C     C_R   0.591033 0.757723 0.784348 0.000000
N73   N     N_R   0.562000 0.723062 0.773596 0.000000
C163  C     C_R   0.506737 0.701121 0.798655 0.000000
N74   N     N_R   0.476722 0.664672 0.792987 0.000000
C164  C     C_R   0.436850 0.649703 0.831709 0.000000
N75   N     N_R   0.436273 0.677747 0.859508 0.000000
C165  C     C_R   0.480393 0.710980 0.835749 0.000000
H113  H     H_    0.610968 0.920581 0.819524 0.000000
H114  H     H_    0.637858 0.865692 0.887171 0.000000
H115  H     H_    0.559458 0.800661 0.909789 0.000000
H116  H     H_    0.429291 0.841956 0.798323 0.000000
H117  H     H_    0.503582 0.909485 0.776884 0.000000
H118  H     H_    0.405082 0.774541 0.853955 0.000000
H119  H     H_    0.633048 0.777351 0.763359 0.000000
H120  H     H_    0.413486 0.617802 0.839520 0.000000
C166  C     C_R   0.881328 0.014712 0.874503 0.000000
C167  C     C_R   0.841215 0.050322 0.854374 0.000000
C168  C     C_R   0.827539 0.082745 0.875142 0.000000
C169  C     C_R   0.854480 0.080278 0.915875 0.000000
C170  C     C_R   0.899047 0.045639 0.934693 0.000000
C171  C     C_R   0.910125 0.012133 0.914627 0.000000
N76   N     N_2   0.835628 0.112695 0.938047 0.000000
C172  C     C_R   0.760244 0.109557 0.953060 0.000000
N77   N     N_R   0.713725 0.081982 0.940299 0.000000
C173  C     C_R   0.639448 0.080959 0.949491 0.000000
N78   N     N_R   0.607748 0.109757 0.969541 0.000000
C174  C     C_R   0.652908 0.138548 0.981137 0.000000
N79   N     N_R   0.631824 0.172366 0.997528 0.000000
C175  C     C_R   0.699990 0.190302 0.002929 0.000000
N80   N     N_R   0.760453 0.166951 0.993973 0.000000
C176  C     C_R   0.728787 0.137140 0.976140 0.000000
H121  H     H_    0.887985 0.988463 0.859036 0.000000
H122  H     H_    0.818362 0.052171 0.822936 0.000000
H123  H     H_    0.793642 0.109373 0.859642 0.000000
H124  H     H_    0.922237 0.043349 0.966016 0.000000
H125  H     H_    0.940489 0.983495 0.930623 0.000000
H126  H     H_    0.872626 0.116499 0.960676 0.000000
H127  H     H_    0.605572 0.058046 0.938570 0.000000
H128  H     H_    0.706243 0.218237 0.015820 0.000000
C177  C     C_R   0.659033 0.054720 0.199960 0.000000
C178  C     C_R   0.729523 0.072637 0.191687 0.000000
C179  C     C_R   0.743264 0.107295 0.157114 0.000000
C180  C     C_R   0.686632 0.124487 0.129749 0.000000
C181  C     C_R   0.619447 0.102190 0.134623 0.000000
C182  C     C_R   0.604341 0.068697 0.170473 0.000000
N81   N     N_2   0.703379 0.155824 0.090782 0.000000
C183  C     C_R   0.729785 0.196806 0.095145 0.000000
N82   N     N_R   0.684544 0.224162 0.110148 0.000000
C184  C     C_R   0.715116 0.256107 0.125934 0.000000
N83   N     N_R   0.786502 0.252173 0.138390 0.000000
C185  C     C_R   0.828515 0.224708 0.122399 0.000000
N84   N     N_R   0.884341 0.201267 0.142901 0.000000
C186  C     C_R   0.900883 0.174286 0.115801 0.000000
N85   N     N_R   0.857565 0.181517 0.079721 0.000000
C187  C     C_R   0.804499 0.207505 0.090151 0.000000
H129  H     H_    0.648475 0.027773 0.227623 0.000000
H130  H     H_    0.775497 0.058482 0.210867 0.000000
H131  H     H_    0.799398 0.119666 0.151379 0.000000
H132  H     H_    0.580411 0.109360 0.108880 0.000000
H133  H     H_    0.551092 0.051935 0.174407 0.000000
H134  H     H_    0.743466 0.142391 0.074705 0.000000
H135  H     H_    0.679923 0.278207 0.138080 0.000000
H136  H     H_    0.927181 0.143458 0.127012 0.000000
C188  C     C_R   0.983067 0.155920 0.803877 0.000000
C189  C     C_R   0.934811 0.177432 0.825816 0.000000
C190  C     C_R   0.943267 0.174566 0.869404 0.000000
C191  C     C_R   0.999786 0.149497 0.891251 0.000000
C192  C     C_R   0.050343 0.130127 0.868492 0.000000
C193  C     C_R   0.041336 0.132522 0.825189 0.000000
N86   N     N_2   0.006971 0.143804 0.936385 0.000000
C194  C     C_R   0.041384 0.180749 0.944397 0.000000
N87   N     N_R   0.111458 0.190935 0.927957 0.000000
C195  C     C_R   0.137600 0.232302 0.918701 0.000000
N88   N     N_R   0.091287 0.265359 0.919585 0.000000
C196  C     C_R   0.022343 0.255348 0.936200 0.000000
N89   N     N_R   0.967045 0.283815 0.935182 0.000000
C197  C     C_R   0.908745 0.256325 0.955167 0.000000
N90   N     N_R   0.928356 0.213044 0.971208 0.000000
C198  C     C_R   0.999379 0.213573 0.954465 0.000000
H137  H     H_    0.976226 0.158253 0.769806 0.000000
H138  H     H_    0.890882 0.196937 0.808406 0.000000
H139  H     H_    0.904837 0.191334 0.886452 0.000000
H140  H     H_    0.098368 0.113998 0.884469 0.000000
H141  H     H_    0.080426 0.116474 0.807793 0.000000
H142  H     H_    0.040964 0.117434 0.947067 0.000000
H143  H     H_    0.194797 0.239328 0.908700 0.000000
H144  H     H_    0.852445 0.267298 0.957292 0.000000
C199  C     C_R   0.681867 0.943667 0.036771 0.000000
C200  C     C_R   0.745658 0.965306 0.017739 0.000000
C201  C     C_R   0.759299 0.007100 0.020941 0.000000
C202  C     C_R   0.708753 0.028096 0.042303 0.000000
C203  C     C_R   0.643719 0.006755 0.060203 0.000000
C204  C     C_R   0.631349 0.964426 0.058236 0.000000
N91   N     N_2   0.727758 0.068715 0.050331 0.000000
C205  C     C_R   0.785171 0.061812 0.080235 0.000000
N92   N     N_R   0.770789 0.031176 0.117103 0.000000
C206  C     C_R   0.823591 0.002910 0.135457 0.000000
N93   N     N_R   0.887856 0.000239 0.113642 0.000000
C207  C     C_R   0.903774 0.032254 0.078867 0.000000
N94   N     N_R   0.970007 0.037862 0.058581 0.000000
C208  C     C_R   0.965090 0.079578 0.032738 0.000000
N95   N     N_R   0.897041 0.099251 0.036696 0.000000
C209  C     C_R   0.858981 0.066847 0.065569 0.000000
H145  H     H_    0.672630 0.910146 0.035992 0.000000
H146  H     H_    0.786571 0.949154 0.001691 0.000000
H147  H     H_    0.810721 0.022994 0.007317 0.000000
H148  H     H_    0.605043 0.021420 0.078962 0.000000
H149  H     H_    0.584055 0.946818 0.075879 0.000000
H150  H     H_    0.681194 0.081058 0.062593 0.000000
H151  H     H_    0.812469 0.980154 0.166161 0.000000
H152  H     H_    0.012718 0.096571 0.015330 0.000000
C210  C     C_R   0.144009 0.038514 0.876700 0.000000
C211  C     C_R   0.117743 0.025130 0.918937 0.000000
C212  C     C_R   0.162196 0.029144 0.952420 0.000000
C213  C     C_R   0.234408 0.045200 0.944165 0.000000
C214  C     C_R   0.259138 0.060266 0.901735 0.000000
C215  C     C_R   0.214032 0.057520 0.868040 0.000000
N96   N     N_2   0.284470 0.041957 0.978555 0.000000
C216  C     C_R   0.310577 0.082735 0.982630 0.000000
N97   N     N_R   0.274229 0.118886 0.962092 0.000000
C217  C     C_R   0.300231 0.159205 0.960978 0.000000
N98   N     N_R   0.365451 0.164821 0.979041 0.000000
C218  C     C_R   0.401612 0.129389 0.000010 0.000000
N99   N     N_R   0.465195 0.129750 0.020894 0.000000
C219  C     C_R   0.474573 0.086354 0.040867 0.000000
N100  N     N_R   0.419873 0.059319 0.031561 0.000000
C220  C     C_R   0.375175 0.088139 0.004413 0.000000
H153  H     H_    0.109046 0.035283 0.850508 0.000000
H154  H     H_    0.062684 0.010849 0.926006 0.000000
H155  H     H_    0.140737 0.018223 0.985061 0.000000
H156  H     H_    0.314572 0.073262 0.894808 0.000000
H157  H     H_    0.234644 0.068841 0.834969 0.000000
H158  H     H_    0.327559 0.020622 0.977725 0.000000
H159  H     H_    0.269589 0.187206 0.944622 0.000000
H160  H     H_    0.519295 0.074794 0.062526 0.000000
C221  C     C_R   0.712579 0.174646 0.807174 0.000000
C222  C     C_R   0.638881 0.172165 0.796630 0.000000
C223  C     C_R   0.582880 0.176049 0.826047 0.000000
C224  C     C_R   0.600283 0.181075 0.866767 0.000000
C225  C     C_R   0.673862 0.186424 0.875681 0.000000
C226  C     C_R   0.729439 0.182396 0.846513 0.000000
N101  N     N_2   0.543682 0.187284 0.896591 0.000000
C227  C     C_R   0.528481 0.231386 0.888908 0.000000
N102  N     N_R   0.545437 0.256198 0.849140 0.000000
C228  C     C_R   0.526566 0.298194 0.837545 0.000000
N103  N     N_R   0.483718 0.315260 0.864427 0.000000
C229  C     C_R   0.461724 0.290104 0.902644 0.000000
N104  N     N_R   0.417011 0.302889 0.931420 0.000000
C230  C     C_R   0.428492 0.269597 0.968265 0.000000
N105  N     N_R   0.475576 0.236729 0.961889 0.000000
C231  C     C_R   0.491223 0.250142 0.918505 0.000000
H161  H     H_    0.756999 0.171589 0.784358 0.000000
H162  H     H_    0.624906 0.167970 0.765109 0.000000
H163  H     H_    0.525795 0.177326 0.815797 0.000000
H164  H     H_    0.688321 0.195632 0.904766 0.000000
H165  H     H_    0.786669 0.185499 0.854955 0.000000
H166  H     H_    0.554074 0.175501 0.928426 0.000000
H167  H     H_    0.545375 0.317962 0.806510 0.000000
H168  H     H_    0.406356 0.269304 0.999878 0.000000
C232  C     C_R   0.613912 0.359359 0.890341 0.000000
C233  C     C_R   0.593095 0.375470 0.924810 0.000000
C234  C     C_R   0.589352 0.349431 0.965643 0.000000
C235  C     C_R   0.613137 0.306994 0.972124 0.000000
C236  C     C_R   0.643028 0.292576 0.938312 0.000000
C237  C     C_R   0.640670 0.317763 0.897672 0.000000
N106  N     N_2   0.603729 0.275494 0.010928 0.000000
C238  C     C_R   0.563028 0.283481 0.046061 0.000000
N107  N     N_R   0.577848 0.319313 0.060374 0.000000
C239  C     C_R   0.561200 0.321130 0.101371 0.000000
N108  N     N_R   0.540318 0.284624 0.130785 0.000000
C240  C     C_R   0.526610 0.249033 0.116640 0.000000
N109  N     N_R   0.518585 0.208960 0.141558 0.000000
C241  C     C_R   0.508245 0.184280 0.112201 0.000000
N110  N     N_R   0.519108 0.207365 0.069901 0.000000
C242  C     C_R   0.530706 0.248450 0.074503 0.000000
H169  H     H_    0.610572 0.379815 0.857990 0.000000
H170  H     H_    0.581328 0.408992 0.919954 0.000000
H171  H     H_    0.566812 0.363802 0.990467 0.000000
H172  H     H_    0.662368 0.259682 0.942606 0.000000
H173  H     H_    0.656991 0.302999 0.872084 0.000000
H174  H     H_    0.591991 0.246005 0.005430 0.000000
H175  H     H_    0.573107 0.350471 0.111659 0.000000
H176  H     H_    0.492444 0.150441 0.121600 0.000000
C243  C     C_R   0.728805 0.903910 0.360039 0.000000
C244  C     C_R   0.750513 0.938811 0.374099 0.000000
C245  C     C_R   0.780759 0.973549 0.345750 0.000000
C246  C     C_R   0.799800 0.970854 0.304249 0.000000
C247  C     C_R   0.781599 0.934839 0.290362 0.000000
C248  C     C_R   0.744888 0.901452 0.318327 0.000000
N111  N     N_2   0.850180 0.000817 0.279320 0.000000
C249  C     C_R   0.838283 0.042221 0.285262 0.000000
N112  N     N_R   0.768029 0.055558 0.292287 0.000000
C250  C     C_R   0.752769 0.097888 0.288191 0.000000
N113  N     N_R   0.805202 0.127828 0.270988 0.000000
C251  C     C_R   0.873691 0.114190 0.263090 0.000000
N114  N     N_R   0.925724 0.138303 0.237664 0.000000
C252  C     C_R   0.982073 0.108222 0.237026 0.000000
N115  N     N_R   0.963762 0.066110 0.260013 0.000000
C253  C     C_R   0.893368 0.072029 0.273981 0.000000
H177  H     H_    0.697328 0.880011 0.382521 0.000000
H178  H     H_    0.741450 0.940098 0.407065 0.000000
H179  H     H_    0.794285 0.000881 0.358759 0.000000
H180  H     H_    0.798413 0.932000 0.258364 0.000000
H181  H     H_    0.731611 0.873283 0.307295 0.000000
H182  H     H_    0.857022 0.999359 0.247555 0.000000
H183  H     H_    0.696468 0.107988 0.294244 0.000000
H184  H     H_    0.033114 0.116437 0.218298 0.000000
C254  C     C_R   0.783689 0.145634 0.428447 0.000000
C255  C     C_R   0.847668 0.171010 0.420829 0.000000
C256  C     C_R   0.863446 0.197152 0.380195 0.000000
C257  C     C_R   0.815711 0.198275 0.346753 0.000000
C258  C     C_R   0.751698 0.172210 0.354475 0.000000
C259  C     C_R   0.735906 0.146144 0.395205 0.000000
N116  N     N_2   0.835052 0.223807 0.304748 0.000000
C260  C     C_R   0.772007 0.244671 0.283746 0.000000
N117  N     N_R   0.727528 0.268067 0.304428 0.000000
C261  C     C_R   0.655431 0.276736 0.293365 0.000000
N118  N     N_R   0.623068 0.257745 0.264792 0.000000
C262  C     C_R   0.667149 0.234914 0.243852 0.000000
N119  N     N_R   0.644121 0.209923 0.218144 0.000000
C263  C     C_R   0.710245 0.191718 0.208311 0.000000
N120  N     N_R   0.773216 0.206264 0.224978 0.000000
C264  C     C_R   0.742596 0.231566 0.249518 0.000000
H185  H     H_    0.771361 0.125101 0.460318 0.000000
H186  H     H_    0.885757 0.170423 0.446742 0.000000
H187  H     H_    0.914498 0.216085 0.374491 0.000000
H188  H     H_    0.713694 0.171063 0.329035 0.000000
H189  H     H_    0.686226 0.125730 0.401003 0.000000
H190  H     H_    0.860681 0.204938 0.286728 0.000000
H191  H     H_    0.621922 0.296046 0.310253 0.000000
H192  H     H_    0.712829 0.170174 0.187614 0.000000
C265  C     C_R   0.178337 0.156274 0.392870 0.000000
C266  C     C_R   0.199146 0.162212 0.349902 0.000000
C267  C     C_R   0.145380 0.163171 0.319403 0.000000
C268  C     C_R   0.070209 0.160971 0.331003 0.000000
C269  C     C_R   0.049921 0.154791 0.374264 0.000000
C270  C     C_R   0.103628 0.151944 0.405102 0.000000
N121  N     N_2   0.017450 0.177143 0.298682 0.000000
C271  C     C_R   0.023654 0.222673 0.290412 0.000000
N122  N     N_R   0.064028 0.238301 0.318585 0.000000
C272  C     C_R   0.082441 0.280255 0.313060 0.000000
N123  N     N_R   0.060156 0.309270 0.278008 0.000000
C273  C     C_R   0.018008 0.295176 0.250081 0.000000
N124  N     N_R   0.985565 0.321632 0.217018 0.000000
C274  C     C_R   0.944754 0.293116 0.199681 0.000000
N125  N     N_R   0.950360 0.249874 0.221813 0.000000
C275  C     C_R   0.997430 0.252649 0.254360 0.000000
H193  H     H_    0.220385 0.155166 0.416860 0.000000
H194  H     H_    0.257775 0.166278 0.340135 0.000000
H195  H     H_    0.160866 0.170825 0.285610 0.000000
H196  H     H_    0.991865 0.154955 0.383987 0.000000
H197  H     H_    0.086876 0.148021 0.438698 0.000000
H198  H     H_    0.964010 0.166645 0.308907 0.000000
H199  H     H_    0.115658 0.290137 0.336682 0.000000
H200  H     H_    0.909533 0.303607 0.172201 0.000000
C276  C     C_R   0.307163 0.276922 0.136305 0.000000
C277  C     C_R   0.257927 0.260383 0.112144 0.000000
C278  C     C_R   0.267966 0.269974 0.068178 0.000000
C279  C     C_R   0.316382 0.302986 0.048110 0.000000
C280  C     C_R   0.369542 0.317344 0.071973 0.000000
C281  C     C_R   0.365925 0.303042 0.116349 0.000000
N126  N     N_2   0.307286 0.323286 0.004019 0.000000
C282  C     C_R   0.235519 0.341466 0.996486 0.000000
N127  N     N_R   0.187778 0.340496 0.030308 0.000000
C283  C     C_R   0.113251 0.345353 0.025652 0.000000
N128  N     N_R   0.083450 0.348757 0.986769 0.000000
C284  C     C_R   0.130455 0.352663 0.952689 0.000000
N129  N     N_R   0.109585 0.357005 0.912029 0.000000
C285  C     C_R   0.179053 0.359699 0.890224 0.000000
N130  N     N_R   0.240695 0.356454 0.916913 0.000000
C286  C     C_R   0.206332 0.351356 0.956132 0.000000
H201  H     H_    0.298991 0.269520 0.170732 0.000000
H202  H     H_    0.211040 0.240486 0.127572 0.000000
H203  H     H_    0.230845 0.256453 0.048883 0.000000
H204  H     H_    0.411359 0.341188 0.056711 0.000000
H205  H     H_    0.404577 0.315815 0.135601 0.000000
H206  H     H_    0.350667 0.342133 0.988186 0.000000
H207  H     H_    0.077262 0.344160 0.053718 0.000000
H208  H     H_    0.184710 0.363300 0.855675 0.000000
C287  C     C_R   0.914816 0.221653 0.668992 0.000000
C288  C     C_R   0.962310 0.256004 0.651128 0.000000
C289  C     C_R   0.956098 0.294962 0.662990 0.000000
C290  C     C_R   0.902988 0.299231 0.693943 0.000000
C291  C     C_R   0.854454 0.264819 0.711237 0.000000
C292  C     C_R   0.860069 0.226280 0.698692 0.000000
N131  N     N_2   0.900835 0.337289 0.709800 0.000000
C293  C     C_R   0.935477 0.328972 0.749898 0.000000
N132  N     N_R   0.969386 0.290137 0.763946 0.000000
C294  C     C_R   0.003451 0.278619 0.802224 0.000000
N133  N     N_R   0.002572 0.305365 0.828951 0.000000
C295  C     C_R   0.969839 0.344076 0.815625 0.000000
N134  N     N_R   0.959836 0.372046 0.840298 0.000000
C296  C     C_R   0.922353 0.405810 0.812540 0.000000
N135  N     N_R   0.906762 0.398535 0.772318 0.000000
C297  C     C_R   0.937235 0.358119 0.776086 0.000000
H209  H     H_    0.919953 0.191358 0.659256 0.000000
H210  H     H_    0.004212 0.252249 0.627561 0.000000
H211  H     H_    0.994494 0.321413 0.648980 0.000000
H212  H     H_    0.811530 0.268029 0.734583 0.000000
H213  H     H_    0.821956 0.199618 0.712370 0.000000
H214  H     H_    0.924334 0.363939 0.688601 0.000000
H215  H     H_    0.030699 0.247545 0.811758 0.000000
H216  H     H_    0.902758 0.434266 0.822287 0.000000
C298  C     C_R   0.729196 0.306495 0.792783 0.000000
C299  C     C_R   0.710354 0.346464 0.799089 0.000000
C300  C     C_R   0.749616 0.364398 0.827050 0.000000
C301  C     C_R   0.797396 0.338695 0.855560 0.000000
C302  C     C_R   0.815502 0.298125 0.849575 0.000000
C303  C     C_R   0.785137 0.283524 0.816586 0.000000
N136  N     N_2   0.833136 0.352749 0.888942 0.000000
C304  C     C_R   0.815405 0.388936 0.905696 0.000000
N137  N     N_R   0.748439 0.408655 0.900366 0.000000
C305  C     C_R   0.728332 0.438761 0.922286 0.000000
N138  N     N_R   0.772441 0.447677 0.952381 0.000000
C306  C     C_R   0.837952 0.427629 0.958540 0.000000
N139  N     N_R   0.888904 0.433186 0.986577 0.000000
C307  C     C_R   0.947697 0.408467 0.976667 0.000000
N140  N     N_R   0.933512 0.388171 0.943602 0.000000
C308  C     C_R   0.862247 0.400382 0.934382 0.000000
H217  H     H_    0.700023 0.293255 0.769543 0.000000
H218  H     H_    0.662261 0.363084 0.783757 0.000000
H219  H     H_    0.735548 0.396587 0.829064 0.000000
H220  H     H_    0.856188 0.278111 0.869538 0.000000
H221  H     H_    0.804162 0.253546 0.810173 0.000000
H222  H     H_    0.867656 0.331048 0.907380 0.000000
H223  H     H_    0.675685 0.455387 0.916494 0.000000
H224  H     H_    0.999554 0.406146 0.993118 0.000000
C309  C     C_R   0.097350 0.218962 0.058557 0.000000
C310  C     C_R   0.067733 0.196549 0.097696 0.000000
C311  C     C_R   0.063674 0.151833 0.107169 0.000000
C312  C     C_R   0.087318 0.129201 0.077642 0.000000
C313  C     C_R   0.121362 0.151793 0.039267 0.000000
C314  C     C_R   0.127948 0.196472 0.030496 0.000000
N141  N     N_2   0.084314 0.083120 0.088445 0.000000
C315  C     C_R   0.157697 0.068066 0.092241 0.000000
N142  N     N_R   0.208592 0.093684 0.104224 0.000000
C316  C     C_R   0.282373 0.086083 0.103749 0.000000
N143  N     N_R   0.307579 0.052392 0.089719 0.000000
C317  C     C_R   0.258544 0.027318 0.076228 0.000000
N144  N     N_R   0.278124 0.992333 0.062870 0.000000
C318  C     C_R   0.208377 0.974578 0.058524 0.000000
N145  N     N_R   0.147682 0.998881 0.067739 0.000000
C319  C     C_R   0.183382 0.032904 0.077785 0.000000
H225  H     H_    0.099894 0.254031 0.050858 0.000000
H226  H     H_    0.047896 0.213948 0.121061 0.000000
H227  H     H_    0.041451 0.134514 0.138252 0.000000
H228  H     H_    0.144209 0.134597 0.016442 0.000000
H229  H     H_    0.157643 0.214103 0.001739 0.000000
H230  H     H_    0.053561 0.070975 0.116591 0.000000
H231  H     H_    0.321587 0.107551 0.113581 0.000000
H232  H     H_    0.202444 0.942915 0.052476 0.000000
C320  C     C_R   0.239503 0.949874 0.388772 0.000000
C321  C     C_R   0.166357 0.937789 0.392900 0.000000
C322  C     C_R   0.131848 0.930973 0.357600 0.000000
C323  C     C_R   0.169524 0.929841 0.319596 0.000000
C324  C     C_R   0.245733 0.935240 0.318028 0.000000
C325  C     C_R   0.278531 0.948838 0.351239 0.000000
N146  N     N_2   0.126339 0.923985 0.284626 0.000000
C326  C     C_R   0.140848 0.941773 0.240335 0.000000
N147  N     N_R   0.208851 0.940597 0.221754 0.000000
C327  C     C_R   0.216733 0.956687 0.178626 0.000000
N148  N     N_R   0.157181 0.964534 0.153281 0.000000
C328  C     C_R   0.088985 0.960442 0.171072 0.000000
N149  N     N_R   0.029702 0.979723 0.149846 0.000000
C329  C     C_R   0.992687 0.995292 0.181571 0.000000
N150  N     N_R   0.024844 0.982537 0.221181 0.000000
C330  C     C_R   0.082502 0.957900 0.213669 0.000000
H233  H     H_    0.266374 0.959248 0.415022 0.000000
H234  H     H_    0.134571 0.936099 0.422564 0.000000
H235  H     H_    0.073654 0.926392 0.360686 0.000000
H236  H     H_    0.278501 0.934189 0.289702 0.000000
H237  H     H_    0.335532 0.959541 0.348286 0.000000
H238  H     H_    0.071636 0.928936 0.290219 0.000000
H239  H     H_    0.270045 0.962146 0.163250 0.000000
H240  H     H_    0.950390 0.020167 0.175255 0.000000
C331  C     C_R   0.168377 0.696703 0.033312 0.000000
C332  C     C_R   0.189420 0.736574 0.007144 0.000000
C333  C     C_R   0.152294 0.773449 0.009298 0.000000
C334  C     C_R   0.093636 0.770042 0.038733 0.000000
C335  C     C_R   0.066258 0.729298 0.059219 0.000000
C336  C     C_R   0.102204 0.692693 0.055970 0.000000
N151  N     N_2   0.059943 0.805957 0.049949 0.000000
C337  C     C_R   0.059261 0.848765 0.023729 0.000000
N152  N     N_R   0.121975 0.868388 0.003583 0.000000
C338  C     C_R   0.129083 0.912224 0.993462 0.000000
N153  N     N_R   0.082356 0.936218 0.011861 0.000000
C339  C     C_R   0.020843 0.916441 0.032168 0.000000
N154  N     N_R   0.983673 0.928654 0.064321 0.000000
C340  C     C_R   0.930768 0.894407 0.076382 0.000000
N155  N     N_R   0.940400 0.860484 0.055132 0.000000
C341  C     C_R   0.002183 0.874970 0.030769 0.000000
H241  H     H_    0.201374 0.668244 0.033720 0.000000
H242  H     H_    0.236958 0.739182 0.985464 0.000000
H243  H     H_    0.172469 0.803621 0.988857 0.000000
H244  H     H_    0.013957 0.724866 0.076502 0.000000
H245  H     H_    0.077868 0.661553 0.071599 0.000000
H246  H     H_    0.015405 0.797633 0.070853 0.000000
H247  H     H_    0.178159 0.927403 0.976012 0.000000
H248  H     H_    0.889940 0.892462 0.102539 0.000000
C342  C     C_R   0.181347 0.127726 0.186282 0.000000
C343  C     C_R   0.228379 0.153696 0.155915 0.000000
C344  C     C_R   0.295513 0.166664 0.167854 0.000000
C345  C     C_R   0.311173 0.158058 0.210750 0.000000
C346  C     C_R   0.262899 0.133696 0.241417 0.000000
C347  C     C_R   0.196193 0.120146 0.229101 0.000000
N156  N     N_2   0.373518 0.177978 0.223081 0.000000
C348  C     C_R   0.352931 0.211053 0.242735 0.000000
N157  N     N_R   0.280714 0.215068 0.254420 0.000000
C349  C     C_R   0.253560 0.252576 0.260842 0.000000
N158  N     N_R   0.297038 0.288383 0.252078 0.000000
C350  C     C_R   0.369232 0.284152 0.241835 0.000000
N159  N     N_R   0.417166 0.316953 0.227337 0.000000
C351  C     C_R   0.479925 0.296063 0.216086 0.000000
N160  N     N_R   0.470092 0.251490 0.222142 0.000000
C352  C     C_R   0.399170 0.245896 0.238574 0.000000
H249  H     H_    0.133302 0.112450 0.177139 0.000000
H250  H     H_    0.214420 0.163548 0.122344 0.000000
H251  H     H_    0.333847 0.185273 0.143422 0.000000
H252  H     H_    0.275139 0.128350 0.275181 0.000000
H253  H     H_    0.154766 0.104229 0.252795 0.000000
H254  H     H_    0.407805 0.190491 0.196649 0.000000
H255  H     H_    0.195181 0.254617 0.269272 0.000000
H256  H     H_    0.529554 0.313478 0.200842 0.000000
C353  C     C_R   0.381766 0.007576 0.498636 0.000000
C354  C     C_R   0.387744 0.975769 0.476131 0.000000
C355  C     C_R   0.404984 0.986763 0.432352 0.000000
C356  C     C_R   0.416885 0.029572 0.410258 0.000000
C357  C     C_R   0.408112 0.061650 0.433204 0.000000
C358  C     C_R   0.391564 0.050500 0.477063 0.000000
N161  N     N_2   0.430533 0.038757 0.364526 0.000000
C359  C     C_R   0.468730 0.076873 0.341297 0.000000
N162  N     N_R   0.506115 0.101174 0.363457 0.000000
C360  C     C_R   0.540753 0.139052 0.344236 0.000000
N163  N     N_R   0.539783 0.154101 0.301159 0.000000
C361  C     C_R   0.506691 0.129476 0.278267 0.000000
N164  N     N_R   0.503305 0.140059 0.235438 0.000000
C362  C     C_R   0.468396 0.104421 0.226703 0.000000
N165  N     N_R   0.447590 0.072769 0.263158 0.000000
C363  C     C_R   0.472271 0.090381 0.295929 0.000000
H257  H     H_    0.368124 0.998948 0.532938 0.000000
H258  H     H_    0.378731 0.942102 0.492834 0.000000
H259  H     H_    0.410507 0.961446 0.415270 0.000000
H260  H     H_    0.409386 0.095910 0.417607 0.000000
H261  H     H_    0.384601 0.075715 0.494381 0.000000
H262  H     H_    0.413901 0.016377 0.348325 0.000000
H263  H     H_    0.568305 0.157703 0.363622 0.000000
H264  H     H_    0.453836 0.102775 0.194485 0.000000
C364  C     C_R   0.887071 0.285916 0.039232 0.000000
C365  C     C_R   0.814887 0.296787 0.026136 0.000000
C366  C     C_R   0.778495 0.329689 0.038684 0.000000
C367  C     C_R   0.811660 0.350143 0.066473 0.000000
C368  C     C_R   0.883899 0.338558 0.080129 0.000000
C369  C     C_R   0.921183 0.306653 0.066303 0.000000
N166  N     N_2   0.775179 0.386715 0.074605 0.000000
C370  C     C_R   0.790001 0.393694 0.115267 0.000000
N167  N     N_R   0.755108 0.368644 0.150814 0.000000
C371  C     C_R   0.783590 0.364318 0.190472 0.000000
N168  N     N_R   0.852935 0.379669 0.194395 0.000000
C372  C     C_R   0.887048 0.404436 0.158834 0.000000
N169  N     N_R   0.960171 0.414437 0.154484 0.000000
C373  C     C_R   0.967675 0.436102 0.111435 0.000000
N170  N     N_R   0.901456 0.438666 0.089726 0.000000
C374  C     C_R   0.853104 0.416307 0.120587 0.000000
H265  H     H_    0.915407 0.258404 0.032330 0.000000
H266  H     H_    0.784240 0.278624 0.007813 0.000000
H267  H     H_    0.723150 0.339174 0.027268 0.000000
H268  H     H_    0.914693 0.353432 0.101051 0.000000
H269  H     H_    0.976063 0.296570 0.078177 0.000000
H270  H     H_    0.793956 0.411979 0.050591 0.000000
H271  H     H_    0.754362 0.344393 0.218541 0.000000
H272  H     H_    0.020547 0.448146 0.095888 0.000000
C375  C     C_R   0.060418 0.613679 0.191665 0.000000
C376  C     C_R   0.106963 0.584489 0.217621 0.000000
C377  C     C_R   0.110441 0.542127 0.213887 0.000000
C378  C     C_R   0.067780 0.528936 0.183895 0.000000
C379  C     C_R   0.026401 0.559225 0.155463 0.000000
C380  C     C_R   0.022984 0.601614 0.159306 0.000000
N171  N     N_2   0.066957 0.484817 0.182214 0.000000
C381  C     C_R   0.140408 0.470311 0.178258 0.000000
N172  N     N_R   0.190639 0.496713 0.152726 0.000000
C382  C     C_R   0.263518 0.485699 0.152003 0.000000
N173  N     N_R   0.289961 0.451801 0.180913 0.000000
C383  C     C_R   0.240665 0.424325 0.204889 0.000000
N174  N     N_R   0.257390 0.382663 0.220119 0.000000
C384  C     C_R   0.186120 0.363711 0.224929 0.000000
N175  N     N_R   0.127637 0.392973 0.213309 0.000000
C385  C     C_R   0.165415 0.430866 0.200921 0.000000
H273  H     H_    0.057029 0.646711 0.195053 0.000000
H274  H     H_    0.139440 0.594646 0.241611 0.000000
H275  H     H_    0.145372 0.519240 0.235397 0.000000
H276  H     H_    0.995916 0.550022 0.130257 0.000000
H277  H     H_    0.990307 0.625380 0.137254 0.000000
H278  H     H_    0.035276 0.481019 0.157230 0.000000
H279  H     H_    0.300950 0.502685 0.126748 0.000000
H280  H     H_    0.177193 0.329212 0.232088 0.000000
C386  C     C_R   0.197244 0.331826 0.393550 0.000000
C387  C     C_R   0.153809 0.330988 0.430129 0.000000
C388  C     C_R   0.092542 0.357885 0.427777 0.000000
C389  C     C_R   0.072840 0.384060 0.388762 0.000000
C390  C     C_R   0.115895 0.384558 0.352029 0.000000
C391  C     C_R   0.179151 0.359440 0.354673 0.000000
N176  N     N_2   0.005988 0.408023 0.385614 0.000000
C392  C     C_R   0.953208 0.387177 0.365777 0.000000
N177  N     N_R   0.952536 0.343310 0.375673 0.000000
C393  C     C_R   0.933930 0.321765 0.345826 0.000000
N178  N     N_R   0.934736 0.343106 0.303857 0.000000
C394  C     C_R   0.937432 0.386427 0.295010 0.000000
N179  N     N_R   0.958527 0.413155 0.257285 0.000000
C395  C     C_R   0.947700 0.453634 0.266089 0.000000
N180  N     N_R   0.925888 0.451571 0.308714 0.000000
C396  C     C_R   0.927083 0.408227 0.326171 0.000000
H281  H     H_    0.244839 0.310463 0.395369 0.000000
H282  H     H_    0.167790 0.309136 0.460510 0.000000
H283  H     H_    0.058520 0.358209 0.456027 0.000000
H284  H     H_    0.100316 0.404584 0.321005 0.000000
H285  H     H_    0.212323 0.360287 0.325689 0.000000
H286  H     H_    0.015833 0.439101 0.367341 0.000000
H287  H     H_    0.932027 0.286841 0.354488 0.000000
H288  H     H_    0.955884 0.483921 0.242200 0.000000
C397  C     C_R   0.432884 0.097131 0.833612 0.000000
C398  C     C_R   0.442551 0.115891 0.867719 0.000000
C399  C     C_R   0.460882 0.090990 0.907715 0.000000
C400  C     C_R   0.463186 0.046300 0.915512 0.000000
C401  C     C_R   0.449460 0.027560 0.881434 0.000000
C402  C     C_R   0.437136 0.052754 0.840482 0.000000
N181  N     N_2   0.472491 0.021127 0.958643 0.000000
C403  C     C_R   0.508011 0.980756 0.962945 0.000000
N182  N     N_R   0.555702 0.974797 0.931306 0.000000
C404  C     C_R   0.585084 0.935680 0.931141 0.000000
N183  N     N_R   0.568046 0.900466 0.963237 0.000000
C405  C     C_R   0.524151 0.906162 0.996152 0.000000
N184  N     N_R   0.504635 0.874783 0.031108 0.000000
C406  C     C_R   0.470704 0.899086 0.056767 0.000000
N185  N     N_R   0.457725 0.943144 0.037040 0.000000
C407  C     C_R   0.494911 0.946000 0.998204 0.000000
H289  H     H_    0.419766 0.117001 0.802048 0.000000
H290  H     H_    0.434319 0.150352 0.863433 0.000000
H291  H     H_    0.470384 0.106880 0.933246 0.000000
H292  H     H_    0.448295 0.993070 0.886097 0.000000
H293  H     H_    0.427802 0.037503 0.814188 0.000000
H294  H     H_    0.497160 0.038558 0.977677 0.000000
H295  H     H_    0.620153 0.932621 0.904116 0.000000
H296  H     H_    0.463882 0.884927 0.090249 0.000000
C408  C     C_R   0.249346 0.800680 0.087458 0.000000
C409  C     C_R   0.275565 0.796991 0.127818 0.000000
C410  C     C_R   0.320114 0.828188 0.137004 0.000000
C411  C     C_R   0.326693 0.867794 0.107538 0.000000
C412  C     C_R   0.301248 0.871376 0.066474 0.000000
C413  C     C_R   0.266633 0.837125 0.055706 0.000000
N186  N     N_2   0.353860 0.906385 0.117034 0.000000
C414  C     C_R   0.377956 0.912012 0.156888 0.000000
N187  N     N_R   0.358583 0.882847 0.193556 0.000000
C415  C     C_R   0.362666 0.891240 0.232582 0.000000
N188  N     N_R   0.382117 0.931103 0.235721 0.000000
C416  C     C_R   0.404065 0.960417 0.200163 0.000000
N189  N     N_R   0.408816 0.002946 0.197914 0.000000
C417  C     C_R   0.418361 0.019951 0.153728 0.000000
N190  N     N_R   0.414654 0.989016 0.129354 0.000000
C418  C     C_R   0.405729 0.951673 0.160417 0.000000
H297  H     H_    0.218622 0.773896 0.081205 0.000000
H298  H     H_    0.264465 0.768495 0.152452 0.000000
H299  H     H_    0.341031 0.820997 0.168923 0.000000
H300  H     H_    0.308570 0.901495 0.042313 0.000000
H301  H     H_    0.251520 0.839812 0.022810 0.000000
H302  H     H_    0.352972 0.932993 0.092332 0.000000
H303  H     H_    0.344172 0.866836 0.260951 0.000000
H304  H     H_    0.422490 0.054505 0.139472 0.000000
C419  C     C_R   0.979141 0.882676 0.577645 0.000000
C420  C     C_R   0.019438 0.895629 0.539167 0.000000
C421  C     C_R   0.989375 0.890624 0.501285 0.000000
C422  C     C_R   0.918538 0.872305 0.501533 0.000000
C423  C     C_R   0.878078 0.860114 0.540313 0.000000
C424  C     C_R   0.908373 0.865100 0.578124 0.000000
N191  N     N_2   0.886704 0.867701 0.462471 0.000000
C425  C     C_R   0.893419 0.906991 0.431076 0.000000
N192  N     N_R   0.882779 0.943802 0.444240 0.000000
C426  C     C_R   0.898064 0.983158 0.418291 0.000000
N193  N     N_R   0.930372 0.987092 0.378735 0.000000
C427  C     C_R   0.940179 0.951057 0.364404 0.000000
N194  N     N_R   0.963682 0.950469 0.324032 0.000000
C428  C     C_R   0.946570 0.907118 0.324305 0.000000
N195  N     N_R   0.916799 0.880705 0.363372 0.000000
C429  C     C_R   0.915556 0.910521 0.388202 0.000000
H305  H     H_    0.002760 0.886664 0.607304 0.000000
H306  H     H_    0.074761 0.909809 0.538620 0.000000
H307  H     H_    0.022156 0.901368 0.471538 0.000000
H308  H     H_    0.821695 0.847626 0.541594 0.000000
H309  H     H_    0.876065 0.855480 0.608149 0.000000
H310  H     H_    0.830807 0.860728 0.467967 0.000000
H311  H     H_    0.882504 0.011457 0.429412 0.000000
H312  H     H_    0.960257 0.895194 0.296596 0.000000
C430  C     C_R   0.012501 0.050992 0.490502 0.000000
C431  C     C_R   0.072038 0.025494 0.484121 0.000000
C432  C     C_R   0.090022 0.020659 0.443212 0.000000
C433  C     C_R   0.049562 0.042099 0.407731 0.000000
C434  C     C_R   0.988738 0.066665 0.414849 0.000000
C435  C     C_R   0.970629 0.071320 0.455904 0.000000
N196  N     N_2   0.065515 0.036328 0.365369 0.000000
C436  C     C_R   0.141109 0.044205 0.351708 0.000000
N197  N     N_R   0.186858 0.062057 0.375565 0.000000
C437  C     C_R   0.260443 0.068634 0.365731 0.000000
N198  N     N_R   0.292136 0.055933 0.332129 0.000000
C438  C     C_R   0.248451 0.038122 0.307809 0.000000
N199  N     N_R   0.271922 0.025115 0.272493 0.000000
C439  C     C_R   0.202816 0.019569 0.255194 0.000000
N200  N     N_R   0.139703 0.020339 0.282491 0.000000
C440  C     C_R   0.171958 0.034001 0.315042 0.000000
H313  H     H_    0.998067 0.054579 0.522615 0.000000
H314  H     H_    0.104682 0.009067 0.511273 0.000000
H315  H     H_    0.137103 0.000506 0.439551 0.000000
H316  H     H_    0.953496 0.081649 0.388354 0.000000
H317  H     H_    0.922647 0.090375 0.461084 0.000000
H318  H     H_    0.028829 0.051420 0.342217 0.000000
H319  H     H_    0.293455 0.085092 0.384606 0.000000
H320  H     H_    0.198507 0.018012 0.222107 0.000000
C441  C     C_R   0.761570 0.929644 0.863510 0.000000
C442  C     C_R   0.770850 0.929263 0.906383 0.000000
C443  C     C_R   0.795315 0.892211 0.934865 0.000000
C444  C     C_R   0.809698 0.855040 0.920781 0.000000
C445  C     C_R   0.797184 0.855024 0.878229 0.000000
C446  C     C_R   0.774850 0.892480 0.849416 0.000000
N201  N     N_2   0.840403 0.818348 0.949491 0.000000
C447  C     C_R   0.785028 0.786906 0.965267 0.000000
N202  N     N_R   0.747998 0.769742 0.937014 0.000000
C448  C     C_R   0.675643 0.757100 0.944759 0.000000
N203  N     N_R   0.635631 0.768410 0.976826 0.000000
C449  C     C_R   0.673149 0.785120 0.004777 0.000000
N204  N     N_R   0.642998 0.799576 0.037424 0.000000
C450  C     C_R   0.707338 0.808454 0.058103 0.000000
N205  N     N_R   0.775135 0.800412 0.038228 0.000000
C451  C     C_R   0.749028 0.787825 0.003439 0.000000
H321  H     H_    0.743037 0.958897 0.841127 0.000000
H322  H     H_    0.759326 0.958199 0.917655 0.000000
H323  H     H_    0.803856 0.892633 0.968135 0.000000
H324  H     H_    0.806838 0.826117 0.866887 0.000000
H325  H     H_    0.766801 0.892501 0.815929 0.000000
H326  H     H_    0.860870 0.827739 0.975507 0.000000
H327  H     H_    0.647515 0.742792 0.921972 0.000000
H328  H     H_    0.704663 0.820342 0.087101 0.000000
C452  C     C_R   0.607412 0.664949 0.037496 0.000000
C453  C     C_R   0.678115 0.658979 0.022537 0.000000
C454  C     C_R   0.738780 0.673757 0.039942 0.000000
C455  C     C_R   0.728041 0.695172 0.072247 0.000000
C456  C     C_R   0.656828 0.701625 0.086933 0.000000
C457  C     C_R   0.596472 0.686714 0.069485 0.000000
N206  N     N_2   0.788183 0.717410 0.084302 0.000000
C458  C     C_R   0.802339 0.707087 0.128300 0.000000
N207  N     N_R   0.760949 0.677144 0.156900 0.000000
C459  C     C_R   0.782387 0.662530 0.198204 0.000000
N208  N     N_R   0.849319 0.674386 0.210790 0.000000
C460  C     C_R   0.891156 0.703187 0.181844 0.000000
N209  N     N_R   0.961629 0.715403 0.186982 0.000000
C461  C     C_R   0.976614 0.743389 0.146259 0.000000
N210  N     N_R   0.916872 0.750265 0.117752 0.000000
C462  C     C_R   0.866372 0.721878 0.141566 0.000000
H329  H     H_    0.561248 0.650634 0.024871 0.000000
H330  H     H_    0.685375 0.640960 0.998471 0.000000
H331  H     H_    0.793989 0.668449 0.027818 0.000000
H332  H     H_    0.647668 0.720697 0.110203 0.000000
H333  H     H_    0.541388 0.693178 0.080613 0.000000
H334  H     H_    0.835886 0.718841 0.065479 0.000000
H335  H     H_    0.749079 0.637870 0.219955 0.000000
H336  H     H_    0.031370 0.757399 0.137161 0.000000
C463  C     C_R   0.078616 0.951035 0.826252 0.000000
C464  C     C_R   0.130770 0.930012 0.854548 0.000000
C465  C     C_R   0.108694 0.903395 0.893936 0.000000
C466  C     C_R   0.033092 0.894219 0.903806 0.000000
C467  C     C_R   0.981212 0.916324 0.875503 0.000000
C468  C     C_R   0.003800 0.944634 0.837054 0.000000
N211  N     N_2   0.008608 0.861472 0.940896 0.000000
C469  C     C_R   0.029794 0.819016 0.938252 0.000000
N212  N     N_R   0.081895 0.817443 0.907096 0.000000
C470  C     C_R   0.104279 0.781042 0.896547 0.000000
N213  N     N_R   0.069893 0.743820 0.914797 0.000000
C471  C     C_R   0.017527 0.743200 0.945505 0.000000
N214  N     N_R   0.978415 0.707494 0.962705 0.000000
C472  C     C_R   0.938989 0.720658 0.995990 0.000000
N215  N     N_R   0.949151 0.764526 0.997840 0.000000
C473  C     C_R   0.997657 0.778592 0.961902 0.000000
H337  H     H_    0.096296 0.971788 0.795343 0.000000
H338  H     H_    0.189047 0.933215 0.844989 0.000000
H339  H     H_    0.151333 0.886906 0.915166 0.000000
H340  H     H_    0.922478 0.910358 0.882281 0.000000
H341  H     H_    0.962759 0.960137 0.814124 0.000000
H342  H     H_    0.954644 0.865166 0.950518 0.000000
H343  H     H_    0.144005 0.782275 0.870190 0.000000
H344  H     H_    0.906876 0.697528 0.019808 0.000000
C474  C     C_R   0.610203 0.661019 0.883517 0.000000
C475  C     C_R   0.594231 0.644204 0.926448 0.000000
C476  C     C_R   0.588063 0.599887 0.942368 0.000000
C477  C     C_R   0.587682 0.572003 0.914958 0.000000
C478  C     C_R   0.600801 0.589942 0.871017 0.000000
C479  C     C_R   0.613364 0.633874 0.855973 0.000000
N216  N     N_2   0.577632 0.526496 0.933745 0.000000
C480  C     C_R   0.537073 0.500539 0.911605 0.000000
N217  N     N_R   0.554381 0.502786 0.869806 0.000000
C481  C     C_R   0.525177 0.475218 0.848508 0.000000
N218  N     N_R   0.477427 0.443686 0.868900 0.000000
C482  C     C_R   0.455254 0.441723 0.909318 0.000000
N219  N     N_R   0.411029 0.410218 0.933712 0.000000
C483  C     C_R   0.418090 0.418921 0.974102 0.000000
N220  N     N_R   0.465594 0.453470 0.974615 0.000000
C484  C     C_R   0.486883 0.467753 0.932513 0.000000
H345  H     H_    0.622982 0.695209 0.871689 0.000000
H346  H     H_    0.591002 0.665749 0.947835 0.000000
H347  H     H_    0.582207 0.587355 0.976876 0.000000
H348  H     H_    0.606618 0.571371 0.847252 0.000000
H349  H     H_    0.628340 0.646997 0.822384 0.000000
H350  H     H_    0.562280 0.520231 0.965598 0.000000
H351  H     H_    0.542210 0.477487 0.815248 0.000000
H352  H     H_    0.389404 0.400954 0.002922 0.000000
C485  C     C_R   0.217577 0.182061 0.808801 0.000000
C486  C     C_R   0.183434 0.221701 0.794733 0.000000
C487  C     C_R   0.206730 0.256844 0.809512 0.000000
C488  C     C_R   0.265348 0.252791 0.837414 0.000000
C489  C     C_R   0.298234 0.212717 0.852361 0.000000
C490  C     C_R   0.273729 0.177424 0.838233 0.000000
N221  N     N_2   0.294438 0.290219 0.848022 0.000000
C491  C     C_R   0.349271 0.308078 0.816267 0.000000
N222  N     N_R   0.369674 0.284900 0.787531 0.000000
C492  C     C_R   0.417640 0.300705 0.754025 0.000000
N223  N     N_R   0.442903 0.341962 0.746345 0.000000
C493  C     C_R   0.420631 0.366167 0.773366 0.000000
N224  N     N_R   0.435889 0.408496 0.768609 0.000000
C494  C     C_R   0.405762 0.415442 0.806373 0.000000
N225  N     N_R   0.376351 0.378640 0.835348 0.000000
C495  C     C_R   0.378335 0.349698 0.810022 0.000000
H353  H     H_    0.200459 0.154571 0.796799 0.000000
H354  H     H_    0.138935 0.225240 0.771851 0.000000
H355  H     H_    0.180176 0.287953 0.798786 0.000000
H356  H     H_    0.344826 0.209311 0.873841 0.000000
H357  H     H_    0.299521 0.146210 0.849418 0.000000
H358  H     H_    0.315460 0.283796 0.878542 0.000000
H359  H     H_    0.433093 0.280588 0.732385 0.000000
H360  H     H_    0.405176 0.447343 0.811028 0.000000
C496  C     C_R   0.626944 0.605731 0.652416 0.000000
C497  C     C_R   0.703857 0.602764 0.651970 0.000000
C498  C     C_R   0.737047 0.564165 0.650863 0.000000
C499  C     C_R   0.692986 0.528443 0.651537 0.000000
C500  C     C_R   0.616263 0.531824 0.650662 0.000000
C501  C     C_R   0.583521 0.570991 0.649329 0.000000
N226  N     N_2   0.726051 0.488471 0.651748 0.000000
C502  C     C_R   0.778098 0.493291 0.618397 0.000000
N227  N     N_R   0.753189 0.509444 0.578492 0.000000
C503  C     C_R   0.797695 0.512352 0.543582 0.000000
N228  N     N_R   0.868635 0.499168 0.547823 0.000000
C504  C     C_R   0.892184 0.480651 0.587177 0.000000
N229  N     N_R   0.957437 0.460876 0.594345 0.000000
C505  C     C_R   0.953432 0.444299 0.638835 0.000000
N230  N     N_R   0.886872 0.453813 0.658408 0.000000
C506  C     C_R   0.849358 0.476362 0.623411 0.000000
H361  H     H_    0.600125 0.635198 0.655164 0.000000
H362  H     H_    0.738425 0.630469 0.652409 0.000000
H363  H     H_    0.797294 0.561979 0.650252 0.000000
H364  H     H_    0.580928 0.504225 0.650646 0.000000
H365  H     H_    0.523246 0.573553 0.647904 0.000000
H366  H     H_    0.684925 0.468647 0.645024 0.000000
H367  H     H_    0.774223 0.520513 0.512238 0.000000
H368  H     H_    0.999243 0.427016 0.656608 0.000000
C507  C     C_R   0.470955 0.279042 0.594990 0.000000
C508  C     C_R   0.458109 0.323075 0.581271 0.000000
C509  C     C_R   0.478029 0.350674 0.606618 0.000000
C510  C     C_R   0.512026 0.334515 0.645657 0.000000
C511  C     C_R   0.523837 0.290101 0.659506 0.000000
C512  C     C_R   0.503604 0.262556 0.634181 0.000000
N231  N     N_2   0.528818 0.362816 0.672497 0.000000
C513  C     C_R   0.605525 0.366550 0.680064 0.000000
N232  N     N_R   0.654144 0.340009 0.666227 0.000000
C514  C     C_R   0.728686 0.342354 0.670979 0.000000
N233  N     N_R   0.757828 0.371757 0.690073 0.000000
C515  C     C_R   0.710687 0.397725 0.705028 0.000000
N234  N     N_R   0.731640 0.428663 0.724426 0.000000
C516  C     C_R   0.663287 0.447075 0.731832 0.000000
N235  N     N_R   0.602263 0.429316 0.716254 0.000000
C517  C     C_R   0.634653 0.397129 0.700184 0.000000
H369  H     H_    0.455092 0.257444 0.575142 0.000000
H370  H     H_    0.432073 0.336006 0.550640 0.000000
H371  H     H_    0.467072 0.385020 0.595426 0.000000
H372  H     H_    0.548478 0.276605 0.690454 0.000000
H373  H     H_    0.513134 0.227961 0.645173 0.000000
H374  H     H_    0.504144 0.392317 0.663535 0.000000
H375  H     H_    0.765079 0.320900 0.658557 0.000000
H376  H     H_    0.658100 0.476110 0.743590 0.000000
C518  C     C_R   0.766851 0.586540 0.956682 0.000000
C519  C     C_R   0.767000 0.626062 0.927616 0.000000
C520  C     C_R   0.773314 0.627521 0.884677 0.000000
C521  C     C_R   0.786026 0.590381 0.870574 0.000000
C522  C     C_R   0.799380 0.552033 0.900447 0.000000
C523  C     C_R   0.787521 0.550140 0.943322 0.000000
N236  N     N_2   0.789086 0.593389 0.825804 0.000000
C524  C     C_R   0.773960 0.554984 0.812851 0.000000
N237  N     N_R   0.722720 0.525614 0.834182 0.000000
C525  C     C_R   0.715282 0.486575 0.824542 0.000000
N238  N     N_R   0.761237 0.475119 0.795112 0.000000
C526  C     C_R   0.810293 0.504624 0.773416 0.000000
N239  N     N_R   0.850996 0.501300 0.738713 0.000000
C527  C     C_R   0.879558 0.542715 0.723740 0.000000
N240  N     N_R   0.857675 0.570629 0.748858 0.000000
C528  C     C_R   0.814640 0.544841 0.779954 0.000000
H377  H     H_    0.757279 0.584843 0.990387 0.000000
H378  H     H_    0.757162 0.655733 0.937779 0.000000
H379  H     H_    0.762930 0.657958 0.862424 0.000000
H380  H     H_    0.817944 0.523046 0.891321 0.000000
H381  H     H_    0.797987 0.520443 0.966480 0.000000
H382  H     H_    0.761576 0.620139 0.808922 0.000000
H383  H     H_    0.673133 0.463754 0.840961 0.000000
H384  H     H_    0.910561 0.552757 0.693542 0.000000
C529  C     C_R   0.829916 0.534379 0.218876 0.000000
C530  C     C_R   0.853335 0.570878 0.188327 0.000000
C531  C     C_R   0.850461 0.572246 0.144860 0.000000
C532  C     C_R   0.828779 0.535755 0.132081 0.000000
C533  C     C_R   0.804038 0.499507 0.162737 0.000000
C534  C     C_R   0.804908 0.498627 0.206055 0.000000
N241  N     N_2   0.827590 0.536054 0.087848 0.000000
C535  C     C_R   0.753592 0.541595 0.074347 0.000000
N242  N     N_R   0.711233 0.569703 0.089706 0.000000
C536  C     C_R   0.637544 0.573215 0.082555 0.000000
N243  N     N_R   0.603073 0.547414 0.061096 0.000000
C537  C     C_R   0.642595 0.517287 0.048053 0.000000
N244  N     N_R   0.613950 0.484689 0.032902 0.000000
C538  C     C_R   0.679320 0.463718 0.025262 0.000000
N245  N     N_R   0.745468 0.482352 0.035827 0.000000
C539  C     C_R   0.718244 0.514736 0.052351 0.000000
H385  H     H_    0.831956 0.533592 0.252838 0.000000
H386  H     H_    0.876190 0.597940 0.198651 0.000000
H387  H     H_    0.867898 0.601236 0.120887 0.000000
H388  H     H_    0.781011 0.472212 0.152880 0.000000
H389  H     H_    0.785676 0.469969 0.229932 0.000000
H390  H     H_    0.849401 0.508404 0.082082 0.000000
H391  H     H_    0.604888 0.594726 0.097135 0.000000
H392  H     H_    0.677964 0.434880 0.012975 0.000000
C540  C     C_R   0.032999 0.459252 0.865897 0.000000
C541  C     C_R   0.975512 0.484617 0.875255 0.000000
C542  C     C_R   0.991676 0.524409 0.882489 0.000000
C543  C     C_R   0.064672 0.539006 0.878811 0.000000
C544  C     C_R   0.119492 0.516242 0.862948 0.000000
C545  C     C_R   0.104035 0.475773 0.857283 0.000000
N246  N     N_2   0.084611 0.571467 0.899582 0.000000
C546  C     C_R   0.088049 0.551387 0.943292 0.000000
N247  N     N_R   0.121763 0.512246 0.953649 0.000000
C547  C     C_R   0.093418 0.478827 0.984613 0.000000
N248  N     N_R   0.026256 0.482766 0.003381 0.000000
C548  C     C_R   0.994926 0.522134 0.994474 0.000000
N249  N     N_R   0.925854 0.530484 0.006736 0.000000
C549  C     C_R   0.923737 0.575698 0.991782 0.000000
N250  N     N_R   0.984915 0.593735 0.965561 0.000000
C550  C     C_R   0.028798 0.558029 0.968897 0.000000
H393  H     H_    0.023399 0.426505 0.864682 0.000000
H394  H     H_    0.918681 0.472505 0.879426 0.000000
H395  H     H_    0.948438 0.542378 0.894608 0.000000
H396  H     H_    0.175484 0.528549 0.858459 0.000000
H397  H     H_    0.147274 0.456424 0.846988 0.000000
H398  H     H_    0.043258 0.594287 0.895914 0.000000
H399  H     H_    0.121636 0.447817 0.991637 0.000000
H400  H     H_    0.879001 0.595438 0.999507 0.000000
C551  C     C_R   0.134109 0.568605 0.043266 0.000000
C552  C     C_R   0.198691 0.580354 0.019170 0.000000
C553  C     C_R   0.251577 0.549980 0.016010 0.000000
C554  C     C_R   0.241645 0.506563 0.035711 0.000000
C555  C     C_R   0.176026 0.494954 0.060947 0.000000
C556  C     C_R   0.123544 0.525975 0.064580 0.000000
N251  N     N_2   0.296466 0.476512 0.026761 0.000000
C557  C     C_R   0.303130 0.436872 0.057897 0.000000
N252  N     N_R   0.243019 0.410049 0.067529 0.000000
C558  C     C_R   0.235506 0.380328 0.105649 0.000000
N253  N     N_R   0.286705 0.378549 0.136029 0.000000
C559  C     C_R   0.348799 0.403041 0.125405 0.000000
N254  N     N_R   0.404848 0.404305 0.151918 0.000000
C560  C     C_R   0.460298 0.424844 0.123218 0.000000
N255  N     N_R   0.435871 0.442822 0.081674 0.000000
C561  C     C_R   0.363252 0.428302 0.085162 0.000000
H401  H     H_    0.091988 0.592553 0.045431 0.000000
H402  H     H_    0.209087 0.613425 0.002747 0.000000
H403  H     H_    0.299800 0.560703 0.995980 0.000000
H404  H     H_    0.160984 0.462497 0.078009 0.000000
H405  H     H_    0.072585 0.516571 0.083470 0.000000
H406  H     H_    0.347192 0.490859 0.016182 0.000000
H407  H     H_    0.185571 0.360179 0.112992 0.000000
H408  H     H_    0.517491 0.423516 0.132162 0.000000
C562  C     C_R   0.460709 0.215483 0.400467 0.000000
C563  C     C_R   0.504111 0.252081 0.383966 0.000000
C564  C     C_R   0.473863 0.287695 0.355892 0.000000
C565  C     C_R   0.399681 0.286991 0.344390 0.000000
C566  C     C_R   0.356637 0.249929 0.360621 0.000000
C567  C     C_R   0.387195 0.214332 0.388593 0.000000
N256  N     N_2   0.367941 0.323996 0.316557 0.000000
C568  C     C_R   0.379900 0.361199 0.331767 0.000000
N257  N     N_R   0.372394 0.357860 0.374693 0.000000
C569  C     C_R   0.389990 0.391090 0.392204 0.000000
N258  N     N_R   0.419824 0.427968 0.367223 0.000000
C570  C     C_R   0.428270 0.431680 0.324643 0.000000
N259  N     N_R   0.459430 0.465833 0.296256 0.000000
C571  C     C_R   0.450382 0.453862 0.257379 0.000000
N260  N     N_R   0.417203 0.413122 0.261705 0.000000
C572  C     C_R   0.405734 0.400095 0.305375 0.000000
H409  H     H_    0.484399 0.187612 0.422566 0.000000
H410  H     H_    0.561937 0.252904 0.393097 0.000000
H411  H     H_    0.508689 0.316162 0.343252 0.000000
H412  H     H_    0.298577 0.248575 0.352124 0.000000
H413  H     H_    0.353353 0.185515 0.401430 0.000000
H414  H     H_    0.311398 0.319415 0.314457 0.000000
H415  H     H_    0.383157 0.387405 0.426684 0.000000
H416  H     H_    0.466819 0.474284 0.226431 0.000000
C573  C     C_R   0.747724 0.275321 0.581625 0.000000
C574  C     C_R   0.702249 0.310958 0.578085 0.000000
C575  C     C_R   0.733261 0.352123 0.570707 0.000000
C576  C     C_R   0.810314 0.358396 0.564190 0.000000
C577  C     C_R   0.855403 0.322233 0.569099 0.000000
C578  C     C_R   0.824321 0.280961 0.577977 0.000000
N261  N     N_2   0.844060 0.400577 0.553927 0.000000
C579  C     C_R   0.818125 0.428356 0.515348 0.000000
N262  N     N_R   0.744316 0.429416 0.506929 0.000000
C580  C     C_R   0.718010 0.449817 0.468129 0.000000
N263  N     N_R   0.766063 0.465928 0.434844 0.000000
C581  C     C_R   0.839390 0.465505 0.442408 0.000000
N264  N     N_R   0.894754 0.476019 0.412092 0.000000
C582  C     C_R   0.956534 0.470000 0.438303 0.000000
N265  N     N_R   0.941508 0.459878 0.482665 0.000000
C583  C     C_R   0.866334 0.452162 0.483220 0.000000
H417  H     H_    0.723476 0.243000 0.587959 0.000000
H418  H     H_    0.642170 0.306608 0.582211 0.000000
H419  H     H_    0.696121 0.378849 0.571477 0.000000
H420  H     H_    0.915470 0.326018 0.565730 0.000000
H421  H     H_    0.860156 0.252961 0.580888 0.000000
H422  H     H_    0.901671 0.399389 0.554279 0.000000
H423  H     H_    0.658379 0.450027 0.462858 0.000000
H424  H     H_    0.010567 0.466157 0.425940 0.000000
C584  C     C_R   0.793209 0.257605 0.456728 0.000000
C585  C     C_R   0.835257 0.288115 0.470020 0.000000
C586  C     C_R   0.833202 0.331297 0.448045 0.000000
C587  C     C_R   0.792351 0.343750 0.410933 0.000000
C588  C     C_R   0.755429 0.312243 0.395628 0.000000
C589  C     C_R   0.753496 0.269635 0.419355 0.000000
N266  N     N_2   0.793064 0.387834 0.387195 0.000000
C590  C     C_R   0.721115 0.405680 0.382810 0.000000
N267  N     N_R   0.662765 0.380869 0.402825 0.000000
C591  C     C_R   0.591467 0.394607 0.398992 0.000000
N268  N     N_R   0.576174 0.433924 0.373822 0.000000
C592  C     C_R   0.633142 0.459169 0.353989 0.000000
N269  N     N_R   0.624749 0.499065 0.329100 0.000000
C593  C     C_R   0.699266 0.511820 0.318753 0.000000
N270  N     N_R   0.752136 0.482036 0.338650 0.000000
C594  C     C_R   0.706670 0.447676 0.358882 0.000000
H425  H     H_    0.792751 0.224117 0.475187 0.000000
H426  H     H_    0.869906 0.278066 0.497771 0.000000
H427  H     H_    0.865209 0.354999 0.459552 0.000000
H428  H     H_    0.725988 0.321110 0.365610 0.000000
H429  H     H_    0.721770 0.245573 0.408257 0.000000
H430  H     H_    0.829386 0.407030 0.398567 0.000000
H431  H     H_    0.546541 0.373616 0.415621 0.000000
H432  H     H_    0.716216 0.542392 0.297767 0.000000
C595  C     C_R   0.723767 0.600663 0.494577 0.000000
C596  C     C_R   0.798161 0.603926 0.482151 0.000000
C597  C     C_R   0.821555 0.587266 0.448267 0.000000
C598  C     C_R   0.770932 0.567675 0.427128 0.000000
C599  C     C_R   0.696201 0.565911 0.438556 0.000000
C600  C     C_R   0.672484 0.584247 0.471042 0.000000
N271  N     N_2   0.794041 0.556017 0.389419 0.000000
C601  C     C_R   0.814635 0.594213 0.359475 0.000000
N272  N     N_R   0.784327 0.632223 0.363180 0.000000
C602  C     C_R   0.807277 0.670418 0.337157 0.000000
N273  N     N_R   0.865145 0.671626 0.308849 0.000000
C603  C     C_R   0.897615 0.634231 0.306628 0.000000
N274  N     N_R   0.956849 0.630395 0.281146 0.000000
C604  C     C_R   0.956815 0.585040 0.286398 0.000000
N275  N     N_R   0.904004 0.561818 0.316643 0.000000
C605  C     C_R   0.869224 0.595033 0.328651 0.000000
H433  H     H_    0.706693 0.610925 0.523018 0.000000
H434  H     H_    0.837748 0.618214 0.499763 0.000000
H435  H     H_    0.879101 0.589954 0.437527 0.000000
H436  H     H_    0.655197 0.552876 0.420630 0.000000
H437  H     H_    0.613189 0.586313 0.476718 0.000000
H438  H     H_    0.750595 0.541453 0.378209 0.000000
H439  H     H_    0.781296 0.700243 0.340521 0.000000
H440  H     H_    0.992528 0.568831 0.268092 0.000000
C606  C     C_R   0.451216 0.825706 0.591355 0.000000
C607  C     C_R   0.486199 0.789105 0.584947 0.000000
C608  C     C_R   0.522731 0.789369 0.546781 0.000000
C609  C     C_R   0.526183 0.826541 0.514147 0.000000
C610  C     C_R   0.492672 0.863876 0.521077 0.000000
C611  C     C_R   0.456135 0.863588 0.559691 0.000000
N276  N     N_2   0.552818 0.823719 0.472660 0.000000
C612  C     C_R   0.626072 0.808439 0.469960 0.000000
N277  N     N_R   0.668851 0.801115 0.505186 0.000000
C613  C     C_R   0.742418 0.791906 0.503070 0.000000
N278  N     N_R   0.776623 0.792043 0.464859 0.000000
C614  C     C_R   0.735101 0.799689 0.429618 0.000000
N279  N     N_R   0.761703 0.803081 0.389268 0.000000
C615  C     C_R   0.695285 0.805855 0.366669 0.000000
N280  N     N_R   0.630884 0.810566 0.390927 0.000000
C616  C     C_R   0.659315 0.805425 0.431115 0.000000
H441  H     H_    0.421955 0.824979 0.621452 0.000000
H442  H     H_    0.487302 0.759946 0.610021 0.000000
H443  H     H_    0.546138 0.759674 0.542042 0.000000
H444  H     H_    0.491376 0.893486 0.496653 0.000000
H445  H     H_    0.429564 0.892756 0.564577 0.000000
H446  H     H_    0.535552 0.845970 0.445979 0.000000
H447  H     H_    0.774312 0.784821 0.532189 0.000000
H448  H     H_    0.693880 0.807106 0.332623 0.000000
C617  C     C_R   0.134682 0.765222 0.318608 0.000000
C618  C     C_R   0.123508 0.809015 0.306625 0.000000
C619  C     C_R   0.080511 0.827893 0.332296 0.000000
C620  C     C_R   0.058577 0.806749 0.372835 0.000000
C621  C     C_R   0.069586 0.762160 0.385756 0.000000
C622  C     C_R   0.104545 0.741460 0.357389 0.000000
N281  N     N_2   0.031552 0.833681 0.399168 0.000000
C623  C     C_R   0.031701 0.817040 0.443283 0.000000
N282  N     N_R   0.087642 0.827043 0.466713 0.000000
C624  C     C_R   0.096908 0.803298 0.507382 0.000000
N283  N     N_R   0.056923 0.766333 0.522092 0.000000
C625  C     C_R   0.000637 0.757962 0.498517 0.000000
N284  N     N_R   0.967440 0.719353 0.502664 0.000000
C626  C     C_R   0.921505 0.728081 0.466651 0.000000
N285  N     N_R   0.928163 0.770259 0.440676 0.000000
C627  C     C_R   0.981270 0.786357 0.461730 0.000000
H449  H     H_    0.171037 0.750491 0.299126 0.000000
H450  H     H_    0.149681 0.829756 0.278372 0.000000
H451  H     H_    0.067326 0.860839 0.322061 0.000000
H452  H     H_    0.056466 0.742608 0.417661 0.000000
H453  H     H_    0.116678 0.707432 0.368110 0.000000
H454  H     H_    0.061661 0.861721 0.392349 0.000000
H455  H     H_    0.141985 0.811161 0.526197 0.000000
H456  H     H_    0.886725 0.703687 0.458098 0.000000
C628  C     C_R   0.175584 0.879197 0.144205 0.000000
C629  C     C_R   0.115595 0.870499 0.122668 0.000000
C630  C     C_R   0.066078 0.838919 0.142857 0.000000
C631  C     C_R   0.084184 0.812967 0.182080 0.000000
C632  C     C_R   0.149786 0.818126 0.200507 0.000000
C633  C     C_R   0.189880 0.854651 0.184632 0.000000
N286  N     N_2   0.034440 0.781988 0.205166 0.000000
C634  C     C_R   0.977703 0.800741 0.225203 0.000000
N287  N     N_R   0.954887 0.841953 0.208891 0.000000
C635  C     C_R   0.908619 0.861831 0.232359 0.000000
N288  N     N_R   0.891527 0.842675 0.274257 0.000000
C636  C     C_R   0.919011 0.803008 0.290603 0.000000
N289  N     N_R   0.913731 0.780155 0.331713 0.000000
C637  C     C_R   0.942451 0.740401 0.328548 0.000000
N290  N     N_R   0.968557 0.739043 0.287220 0.000000
C638  C     C_R   0.954229 0.780129 0.265431 0.000000
H457  H     H_    0.211966 0.905216 0.128318 0.000000
H458  H     H_    0.107884 0.890007 0.091122 0.000000
H459  H     H_    0.014312 0.833859 0.128297 0.000000
H460  H     H_    0.167477 0.795508 0.229156 0.000000
H461  H     H_    0.234238 0.861608 0.203378 0.000000
H462  H     H_    0.062047 0.758937 0.227216 0.000000
H463  H     H_    0.889286 0.894398 0.218323 0.000000
H464  H     H_    0.940937 0.713000 0.355673 0.000000
C639  C     C_R   0.680676 0.975085 0.516172 0.000000
C640  C     C_R   0.703095 0.935245 0.510504 0.000000
C641  C     C_R   0.669421 0.917516 0.480253 0.000000
C642  C     C_R   0.614248 0.939825 0.454427 0.000000
C643  C     C_R   0.591137 0.979524 0.461076 0.000000
C644  C     C_R   0.624479 0.997161 0.491482 0.000000
N291  N     N_2   0.578147 0.919877 0.424750 0.000000
C645  C     C_R   0.581372 0.943642 0.381521 0.000000
N292  N     N_R   0.614831 0.983186 0.371886 0.000000
C646  C     C_R   0.603014 0.012882 0.334747 0.000000
N293  N     N_R   0.547351 0.006736 0.309503 0.000000
C647  C     C_R   0.511087 0.968582 0.319850 0.000000
N294  N     N_R   0.447548 0.960365 0.302179 0.000000
C648  C     C_R   0.439901 0.915784 0.320416 0.000000
N295  N     N_R   0.493764 0.896884 0.350370 0.000000
C649  C     C_R   0.534184 0.933705 0.351342 0.000000
H465  H     H_    0.706973 0.988910 0.539969 0.000000
H466  H     H_    0.747018 0.917789 0.529967 0.000000
H467  H     H_    0.688287 0.886606 0.475806 0.000000
H468  H     H_    0.548629 0.997907 0.441713 0.000000
H469  H     H_    0.606603 0.028480 0.495802 0.000000
H470  H     H_    0.521993 0.915514 0.432083 0.000000
H471  H     H_    0.630885 0.044010 0.328463 0.000000
H472  H     H_    0.394504 0.898006 0.312262 0.000000
C650  C     C_R   0.616630 0.515453 0.211200 0.000000
C651  C     C_R   0.622180 0.486799 0.185415 0.000000
C652  C     C_R   0.577949 0.491994 0.150074 0.000000
C653  C     C_R   0.520263 0.521962 0.142655 0.000000
C654  C     C_R   0.513019 0.549255 0.170677 0.000000
C655  C     C_R   0.563768 0.547498 0.202678 0.000000
N296  N     N_2   0.471980 0.522975 0.107094 0.000000
C656  C     C_R   0.454957 0.563902 0.078941 0.000000
N297  N     N_R   0.449457 0.599097 0.094779 0.000000
C657  C     C_R   0.429762 0.638080 0.070816 0.000000
N298  N     N_R   0.414883 0.644379 0.028544 0.000000
C658  C     C_R   0.422104 0.610347 0.011035 0.000000
N299  N     N_R   0.415921 0.611431 0.968711 0.000000
C659  C     C_R   0.434055 0.568929 0.968489 0.000000
N300  N     N_R   0.452543 0.542967 0.008614 0.000000
C660  C     C_R   0.442842 0.570170 0.034916 0.000000
H473  H     H_    0.654132 0.513203 0.237487 0.000000
H474  H     H_    0.663362 0.461270 0.191625 0.000000
H475  H     H_    0.592037 0.473479 0.127026 0.000000
H476  H     H_    0.469936 0.572966 0.168618 0.000000
H477  H     H_    0.560743 0.570995 0.221705 0.000000
H478  H     H_    0.423157 0.506590 0.118245 0.000000
H479  H     H_    0.430112 0.664326 0.086099 0.000000
H480  H     H_    0.435021 0.557225 0.939471 0.000000
C661  C     C_R   0.258755 0.583548 0.122315 0.000000
C662  C     C_R   0.202832 0.612101 0.124669 0.000000
C663  C     C_R   0.210632 0.640008 0.150826 0.000000
C664  C     C_R   0.274888 0.637931 0.173909 0.000000
C665  C     C_R   0.320249 0.602603 0.179473 0.000000
C666  C     C_R   0.313167 0.575792 0.152736 0.000000
N301  N     N_2   0.306857 0.676064 0.179335 0.000000
C667  C     C_R   0.332820 0.701387 0.139224 0.000000
N302  N     N_R   0.304240 0.696713 0.101892 0.000000
C668  C     C_R   0.331821 0.718923 0.063063 0.000000
N303  N     N_R   0.390073 0.745910 0.060408 0.000000
C669  C     C_R   0.419349 0.750043 0.096871 0.000000
N304  N     N_R   0.479523 0.773770 0.099057 0.000000
C670  C     C_R   0.486380 0.765869 0.143396 0.000000
N305  N     N_R   0.430449 0.738908 0.168154 0.000000
C671  C     C_R   0.392096 0.728592 0.136403 0.000000
H481  H     H_    0.257742 0.565994 0.097620 0.000000
H482  H     H_    0.156891 0.614670 0.103511 0.000000
H483  H     H_    0.174124 0.667852 0.147129 0.000000
H484  H     H_    0.370025 0.600354 0.198017 0.000000
H485  H     H_    0.354820 0.551305 0.153593 0.000000
H486  H     H_    0.350009 0.669404 0.200333 0.000000
H487  H     H_    0.315881 0.709995 0.034388 0.000000
H488  H     H_    0.531922 0.779684 0.156624 0.000000
C672  C     C_R   0.318568 0.960780 0.862467 0.000000
C673  C     C_R   0.378830 0.936213 0.855603 0.000000
C674  C     C_R   0.410602 0.908316 0.890462 0.000000
C675  C     C_R   0.382001 0.904012 0.931805 0.000000
C676  C     C_R   0.324092 0.930111 0.938682 0.000000
C677  C     C_R   0.290751 0.956920 0.903959 0.000000
N306  N     N_2   0.402441 0.867887 0.964866 0.000000
C678  C     C_R   0.370981 0.831092 0.955610 0.000000
N307  N     N_R   0.311423 0.837013 0.929951 0.000000
C679  C     C_R   0.284986 0.805823 0.912396 0.000000
N308  N     N_R   0.318026 0.766749 0.919645 0.000000
C680  C     C_R   0.376617 0.759813 0.945736 0.000000
N309  N     N_R   0.417900 0.723773 0.953272 0.000000
C681  C     C_R   0.473233 0.735119 0.979281 0.000000
N310  N     N_R   0.466814 0.776431 0.988310 0.000000
C682  C     C_R   0.404998 0.791070 0.964731 0.000000
H489  H     H_    0.292664 0.982575 0.835383 0.000000
H490  H     H_    0.400800 0.938954 0.823135 0.000000
H491  H     H_    0.456341 0.888352 0.885788 0.000000
H492  H     H_    0.300990 0.927293 0.970704 0.000000
H493  H     H_    0.240390 0.973242 0.909428 0.000000
H494  H     H_    0.381967 0.870650 0.994343 0.000000
H495  H     H_    0.239875 0.813632 0.890645 0.000000
H496  H     H_    0.517146 0.713622 0.991446 0.000000
C683  C     C_R   0.761612 0.693417 0.526992 0.000000
C684  C     C_R   0.731430 0.692303 0.567119 0.000000
C685  C     C_R   0.655084 0.690168 0.573708 0.000000
C686  C     C_R   0.609973 0.684254 0.541446 0.000000
C687  C     C_R   0.639363 0.689911 0.500023 0.000000
C688  C     C_R   0.715521 0.695848 0.492500 0.000000
N311  N     N_2   0.534717 0.671260 0.551214 0.000000
C689  C     C_R   0.523317 0.628071 0.548374 0.000000
N312  N     N_R   0.579549 0.599170 0.556034 0.000000
C690  C     C_R   0.570251 0.557636 0.552692 0.000000
N313  N     N_R   0.505512 0.544619 0.538985 0.000000
C691  C     C_R   0.449502 0.573132 0.531625 0.000000
N314  N     N_R   0.377854 0.563074 0.527101 0.000000
C692  C     C_R   0.340889 0.598412 0.533792 0.000000
N315  N     N_R   0.387914 0.631344 0.538016 0.000000
C693  C     C_R   0.455997 0.613590 0.537831 0.000000
H497  H     H_    0.821401 0.693446 0.523134 0.000000
H498  H     H_    0.768239 0.692422 0.593234 0.000000
H499  H     H_    0.630783 0.691181 0.604603 0.000000
H500  H     H_    0.604016 0.686825 0.474161 0.000000
H501  H     H_    0.739406 0.698345 0.460424 0.000000
H502  H     H_    0.498301 0.691676 0.532211 0.000000
H503  H     H_    0.616366 0.535224 0.558996 0.000000
H504  H     H_    0.280657 0.599690 0.535823 0.000000
C694  C     C_R   0.277911 0.855688 0.764986 0.000000
C695  C     C_R   0.319630 0.864367 0.726905 0.000000
C696  C     C_R   0.358690 0.831410 0.714972 0.000000
C697  C     C_R   0.356105 0.789189 0.740790 0.000000
C698  C     C_R   0.317427 0.781456 0.780075 0.000000
C699  C     C_R   0.277222 0.814300 0.791503 0.000000
N316  N     N_2   0.392725 0.754493 0.727444 0.000000
C700  C     C_R   0.362550 0.746771 0.689630 0.000000
N317  N     N_R   0.304200 0.771402 0.671992 0.000000
C701  C     C_R   0.275185 0.769258 0.634039 0.000000
N318  N     N_R   0.305980 0.742983 0.611211 0.000000
C702  C     C_R   0.363102 0.717781 0.628204 0.000000
N319  N     N_R   0.398959 0.690648 0.608653 0.000000
C703  C     C_R   0.446602 0.669468 0.640202 0.000000
N320  N     N_R   0.444205 0.684201 0.677827 0.000000
C704  C     C_R   0.390920 0.716309 0.668208 0.000000
H505  H     H_    0.246523 0.881328 0.774287 0.000000
H506  H     H_    0.321216 0.896919 0.706131 0.000000
H507  H     H_    0.389982 0.838917 0.684719 0.000000
H508  H     H_    0.316912 0.749617 0.802002 0.000000
H509  H     H_    0.244802 0.807436 0.821341 0.000000
H510  H     H_    0.394747 0.726445 0.751225 0.000000
H511  H     H_    0.228771 0.789876 0.621244 0.000000
H512  H     H_    0.479033 0.642038 0.636690 0.000000

loop_
_geom_bond_atom_site_label_1
_geom_bond_atom_site_label_2
_geom_bond_distance
_geom_bond_site_symmetry_2
_ccdc_geom_bond_type
Zn1   N5    2.090 .      S
Zn1   N10   2.017 .      S
Zn1   N229  2.049 1_455  S
Zn1   N265  2.223 1_455  S
Zn2   N14   2.144 .      S
Zn2   N19   2.157 .      S
Zn2   N259  2.127 .      S
Zn2   N269  2.113 .      S
Zn3   N25   2.271 .      S
Zn3   N30   2.189 .      S
Zn3   N280  2.145 .      S
Zn3   N295  2.284 .      S
Zn4   N9    2.029 1_455  S
Zn4   N35   2.088 .      S
Zn4   N64   2.059 1_455  S
Zn4   N284  2.127 1_455  S
Zn5   N40   2.150 .      S
Zn5   N44   2.090 .      S
Zn5   N224  2.079 .      S
Zn5   N235  2.096 .      S
Zn6   N49   2.263 .      S
Zn6   N209  2.193 1_455  S
Zn6   N274  2.184 1_455  S
Zn6   N290  2.182 1_455  S
Zn7   N54   2.175 .      S
Zn7   N60   2.258 1_455  S
Zn7   N214  2.221 1_455  S
Zn7   N250  2.173 1_455  S
Zn8   N59   2.204 .      S
Zn8   N65   2.098 .      S
Zn8   N69   2.072 .      S
Zn8   N240  2.017 .      S
Zn9   N20   2.180 .      S
Zn9   N29   2.193 .      S
Zn9   N50   2.304 .      S
Zn9   N305  2.194 .      S
Zn10  N55   2.202 .      S
Zn10  N75   2.195 .      S
Zn10  N299  2.131 .      S
Zn10  N309  2.229 .      S
Zn11  N80   2.026 1_554  S
Zn11  N85   2.121 .      S
Zn11  N90   2.176 1_554  S
Zn11  N95   2.109 .      S
Zn12  N79   2.070 1_554  S
Zn12  N99   2.036 .      S
Zn12  N105  2.150 1_554  S
Zn12  N110  2.085 .      S
Zn13  N84   2.050 .      S
Zn13  N114  2.054 .      S
Zn13  N120  2.117 .      S
Zn13  N125  2.110 .      S
Zn14  N89   2.144 .      S
Zn14  N129  2.117 1_655  S
Zn14  N134  2.157 .      S
Zn14  N140  2.108 .      S
Zn15  N94   2.013 1_465  S
Zn15  N145  2.116 .      S
Zn15  N149  2.075 .      S
Zn15  N154  2.220 1_455  S
Zn16  N109  1.991 .      S
Zn16  N119  2.053 .      S
Zn16  N160  2.107 .      S
Zn16  N164  2.040 .      S
Zn17  N124  2.063 1_455  S
Zn17  N169  2.000 1_455  S
Zn17  N175  2.114 .      S
Zn17  N179  2.094 1_455  S
Zn18  N100  2.097 1_565  S
Zn18  N144  2.105 .      S
Zn18  N185  2.268 .      S
Zn18  N190  2.107 .      S
Zn19  N115  2.146 1_455  S
Zn19  N150  1.993 1_545  S
Zn19  N194  2.265 1_445  S
Zn19  N200  2.197 .      S
Zn20  N155  2.260 .      S
Zn20  N205  2.218 .      S
Zn20  N210  2.255 .      S
Zn20  N215  2.339 1_554  S
Zn21  N104  2.141 .      S
Zn21  N130  2.141 .      S
Zn21  N219  2.163 .      S
Zn21  N225  2.171 .      S
Zn22  N135  2.164 .      S
Zn22  N230  2.120 .      S
Zn22  N234  2.091 .      S
Zn22  N239  2.001 .      S
Zn23  N139  2.090 1_554  S
Zn23  N170  2.068 .      S
Zn23  N245  2.161 .      S
Zn23  N249  2.114 .      S
Zn24  N159  2.037 .      S
Zn24  N174  2.135 .      S
Zn24  N254  2.069 .      S
Zn24  N260  2.143 .      S
Zn25  N180  2.137 .      S
Zn25  N264  2.177 .      S
Zn25  N270  2.176 .      S
Zn25  N275  2.194 .      S
Zn26  N195  2.289 .      S
Zn26  N279  2.130 .      S
Zn26  N285  2.186 .      S
Zn26  N289  2.079 .      S
Zn27  N165  2.102 .      S
Zn27  N189  2.096 .      S
Zn27  N199  2.206 .      S
Zn27  N294  2.195 1_545  S
Zn28  N220  2.066 1_554  S
Zn28  N244  2.174 .      S
Zn28  N255  2.128 .      S
Zn28  N300  2.078 .      S
Zn29  N184  2.154 .      S
Zn29  N204  2.127 .      S
Zn29  N304  2.094 .      S
Zn29  N310  2.305 1_554  S
Zn30  N4    2.107 .      S
Zn30  N15   2.198 .      S
Zn30  N39   2.101 .      S
Zn30  N314  1.943 .      S
Zn31  N45   2.091 .      S
Zn31  N70   2.081 .      S
Zn31  N74   2.119 .      S
Zn31  N320  2.149 .      S
Zn32  N24   2.132 .      S
Zn32  N34   2.023 .      S
Zn32  N315  1.972 .      S
Zn32  N319  2.067 .      S
C1    H1    1.081 .      S
C2    H2    1.081 .      S
C3    H3    1.079 .      S
C4    N1    1.419 .      S
C5    H4    1.080 .      S
C6    H5    1.081 .      S
N1    C7    1.413 .      S
N1    H6    1.029 .      S
C8    H7    1.081 .      S
C10   H8    1.080 .      S
C12   H9    1.081 .      S
C13   H10   1.062 .      S
C14   H11   1.071 .      S
C15   N6    1.425 .      S
C16   H12   1.073 .      S
C17   H13   1.081 .      S
N6    C18   1.414 .      S
N6    H14   1.013 .      S
C19   H15   1.061 .      S
N9    Zn4   2.029 1_655  S
C21   H16   1.073 .      S
C23   H17   1.070 .      S
C24   H18   1.065 .      S
C25   H19   1.076 .      S
C26   N11   1.401 .      S
C27   H20   1.062 .      S
C28   H21   1.075 .      S
N11   C29   1.392 .      S
N11   H22   1.017 .      S
C30   H23   1.081 .      S
C32   H24   1.081 .      S
C34   H25   1.066 .      S
C35   H26   1.075 .      S
C36   H27   1.081 .      S
C37   N16   1.405 .      S
C38   H28   1.070 .      S
C39   H29   1.078 .      S
N16   C40   1.393 .      S
N16   H30   1.017 .      S
C41   H31   1.066 .      S
C43   H32   1.079 .      S
C45   H33   1.073 .      S
C46   H34   1.076 .      S
C47   H35   1.078 .      S
C48   N21   1.412 .      S
C49   H36   1.055 .      S
C50   H37   1.074 .      S
N21   C51   1.378 .      S
N21   H38   1.010 .      S
C52   H39   1.081 .      S
C54   H40   1.064 .      S
C56   H41   1.076 .      S
C57   H42   1.080 .      S
C58   H43   1.066 .      S
C59   N26   1.409 .      S
C60   H44   1.081 .      S
C61   H45   1.077 .      S
N26   C62   1.402 .      S
N26   H46   1.014 .      S
C63   H47   1.071 .      S
C65   H48   1.056 .      S
C67   H49   1.075 .      S
C68   H50   1.078 .      S
C69   H51   1.074 .      S
C70   N31   1.410 .      S
C71   H52   1.080 .      S
C72   H53   1.076 .      S
N31   C73   1.396 .      S
N31   H54   1.019 .      S
C74   H55   1.077 .      S
C76   H56   1.071 .      S
C78   H57   1.078 .      S
C79   H58   1.071 .      S
C80   H59   1.081 .      S
C81   N36   1.408 .      S
C82   H60   1.081 .      S
C83   H61   1.080 .      S
N36   C84   1.392 .      S
N36   H62   1.023 .      S
C85   H63   1.073 .      S
C87   H64   1.080 .      S
C89   H65   1.076 .      S
C90   H66   1.077 .      S
C91   H67   1.067 .      S
C92   N41   1.413 .      S
C93   H68   1.077 .      S
C94   H69   1.077 .      S
N41   C95   1.405 .      S
N41   H70   1.015 .      S
C96   H71   1.080 .      S
C98   H72   1.081 .      S
C100  H73   1.072 .      S
C101  H74   1.076 .      S
C102  H75   1.077 .      S
C103  N46   1.417 .      S
C104  H76   1.055 .      S
C105  H77   1.073 .      S
N46   C106  1.407 .      S
N46   H78   1.006 .      S
C107  H79   1.061 .      S
C109  H80   1.066 .      S
C111  H81   1.075 .      S
C112  H82   1.080 .      S
C113  H83   1.060 .      S
C114  N51   1.411 .      S
C115  H84   1.074 .      S
C116  H85   1.064 .      S
N51   C117  1.411 .      S
N51   H86   1.023 .      S
C118  H87   1.081 .      S
C120  H88   1.039 .      S
C122  H89   1.081 .      S
C123  H90   1.075 .      S
C124  H91   1.080 .      S
C125  N56   1.420 .      S
C126  H92   1.073 .      S
C127  H93   1.078 1_455  S
N56   C128  1.394 .      S
N56   H94   1.027 .      S
C129  H95   1.066 .      S
C131  H96   1.074 .      S
N60   Zn7   2.258 1_655  S
H93   C127  1.078 1_655  S
C133  H97   1.081 .      S
C134  H98   1.081 .      S
C135  H99   1.075 1_655  S
C136  N61   1.431 .      S
C137  H100  1.076 .      S
C138  H101  1.081 .      S
N61   C139  1.410 .      S
N61   H102  1.017 .      S
C140  H103  1.080 .      S
N64   Zn4   2.059 1_655  S
C142  H104  1.074 .      S
H99   C135  1.075 1_455  S
C144  H105  1.081 .      S
C145  H106  1.076 .      S
C146  H107  1.073 .      S
C147  N66   1.435 .      S
C148  H108  1.079 .      S
C149  H109  1.079 .      S
N66   C150  1.415 .      S
N66   H110  1.023 .      S
C151  H111  1.081 .      S
C153  H112  1.079 .      S
C155  H113  1.081 .      S
C156  H114  1.076 .      S
C157  H115  1.069 .      S
C158  N71   1.410 .      S
C159  H116  1.076 .      S
C160  H117  1.080 .      S
N71   C161  1.394 .      S
N71   H118  1.026 .      S
C162  H119  1.078 .      S
C164  H120  1.061 .      S
C166  H121  1.070 1_545  S
C167  H122  1.081 .      S
C168  H123  1.066 .      S
C169  N76   1.416 .      S
C170  H124  1.078 .      S
C171  H125  1.080 1_545  S
N76   C172  1.408 .      S
N76   H126  1.019 .      S
C173  H127  1.071 .      S
N79   Zn12  2.070 1_556  S
C175  H128  1.069 .      S
N80   Zn11  2.026 1_556  S
H121  C166  1.070 1_565  S
H125  C171  1.080 1_565  S
C177  H129  1.079 .      S
C178  H130  1.069 .      S
C179  H131  1.069 .      S
C180  N81   1.412 .      S
C181  H132  1.073 .      S
C182  H133  1.076 .      S
N81   C183  1.420 .      S
N81   H134  1.020 .      S
C184  H135  1.073 .      S
C186  H136  1.068 .      S
C188  H137  1.081 .      S
C189  H138  1.078 .      S
C190  H139  1.080 .      S
C191  N86   1.415 1_655  S
C192  H140  1.073 .      S
C193  H141  1.080 .      S
N86   C191  1.415 1_455  S
N86   C194  1.401 .      S
N86   H142  1.027 .      S
C195  H143  1.066 .      S
C197  H144  1.068 .      S
N90   Zn11  2.176 1_556  S
C199  H145  1.080 .      S
C200  H146  1.078 .      S
C201  H147  1.073 .      S
C202  N91   1.414 .      S
C203  H148  1.077 .      S
C204  H149  1.076 .      S
N91   C205  1.400 .      S
N91   H150  1.025 .      S
C206  H151  1.078 1_545  S
N94   Zn15  2.013 1_645  S
C208  H152  1.070 1_655  S
H151  C206  1.078 1_565  S
H152  C208  1.070 1_455  S
C210  H153  1.080 .      S
C211  H154  1.075 .      S
C212  H155  1.072 .      S
C213  N96   1.418 .      S
C214  H156  1.066 .      S
C215  H157  1.081 .      S
N96   C216  1.409 .      S
N96   H158  1.027 .      S
C217  H159  1.072 .      S
C219  H160  1.075 .      S
N100  Zn18  2.097 1_545  S
C221  H161  1.080 .      S
C222  H162  1.081 .      S
C223  H163  1.075 .      S
C224  N101  1.413 .      S
C225  H164  1.075 .      S
C226  H165  1.073 .      S
N101  C227  1.386 .      S
N101  H166  1.015 .      S
C228  H167  1.078 .      S
C230  H168  1.069 .      S
N105  Zn12  2.150 1_556  S
C232  H169  1.079 .      S
C233  H170  1.057 .      S
C234  H171  1.073 .      S
C235  N106  1.393 1_556  S
C236  H172  1.075 .      S
C237  H173  1.068 .      S
N106  C235  1.393 1_554  S
N106  C238  1.391 .      S
N106  H174  1.014 .      S
C239  H175  1.081 .      S
C241  H176  1.075 .      S
C243  H177  1.055 .      S
C244  H178  1.069 .      S
C245  H179  1.077 1_565  S
C246  N111  1.389 1_565  S
C247  H180  1.080 .      S
C248  H181  1.064 .      S
N111  C246  1.389 1_545  S
N111  C249  1.385 .      S
N111  H182  1.029 1_545  S
C250  H183  1.080 .      S
C252  H184  1.070 1_655  S
N115  Zn19  2.146 1_655  S
H179  C245  1.077 1_545  S
H182  N111  1.029 1_565  S
H184  C252  1.070 1_455  S
C254  H185  1.081 .      S
C255  H186  1.081 .      S
C256  H187  1.076 .      S
C257  N116  1.418 .      S
C258  H188  1.079 .      S
C259  H189  1.080 .      S
N116  C260  1.406 .      S
N116  H190  1.024 .      S
C261  H191  1.078 .      S
C263  H192  1.058 .      S
C265  H193  1.081 .      S
C266  H194  1.080 .      S
C267  H195  1.073 .      S
C268  N121  1.417 .      S
C269  H196  1.072 1_455  S
C270  H197  1.081 .      S
N121  C271  1.405 .      S
N121  H198  1.026 1_455  S
C272  H199  1.075 .      S
N124  Zn17  2.063 1_655  S
C274  H200  1.078 .      S
H196  C269  1.072 1_655  S
H198  N121  1.026 1_655  S
C276  H201  1.071 .      S
C277  H202  1.078 .      S
C278  H203  1.073 .      S
C279  N126  1.410 .      S
C280  H204  1.078 .      S
C281  H205  1.077 .      S
N126  C282  1.406 1_554  S
N126  H206  1.019 1_554  S
C282  N126  1.406 1_556  S
C283  H207  1.079 .      S
N129  Zn14  2.117 1_455  S
C285  H208  1.081 .      S
H206  N126  1.019 1_556  S
C287  H209  1.081 .      S
C288  H210  1.071 1_655  S
C289  H211  1.081 .      S
C290  N131  1.416 .      S
C291  H212  1.074 .      S
C292  H213  1.080 .      S
N131  C293  1.402 .      S
N131  H214  1.025 .      S
C294  H215  1.077 .      S
C296  H216  1.078 .      S
H210  C288  1.071 1_455  S
C298  H217  1.081 .      S
C299  H218  1.073 .      S
C300  H219  1.066 .      S
C301  N136  1.416 .      S
C302  H220  1.079 .      S
C303  H221  1.072 .      S
N136  C304  1.410 .      S
N136  H222  1.011 .      S
C305  H223  1.075 .      S
N139  Zn23  2.090 1_556  S
C307  H224  1.070 .      S
C309  H225  1.078 .      S
C310  H226  1.081 .      S
C311  H227  1.073 .      S
C312  N141  1.416 .      S
C313  H228  1.081 .      S
C314  H229  1.075 .      S
N141  C315  1.391 .      S
N141  H230  1.028 .      S
C316  H231  1.079 .      S
C318  H232  1.072 .      S
C320  H233  1.078 .      S
C321  H234  1.078 .      S
C322  H235  1.046 .      S
C323  N146  1.421 .      S
C324  H236  1.069 .      S
C325  H237  1.065 .      S
N146  C326  1.403 .      S
N146  H238  1.005 .      S
C327  H239  1.051 .      S
C329  H240  1.078 1_565  S
N150  Zn19  1.993 1_565  S
H240  C329  1.078 1_545  S
C331  H241  1.074 .      S
C332  H242  1.068 1_554  S
C333  H243  1.072 1_554  S
C334  N151  1.403 .      S
C335  H244  1.061 .      S
C336  H245  1.075 .      S
N151  C337  1.409 .      S
N151  H246  1.014 .      S
C338  H247  1.071 .      S
N154  Zn15  2.220 1_655  S
C340  H248  1.081 .      S
H242  C332  1.068 1_556  S
H243  C333  1.072 1_556  S
C342  H249  1.065 .      S
C343  H250  1.076 .      S
C344  H251  1.080 .      S
C345  N156  1.390 .      S
C346  H252  1.077 .      S
C347  H253  1.073 .      S
N156  C348  1.390 .      S
N156  H254  1.024 .      S
C349  H255  1.073 .      S
C351  H256  1.080 .      S
C353  H257  1.081 1_545  S
C354  H258  1.079 .      S
C355  H259  1.076 .      S
C356  N161  1.429 .      S
C357  H260  1.078 .      S
C358  H261  1.081 .      S
N161  C359  1.415 .      S
N161  H262  1.021 .      S
C360  H263  1.080 .      S
C362  H264  1.080 .      S
H257  C353  1.081 1_565  S
C364  H265  1.072 .      S
C365  H266  1.073 .      S
C366  H267  1.079 .      S
C367  N166  1.403 .      S
C368  H268  1.068 .      S
C369  H269  1.079 .      S
N166  C370  1.399 .      S
N166  H270  1.012 .      S
C371  H271  1.081 .      S
N169  Zn17  2.000 1_655  S
C373  H272  1.077 1_655  S
H272  C373  1.077 1_455  S
C375  H273  1.079 .      S
C376  H274  1.081 .      S
C377  H275  1.080 .      S
C378  N171  1.411 .      S
C379  H276  1.079 1_455  S
C380  H277  1.080 1_455  S
N171  C381  1.400 .      S
N171  H278  1.020 .      S
C382  H279  1.068 .      S
C384  H280  1.071 .      S
H276  C379  1.079 1_655  S
H277  C380  1.080 1_655  S
C386  H281  1.080 .      S
C387  H282  1.080 .      S
C388  H283  1.073 .      S
C389  N176  1.406 .      S
C390  H284  1.081 .      S
C391  H285  1.077 .      S
N176  C392  1.399 1_455  S
N176  H286  1.026 .      S
C392  N176  1.399 1_655  S
C393  H287  1.073 .      S
N179  Zn17  2.094 1_655  S
C395  H288  1.076 .      S
C397  H289  1.081 .      S
C398  H290  1.077 .      S
C399  H291  1.073 .      S
C400  N181  1.426 .      S
C401  H292  1.066 1_545  S
C402  H293  1.081 .      S
N181  C403  1.405 1_545  S
N181  H294  1.022 .      S
C403  N181  1.405 1_565  S
C404  H295  1.073 .      S
C406  H296  1.056 .      S
H292  C401  1.066 1_565  S
C408  H297  1.071 .      S
C409  H298  1.056 .      S
C410  H299  1.066 .      S
C411  N186  1.417 .      S
C412  H300  1.075 .      S
C413  H301  1.073 .      S
N186  C414  1.404 .      S
N186  H302  1.004 .      S
C415  H303  1.080 .      S
C417  H304  1.079 .      S
C419  H305  1.081 1_655  S
C420  H306  1.081 .      S
C421  H307  1.080 1_655  S
C422  N191  1.422 .      S
C423  H308  1.076 .      S
C424  H309  1.080 .      S
N191  C425  1.397 .      S
N191  H310  1.021 .      S
C426  H311  1.075 1_565  S
N194  Zn19  2.265 1_665  S
C428  H312  1.064 .      S
H305  C419  1.081 1_455  S
H307  C421  1.080 1_455  S
H311  C426  1.075 1_545  S
C430  H313  1.081 1_455  S
C431  H314  1.081 .      S
C432  H315  1.075 .      S
C433  N196  1.427 .      S
C434  H316  1.081 .      S
C435  H317  1.079 .      S
N196  C436  1.407 .      S
N196  H318  1.028 .      S
C437  H319  1.073 .      S
C439  H320  1.073 .      S
H313  C430  1.081 1_655  S
C441  H321  1.081 .      S
C442  H322  1.080 .      S
C443  H323  1.079 .      S
C444  N201  1.414 .      S
C445  H324  1.075 .      S
C446  H325  1.081 .      S
N201  C447  1.394 .      S
N201  H326  1.023 .      S
C448  H327  1.079 .      S
C450  H328  1.079 .      S
C452  H329  1.073 .      S
C453  H330  1.067 1_554  S
C454  H331  1.075 .      S
C455  N206  1.395 .      S
C456  H332  1.074 .      S
C457  H333  1.071 .      S
N206  C458  1.391 .      S
N206  H334  1.021 .      S
C459  H335  1.075 .      S
N209  Zn6   2.193 1_655  S
C461  H336  1.074 1_655  S
H330  C453  1.067 1_556  S
H336  C461  1.074 1_455  S
C463  H337  1.081 .      S
C464  H338  1.072 .      S
C465  H339  1.080 .      S
C466  N211  1.427 .      S
C467  H340  1.070 .      S
C468  H341  1.080 1_455  S
N211  C469  1.418 .      S
N211  H342  1.017 1_455  S
C470  H343  1.076 .      S
N214  Zn7   2.221 1_655  S
C472  H344  1.070 1_556  S
N215  Zn20  2.339 1_556  S
H341  C468  1.080 1_655  S
H342  N211  1.017 1_655  S
H344  C472  1.070 1_554  S
C474  H345  1.078 .      S
C475  H346  1.076 .      S
C476  H347  1.077 .      S
C477  N216  1.428 .      S
C478  H348  1.069 .      S
C479  H349  1.076 .      S
N216  C480  1.417 .      S
N216  H350  1.015 .      S
C481  H351  1.080 .      S
C483  H352  1.071 1_556  S
N220  Zn28  2.066 1_556  S
H352  C483  1.071 1_554  S
C485  H353  1.080 .      S
C486  H354  1.080 .      S
C487  H355  1.076 .      S
C488  N221  1.411 .      S
C489  H356  1.080 .      S
C490  H357  1.074 .      S
N221  C491  1.401 .      S
N221  H358  1.026 .      S
C492  H359  1.077 .      S
C494  H360  1.056 .      S
C496  H361  1.070 .      S
C497  H362  1.075 .      S
C498  H363  1.076 .      S
C499  N226  1.395 .      S
C500  H364  1.077 .      S
C501  H365  1.079 .      S
N226  C502  1.370 .      S
N226  H366  1.025 .      S
C503  H367  1.067 .      S
N229  Zn1   2.049 1_655  S
C505  H368  1.079 .      S
C507  H369  1.081 .      S
C508  H370  1.081 .      S
C509  H371  1.079 .      S
C510  N231  1.419 .      S
C511  H372  1.081 .      S
C512  H373  1.081 .      S
N231  C513  1.405 .      S
N231  H374  1.013 .      S
C514  H375  1.075 .      S
C516  H376  1.077 .      S
C518  H377  1.071 .      S
C519  H378  1.079 .      S
C520  H379  1.068 .      S
C521  N236  1.406 .      S
C522  H380  1.078 .      S
C523  H381  1.065 .      S
N236  C524  1.404 .      S
N236  H382  1.021 .      S
C525  H383  1.074 .      S
C527  H384  1.074 .      S
C529  H385  1.078 .      S
C530  H386  1.074 .      S
C531  H387  1.081 .      S
C532  N241  1.409 .      S
C533  H388  1.074 .      S
C534  H389  1.081 .      S
N241  C535  1.397 .      S
N241  H390  1.013 .      S
C536  H391  1.076 .      S
C538  H392  1.078 .      S
C540  H393  1.061 .      S
C541  H394  1.076 .      S
C542  H395  1.076 .      S
C543  N246  1.402 .      S
C544  H396  1.064 .      S
C545  H397  1.078 .      S
N246  C546  1.387 .      S
N246  H398  1.022 .      S
C547  H399  1.081 .      S
C549  H400  1.073 .      S
N250  Zn7   2.173 1_655  S
C551  H401  1.080 .      S
C552  H402  1.064 .      S
C553  H403  1.060 1_554  S
C554  N251  1.435 .      S
C555  H404  1.069 .      S
C556  H405  1.076 .      S
N251  C557  1.405 .      S
N251  H406  1.022 .      S
C558  H407  1.081 .      S
C560  H408  1.064 .      S
H403  C553  1.060 1_556  S
C562  H409  1.081 .      S
C563  H410  1.081 .      S
C564  H411  1.081 .      S
C565  N256  1.416 .      S
C566  H412  1.081 .      S
C567  H413  1.080 .      S
N256  C568  1.397 .      S
N256  H414  1.024 .      S
C569  H415  1.080 .      S
C571  H416  1.072 .      S
C573  H417  1.081 .      S
C574  H418  1.080 .      S
C575  H419  1.079 .      S
C576  N261  1.424 .      S
C577  H420  1.077 .      S
C578  H421  1.080 .      S
N261  C579  1.417 .      S
N261  H422  1.028 .      S
C580  H423  1.081 .      S
C582  H424  1.048 1_655  S
N265  Zn1   2.223 1_655  S
H424  C582  1.048 1_455  S
C584  H425  1.080 .      S
C585  H426  1.077 .      S
C586  H427  1.081 .      S
C587  N266  1.417 .      S
C588  H428  1.081 .      S
C589  H429  1.080 .      S
N266  C590  1.399 .      S
N266  H430  1.020 .      S
C591  H431  1.080 .      S
C593  H432  1.072 .      S
C595  H433  1.071 .      S
C596  H434  1.079 .      S
C597  H435  1.069 .      S
C598  N271  1.392 .      S
C599  H436  1.081 .      S
C600  H437  1.072 .      S
N271  C601  1.388 .      S
N271  H438  1.018 .      S
C602  H439  1.079 .      S
N274  Zn6   2.184 1_655  S
C604  H440  1.065 .      S
C606  H441  1.074 .      S
C607  H442  1.065 .      S
C608  H443  1.071 .      S
C609  N276  1.416 .      S
C610  H444  1.064 .      S
C611  H445  1.081 .      S
N276  C612  1.400 .      S
N276  H446  1.019 .      S
C613  H447  1.079 .      S
C615  H448  1.077 .      S
C617  H449  1.068 .      S
C618  H450  1.071 .      S
C619  H451  1.044 .      S
C620  N281  1.411 .      S
C621  H452  1.073 .      S
C622  H453  1.072 .      S
N281  C623  1.377 .      S
N281  H454  1.011 .      S
C624  H455  1.080 .      S
N284  Zn4   2.127 1_655  S
C626  H456  1.080 .      S
C628  H457  1.064 .      S
C629  H458  1.057 .      S
C630  H459  1.074 .      S
C631  N286  1.378 .      S
C632  H460  1.070 .      S
C633  H461  1.059 .      S
N286  C634  1.390 1_455  S
N286  H462  1.020 .      S
C634  N286  1.390 1_655  S
C635  H463  1.080 .      S
C637  H464  1.065 .      S
N290  Zn6   2.182 1_655  S
C639  H465  1.081 .      S
C640  H466  1.079 .      S
C641  H467  1.075 .      S
C642  N291  1.426 .      S
C643  H468  1.071 .      S
C644  H469  1.081 1_565  S
N291  C645  1.400 .      S
N291  H470  1.023 .      S
C646  H471  1.075 .      S
N294  Zn27  2.195 1_565  S
C648  H472  1.059 .      S
H469  C644  1.081 1_545  S
C650  H473  1.076 .      S
C651  H474  1.078 .      S
C652  H475  1.071 .      S
C653  N296  1.437 .      S
C654  H476  1.067 .      S
C655  H477  1.069 .      S
N296  C656  1.424 .      S
N296  H478  1.022 .      S
C657  H479  1.061 .      S
C659  H480  1.077 .      S
C661  H481  1.069 .      S
C662  H482  1.066 .      S
C663  H483  1.081 .      S
C664  N301  1.385 .      S
C665  H484  1.073 .      S
C666  H485  1.070 .      S
N301  C667  1.399 .      S
N301  H486  1.022 .      S
C668  H487  1.066 .      S
C670  H488  1.066 .      S
C672  H489  1.081 .      S
C673  H490  1.079 .      S
C674  H491  1.061 .      S
C675  N306  1.410 .      S
C676  H492  1.073 .      S
C677  H493  1.067 .      S
N306  C678  1.391 .      S
N306  H494  1.022 .      S
C679  H495  1.066 .      S
C681  H496  1.057 .      S
N310  Zn29  2.305 1_556  S
C683  H497  1.069 .      S
C684  H498  1.075 .      S
C685  H499  1.072 .      S
C686  N311  1.406 .      S
C687  H500  1.075 .      S
C688  H501  1.081 .      S
N311  C689  1.407 .      S
N311  H502  1.019 .      S
C690  H503  1.077 .      S
C692  H504  1.075 .      S
C694  H505  1.081 .      S
C695  H506  1.081 .      S
C696  H507  1.075 .      S
C697  N316  1.424 .      S
C698  H508  1.078 .      S
C699  H509  1.074 .      S
N316  C700  1.408 .      S
N316  H510  1.019 .      S
C701  H511  1.081 .      S
C703  H512  1.070 .      S
C1    C2    1.378 .      A
C1    C6    1.378 .      A
C2    C3    1.379 .      A
C3    C4    1.383 .      A
C4    C5    1.385 .      A
C5    C6    1.381 .      A
C7    N2    1.352 .      A
C7    C11   1.380 .      A
N2    C8    1.352 .      A
C8    N3    1.346 .      A
N3    C9    1.338 .      A
C9    N4    1.337 .      A
C9    C11   1.369 .      A
N4    C10   1.385 .      A
C10   N5    1.381 .      A
N5    C11   1.358 .      A
C12   C13   1.372 .      A
C12   C17   1.369 .      A
C13   C14   1.376 .      A
C14   C15   1.378 .      A
C15   C16   1.389 .      A
C16   C17   1.373 .      A
C18   N7    1.340 .      A
C18   C22   1.379 .      A
N7    C19   1.347 .      A
C19   N8    1.346 1_455  A
N8    C19   1.346 1_655  A
N8    C20   1.333 .      A
C20   N9    1.345 .      A
C20   C22   1.355 1_655  A
N9    C21   1.372 .      A
C21   N10   1.378 1_655  A
N10   C21   1.378 1_455  A
N10   C22   1.343 .      A
C22   C20   1.355 1_455  A
C23   C24   1.358 .      A
C23   C28   1.362 .      A
C24   C25   1.373 .      A
C25   C26   1.366 .      A
C26   C27   1.372 .      A
C27   C28   1.367 .      A
C29   N12   1.346 .      A
C29   C33   1.365 .      A
N12   C30   1.346 .      A
C30   N13   1.338 .      A
N13   C31   1.337 .      A
C31   N14   1.320 .      A
C31   C33   1.357 .      A
N14   C32   1.406 .      A
C32   N15   1.403 .      A
N15   C33   1.361 .      A
C34   C35   1.376 .      A
C34   C39   1.366 .      A
C35   C36   1.370 .      A
C36   C37   1.377 .      A
C37   C38   1.375 .      A
C38   C39   1.367 .      A
C40   N17   1.343 .      A
C40   C44   1.368 .      A
N17   C41   1.341 .      A
C41   N18   1.338 .      A
N18   C42   1.327 .      A
C42   N19   1.331 .      A
C42   C44   1.359 .      A
N19   C43   1.401 .      A
C43   N20   1.400 .      A
N20   C44   1.352 .      A
C45   C46   1.374 .      A
C45   C50   1.355 .      A
C46   C47   1.368 .      A
C47   C48   1.377 .      A
C48   C49   1.372 .      A
C49   C50   1.360 .      A
C51   N22   1.352 .      A
C51   C55   1.348 .      A
N22   C52   1.352 .      A
C52   N23   1.347 .      A
N23   C53   1.339 .      A
C53   N24   1.327 .      A
C53   C55   1.359 .      A
N24   C54   1.398 .      A
C54   N25   1.400 .      A
N25   C55   1.363 .      A
C56   C57   1.369 .      A
C56   C61   1.380 .      A
C57   C58   1.370 .      A
C58   C59   1.373 .      A
C59   C60   1.381 .      A
C60   C61   1.375 .      A
C62   N27   1.343 .      A
C62   C66   1.387 .      A
N27   C63   1.332 .      A
C63   N28   1.336 .      A
N28   C64   1.325 .      A
C64   N29   1.332 .      A
C64   C66   1.377 .      A
N29   C65   1.387 .      A
C65   N30   1.385 .      A
N30   C66   1.356 .      A
C67   C68   1.370 .      A
C67   C72   1.378 .      A
C68   C69   1.375 .      A
C69   C70   1.379 .      A
C70   C71   1.380 .      A
C71   C72   1.374 .      A
C73   N32   1.349 .      A
C73   C77   1.383 .      A
N32   C74   1.347 .      A
C74   N33   1.337 .      A
N33   C75   1.335 .      A
C75   N34   1.329 .      A
C75   C77   1.350 .      A
N34   C76   1.377 .      A
C76   N35   1.385 .      A
N35   C77   1.362 .      A
C78   C79   1.378 .      A
C78   C83   1.374 .      A
C79   C80   1.371 .      A
C80   C81   1.377 .      A
C81   C82   1.383 .      A
C82   C83   1.375 .      A
C84   N37   1.345 .      A
C84   C88   1.371 .      A
N37   C85   1.341 .      A
C85   N38   1.340 .      A
N38   C86   1.327 .      A
C86   N39   1.338 .      A
C86   C88   1.338 .      A
N39   C87   1.394 .      A
C87   N40   1.397 .      A
N40   C88   1.349 .      A
C89   C90   1.375 .      A
C89   C94   1.371 .      A
C90   C91   1.377 .      A
C91   C92   1.378 .      A
C92   C93   1.374 .      A
C93   C94   1.371 .      A
C95   N42   1.349 .      A
C95   C99   1.380 .      A
N42   C96   1.353 .      A
C96   N43   1.352 .      A
N43   C97   1.337 .      A
C97   N44   1.343 .      A
C97   C99   1.354 .      A
N44   C98   1.389 .      A
C98   N45   1.388 .      A
N45   C99   1.354 .      A
C100  C101  1.359 .      A
C100  C105  1.363 .      A
C101  C102  1.377 .      A
C102  C103  1.371 .      A
C103  C104  1.364 .      A
C104  C105  1.379 .      A
C106  N47   1.333 .      A
C106  C110  1.383 .      A
N47   C107  1.347 .      A
C107  N48   1.345 .      A
N48   C108  1.332 .      A
C108  N49   1.344 .      A
C108  C110  1.383 .      A
N49   C109  1.404 .      A
C109  N50   1.422 .      A
N50   C110  1.356 .      A
C111  C112  1.369 .      A
C111  C116  1.369 .      A
C112  C113  1.372 .      A
C113  C114  1.375 .      A
C114  C115  1.372 .      A
C115  C116  1.368 .      A
C117  N52   1.350 .      A
C117  C121  1.367 .      A
N52   C118  1.351 .      A
C118  N53   1.344 .      A
N53   C119  1.337 .      A
C119  N54   1.339 .      A
C119  C121  1.365 .      A
N54   C120  1.391 .      A
C120  N55   1.390 .      A
N55   C121  1.353 .      A
C122  C123  1.373 .      A
C122  C127  1.370 .      A
C123  C124  1.382 .      A
C124  C125  1.383 1_455  A
C125  C124  1.383 1_655  A
C125  C126  1.383 .      A
C126  C127  1.377 1_655  A
C127  C126  1.377 1_455  A
C128  N57   1.342 .      A
C128  C132  1.375 .      A
N57   C129  1.342 .      A
C129  N58   1.345 .      A
N58   C130  1.339 .      A
C130  N59   1.339 .      A
C130  C132  1.368 .      A
N59   C131  1.402 .      A
C131  N60   1.412 .      A
N60   C132  1.362 .      A
C133  C134  1.374 .      A
C133  C138  1.374 .      A
C134  C135  1.380 .      A
C135  C136  1.388 .      A
C136  C137  1.385 .      A
C137  C138  1.379 .      A
C139  N62   1.348 1_655  A
C139  C143  1.395 .      A
N62   C139  1.348 1_455  A
N62   C140  1.343 .      A
C140  N63   1.340 .      A
N63   C141  1.333 1_455  A
C141  N63   1.333 1_655  A
C141  N64   1.336 .      A
C141  C143  1.359 .      A
N64   C142  1.380 .      A
C142  N65   1.388 .      A
N65   C143  1.367 .      A
C144  C145  1.372 .      A
C144  C149  1.372 .      A
C145  C146  1.378 .      A
C146  C147  1.381 .      A
C147  C148  1.396 .      A
C148  C149  1.378 .      A
C150  N67   1.348 .      A
C150  C154  1.403 .      A
N67   C151  1.339 .      A
C151  N68   1.336 .      A
N68   C152  1.334 .      A
C152  N69   1.334 .      A
C152  C154  1.363 .      A
N69   C153  1.381 .      A
C153  N70   1.381 .      A
N70   C154  1.371 .      A
C155  C156  1.378 .      A
C155  C160  1.378 .      A
C156  C157  1.372 .      A
C157  C158  1.371 .      A
C158  C159  1.385 .      A
C159  C160  1.381 .      A
C161  N72   1.349 .      A
C161  C165  1.380 .      A
N72   C162  1.341 .      A
C162  N73   1.335 .      A
N73   C163  1.332 .      A
C163  N74   1.325 .      A
C163  C165  1.365 .      A
N74   C164  1.385 .      A
C164  N75   1.399 .      A
N75   C165  1.370 .      A
C166  C167  1.367 .      A
C166  C171  1.376 .      A
C167  C168  1.369 .      A
C168  C169  1.382 .      A
C169  C170  1.379 .      A
C170  C171  1.377 .      A
C172  N77   1.344 .      A
C172  C176  1.382 .      A
N77   C173  1.346 .      A
C173  N78   1.350 .      A
N78   C174  1.340 .      A
C174  N79   1.350 .      A
C174  C176  1.359 .      A
N79   C175  1.374 1_556  A
C175  N79   1.374 1_554  A
C175  N80   1.370 1_554  A
N80   C175  1.370 1_556  A
N80   C176  1.346 .      A
C177  C178  1.370 .      A
C177  C182  1.371 .      A
C178  C179  1.369 .      A
C179  C180  1.377 .      A
C180  C181  1.375 .      A
C181  C182  1.377 .      A
C183  N82   1.345 .      A
C183  C187  1.369 .      A
N82   C184  1.355 .      A
C184  N83   1.341 .      A
N83   C185  1.331 .      A
C185  N84   1.331 .      A
C185  C187  1.354 .      A
N84   C186  1.381 .      A
C186  N85   1.376 .      A
N85   C187  1.341 .      A
C188  C189  1.375 .      A
C188  C193  1.373 1_655  A
C189  C190  1.383 .      A
C190  C191  1.379 .      A
C191  C192  1.376 1_655  A
C192  C191  1.376 1_455  A
C192  C193  1.378 .      A
C193  C188  1.373 1_455  A
C194  N87   1.348 .      A
C194  C198  1.376 1_455  A
N87   C195  1.350 .      A
C195  N88   1.339 .      A
N88   C196  1.331 .      A
C196  N89   1.332 1_455  A
C196  C198  1.366 1_455  A
N89   C196  1.332 1_655  A
N89   C197  1.391 .      A
C197  N90   1.390 .      A
N90   C198  1.358 .      A
C198  C194  1.376 1_655  A
C198  C196  1.366 1_655  A
C199  C200  1.374 .      A
C199  C204  1.377 .      A
C200  C201  1.374 1_565  A
C201  C200  1.374 1_545  A
C201  C202  1.380 .      A
C202  C203  1.378 .      A
C203  C204  1.375 1_545  A
C204  C203  1.375 1_565  A
C205  N92   1.347 .      A
C205  C209  1.379 .      A
N92   C206  1.344 .      A
C206  N93   1.336 .      A
N93   C207  1.331 .      A
C207  N94   1.320 .      A
C207  C209  1.346 .      A
N94   C208  1.381 .      A
C208  N95   1.381 .      A
N95   C209  1.365 .      A
C210  C211  1.377 .      A
C210  C215  1.376 .      A
C211  C212  1.378 .      A
C212  C213  1.378 .      A
C213  C214  1.379 .      A
C214  C215  1.379 .      A
C216  N97   1.349 .      A
C216  C220  1.393 1_556  A
N97   C217  1.350 .      A
C217  N98   1.343 .      A
N98   C218  1.335 1_556  A
C218  N98   1.335 1_554  A
C218  N99   1.332 .      A
C218  C220  1.362 .      A
N99   C219  1.379 .      A
C219  N100  1.382 .      A
N100  C220  1.369 .      A
C220  C216  1.393 1_554  A
C221  C222  1.372 .      A
C221  C226  1.376 .      A
C222  C223  1.376 .      A
C223  C224  1.389 .      A
C224  C225  1.369 .      A
C225  C226  1.366 .      A
C227  N102  1.345 .      A
C227  C231  1.386 .      A
N102  C228  1.337 .      A
C228  N103  1.341 .      A
N103  C229  1.331 .      A
C229  N104  1.334 .      A
C229  C231  1.356 .      A
N104  C230  1.394 .      A
C230  N105  1.387 .      A
N105  C231  1.365 .      A
C232  C233  1.362 .      A
C232  C237  1.369 .      A
C233  C234  1.360 .      A
C234  C235  1.378 .      A
C235  C236  1.364 .      A
C236  C237  1.348 .      A
C238  N107  1.350 .      A
C238  C242  1.365 .      A
N107  C239  1.347 .      A
C239  N108  1.344 .      A
N108  C240  1.337 .      A
C240  N109  1.328 .      A
C240  C242  1.348 .      A
N109  C241  1.373 .      A
C241  N110  1.377 .      A
N110  C242  1.360 .      A
C243  C244  1.350 .      A
C243  C248  1.373 .      A
C244  C245  1.343 .      A
C245  C246  1.379 .      A
C246  C247  1.362 .      A
C247  C248  1.359 .      A
C249  N112  1.352 .      A
C249  C253  1.340 .      A
N112  C250  1.344 .      A
C250  N113  1.337 .      A
N113  C251  1.333 .      A
C251  N114  1.324 .      A
C251  C253  1.345 .      A
N114  C252  1.388 .      A
C252  N115  1.390 .      A
N115  C253  1.348 .      A
C254  C255  1.376 .      A
C254  C259  1.376 .      A
C255  C256  1.378 .      A
C256  C257  1.377 .      A
C257  C258  1.388 .      A
C258  C259  1.380 .      A
C260  N117  1.349 .      A
C260  C264  1.375 .      A
N117  C261  1.353 .      A
C261  N118  1.349 .      A
N118  C262  1.338 .      A
C262  N119  1.342 .      A
C262  C264  1.363 .      A
N119  C263  1.374 .      A
C263  N120  1.381 .      A
N120  C264  1.354 .      A
C265  C266  1.376 .      A
C265  C270  1.374 .      A
C266  C267  1.380 .      A
C267  C268  1.377 .      A
C268  C269  1.382 .      A
C269  C270  1.379 .      A
C271  N122  1.350 .      A
C271  C275  1.393 1_455  A
N122  C272  1.336 .      A
C272  N123  1.333 .      A
N123  C273  1.337 .      A
C273  N124  1.324 1_455  A
C273  C275  1.369 1_455  A
N124  C273  1.324 1_655  A
N124  C274  1.384 .      A
C274  N125  1.384 .      A
N125  C275  1.372 .      A
C275  C271  1.393 1_655  A
C275  C273  1.369 1_655  A
C276  C277  1.368 .      A
C276  C281  1.375 .      A
C277  C278  1.366 .      A
C278  C279  1.374 .      A
C279  C280  1.376 .      A
C280  C281  1.376 .      A
C282  N127  1.348 1_556  A
C282  C286  1.366 .      A
N127  C282  1.348 1_554  A
N127  C283  1.346 .      A
C283  N128  1.343 1_554  A
N128  C283  1.343 1_556  A
N128  C284  1.334 .      A
C284  N129  1.334 .      A
C284  C286  1.360 .      A
N129  C285  1.395 .      A
C285  N130  1.397 .      A
N130  C286  1.350 .      A
C287  C288  1.376 .      A
C287  C292  1.373 .      A
C288  C289  1.379 .      A
C289  C290  1.378 .      A
C290  C291  1.385 .      A
C291  C292  1.377 .      A
C293  N132  1.352 .      A
C293  C297  1.388 .      A
N132  C294  1.348 1_655  A
C294  N132  1.348 1_455  A
C294  N133  1.339 .      A
N133  C295  1.336 1_455  A
C295  N133  1.336 1_655  A
C295  N134  1.329 .      A
C295  C297  1.376 .      A
N134  C296  1.395 .      A
C296  N135  1.392 .      A
N135  C297  1.370 .      A
C298  C299  1.370 .      A
C298  C303  1.369 .      A
C299  C300  1.374 .      A
C300  C301  1.378 .      A
C301  C302  1.381 .      A
C302  C303  1.372 .      A
C304  N137  1.343 .      A
C304  C308  1.367 .      A
N137  C305  1.355 .      A
C305  N138  1.339 .      A
N138  C306  1.326 .      A
C306  N139  1.333 .      A
C306  C308  1.353 .      A
N139  C307  1.383 .      A
C307  N140  1.390 .      A
N140  C308  1.348 .      A
C309  C310  1.367 .      A
C309  C314  1.374 .      A
C310  C311  1.375 .      A
C311  C312  1.372 .      A
C312  C313  1.381 .      A
C313  C314  1.378 .      A
C315  N142  1.340 .      A
C315  C319  1.379 .      A
N142  C316  1.337 .      A
C316  N143  1.327 .      A
N143  C317  1.329 .      A
C317  N144  1.324 1_545  A
C317  C319  1.353 .      A
N144  C317  1.324 1_565  A
N144  C318  1.388 .      A
C318  N145  1.394 .      A
N145  C319  1.359 1_565  A
C319  N145  1.359 1_545  A
C320  C321  1.352 .      A
C320  C325  1.374 .      A
C321  C322  1.360 .      A
C322  C323  1.376 .      A
C323  C324  1.367 .      A
C324  C325  1.380 .      A
C326  N147  1.338 .      A
C326  C330  1.380 .      A
N147  C327  1.348 .      A
C327  N148  1.339 .      A
N148  C328  1.319 .      A
C328  N149  1.337 .      A
C328  C330  1.342 .      A
N149  C329  1.381 1_455  A
C329  N149  1.381 1_655  A
C329  N150  1.371 1_655  A
N150  C329  1.371 1_455  A
N150  C330  1.342 .      A
C331  C332  1.378 .      A
C331  C336  1.355 .      A
C332  C333  1.358 .      A
C333  C334  1.371 .      A
C334  C335  1.378 .      A
C335  C336  1.349 .      A
C337  N152  1.346 .      A
C337  C341  1.361 .      A
N152  C338  1.351 1_554  A
C338  N152  1.351 1_556  A
C338  N153  1.343 1_556  A
N153  C338  1.343 1_554  A
N153  C339  1.332 .      A
C339  N154  1.339 1_455  A
C339  C341  1.366 .      A
N154  C339  1.339 1_655  A
N154  C340  1.410 .      A
C340  N155  1.411 .      A
N155  C341  1.343 1_655  A
C341  N155  1.343 1_455  A
C342  C343  1.371 .      A
C342  C347  1.361 .      A
C343  C344  1.359 .      A
C344  C345  1.365 .      A
C345  C346  1.369 .      A
C346  C347  1.364 .      A
C348  N157  1.344 .      A
C348  C352  1.355 .      A
N157  C349  1.342 .      A
C349  N158  1.340 .      A
N158  C350  1.333 .      A
C350  N159  1.328 .      A
C350  C352  1.350 .      A
N159  C351  1.382 .      A
C351  N160  1.387 .      A
N160  C352  1.349 .      A
C353  C354  1.374 1_545  A
C353  C358  1.374 .      A
C354  C353  1.374 1_565  A
C354  C355  1.379 .      A
C355  C356  1.380 1_565  A
C356  C355  1.380 1_545  A
C356  C357  1.395 .      A
C357  C358  1.379 .      A
C359  N162  1.351 .      A
C359  C363  1.404 .      A
N162  C360  1.347 .      A
C360  N163  1.340 .      A
N163  C361  1.338 .      A
C361  N164  1.327 .      A
C361  C363  1.366 .      A
N164  C362  1.378 .      A
C362  N165  1.378 .      A
N165  C363  1.380 .      A
C364  C365  1.382 .      A
C364  C369  1.360 .      A
C365  C366  1.362 .      A
C366  C367  1.365 .      A
C367  C368  1.392 .      A
C368  C369  1.363 .      A
C370  N167  1.349 .      A
C370  C374  1.369 .      A
N167  C371  1.352 .      A
C371  N168  1.348 .      A
N168  C372  1.340 .      A
C372  N169  1.336 .      A
C372  C374  1.347 .      A
N169  C373  1.379 .      A
C373  N170  1.378 .      A
N170  C374  1.350 .      A
C375  C376  1.377 .      A
C375  C380  1.373 .      A
C376  C377  1.377 .      A
C377  C378  1.379 .      A
C378  C379  1.379 .      A
C379  C380  1.378 .      A
C381  N172  1.337 .      A
C381  C385  1.364 .      A
N172  C382  1.346 .      A
C382  N173  1.330 .      A
N173  C383  1.323 .      A
C383  N174  1.327 .      A
C383  C385  1.362 .      A
N174  C384  1.393 .      A
C384  N175  1.393 .      A
N175  C385  1.342 .      A
C386  C387  1.376 .      A
C386  C391  1.379 .      A
C387  C388  1.378 .      A
C388  C389  1.371 .      A
C389  C390  1.378 .      A
C390  C391  1.373 .      A
C392  N177  1.347 .      A
C392  C396  1.371 .      A
N177  C393  1.347 .      A
C393  N178  1.344 .      A
N178  C394  1.332 .      A
C394  N179  1.335 .      A
C394  C396  1.349 .      A
N179  C395  1.390 .      A
C395  N180  1.389 .      A
N180  C396  1.350 .      A
C397  C398  1.375 .      A
C397  C402  1.371 .      A
C398  C399  1.374 .      A
C399  C400  1.377 .      A
C400  C401  1.386 .      A
C401  C402  1.378 .      A
C403  N182  1.349 .      A
C403  C407  1.382 .      A
N182  C404  1.346 .      A
C404  N183  1.345 .      A
N183  C405  1.338 .      A
C405  N184  1.337 1_556  A
C405  C407  1.381 .      A
N184  C405  1.337 1_554  A
N184  C406  1.381 .      A
C406  N185  1.406 .      A
N185  C407  1.371 1_554  A
C407  N185  1.371 1_556  A
C408  C409  1.360 .      A
C408  C413  1.365 .      A
C409  C410  1.358 .      A
C410  C411  1.374 .      A
C411  C412  1.376 .      A
C412  C413  1.366 .      A
C414  N187  1.338 .      A
C414  C418  1.381 .      A
N187  C415  1.338 .      A
C415  N188  1.337 .      A
N188  C416  1.327 .      A
C416  N189  1.334 1_565  A
C416  C418  1.361 .      A
N189  C416  1.334 1_545  A
N189  C417  1.386 .      A
C417  N190  1.393 1_545  A
N190  C417  1.393 1_565  A
N190  C418  1.351 .      A
C419  C420  1.376 1_655  A
C419  C424  1.376 .      A
C420  C419  1.376 1_455  A
C420  C421  1.379 1_455  A
C421  C420  1.379 1_655  A
C421  C422  1.388 .      A
C422  C423  1.383 .      A
C423  C424  1.378 .      A
C425  N192  1.343 .      A
C425  C429  1.389 .      A
N192  C426  1.340 .      A
C426  N193  1.349 .      A
N193  C427  1.338 .      A
C427  N194  1.346 .      A
C427  C429  1.386 .      A
N194  C428  1.404 .      A
C428  N195  1.409 .      A
N195  C429  1.372 .      A
C430  C431  1.374 .      A
C430  C435  1.375 1_455  A
C431  C432  1.378 .      A
C432  C433  1.391 .      A
C433  C434  1.380 1_455  A
C434  C433  1.380 1_655  A
C434  C435  1.381 .      A
C435  C430  1.375 1_655  A
C436  N197  1.344 .      A
C436  C440  1.386 .      A
N197  C437  1.344 .      A
C437  N198  1.343 .      A
N198  C438  1.331 .      A
C438  N199  1.346 .      A
C438  C440  1.377 .      A
N199  C439  1.392 .      A
C439  N200  1.406 .      A
N200  C440  1.359 .      A
C441  C442  1.379 .      A
C441  C446  1.376 .      A
C442  C443  1.377 .      A
C443  C444  1.380 .      A
C444  C445  1.381 .      A
C445  C446  1.379 .      A
C447  N202  1.347 .      A
C447  C451  1.366 1_556  A
N202  C448  1.348 .      A
C448  N203  1.349 .      A
N203  C449  1.336 1_556  A
C449  N203  1.336 1_554  A
C449  N204  1.335 .      A
C449  C451  1.354 .      A
N204  C450  1.401 .      A
C450  N205  1.401 .      A
N205  C451  1.360 .      A
C451  C447  1.366 1_554  A
C452  C453  1.364 .      A
C452  C457  1.373 .      A
C453  C454  1.362 .      A
C454  C455  1.373 .      A
C455  C456  1.373 .      A
C456  C457  1.360 .      A
C458  N207  1.347 .      A
C458  C462  1.351 .      A
N207  C459  1.351 .      A
C459  N208  1.351 .      A
N208  C460  1.337 .      A
C460  N209  1.340 .      A
C460  C462  1.363 .      A
N209  C461  1.400 .      A
C461  N210  1.402 .      A
N210  C462  1.350 .      A
C463  C464  1.370 .      A
C463  C468  1.370 .      A
C464  C465  1.377 .      A
C465  C466  1.389 .      A
C466  C467  1.379 1_455  A
C467  C466  1.379 1_655  A
C467  C468  1.380 1_655  A
C468  C467  1.380 1_455  A
C469  N212  1.350 .      A
C469  C473  1.428 1_455  A
N212  C470  1.335 .      A
C470  N213  1.322 .      A
N213  C471  1.330 .      A
C471  N214  1.319 1_455  A
C471  C473  1.389 1_455  A
N214  C471  1.319 1_655  A
N214  C472  1.402 .      A
C472  N215  1.416 .      A
N215  C473  1.397 .      A
C473  C469  1.428 1_655  A
C473  C471  1.389 1_655  A
C474  C475  1.364 .      A
C474  C479  1.370 .      A
C475  C476  1.374 .      A
C476  C477  1.385 .      A
C477  C478  1.390 .      A
C478  C479  1.373 .      A
C480  N217  1.344 .      A
C480  C484  1.396 .      A
N217  C481  1.342 .      A
C481  N218  1.340 .      A
N218  C482  1.324 .      A
C482  N219  1.344 .      A
C482  C484  1.365 .      A
N219  C483  1.390 .      A
C483  N220  1.386 .      A
N220  C484  1.351 .      A
C485  C486  1.375 .      A
C485  C490  1.375 .      A
C486  C487  1.378 .      A
C487  C488  1.377 .      A
C488  C489  1.380 .      A
C489  C490  1.378 .      A
C491  N222  1.349 .      A
C491  C495  1.382 .      A
N222  C492  1.345 .      A
C492  N223  1.344 .      A
N223  C493  1.338 .      A
C493  N224  1.338 .      A
C493  C495  1.363 .      A
N224  C494  1.370 .      A
C494  N225  1.390 .      A
N225  C495  1.361 .      A
C496  C497  1.374 .      A
C496  C501  1.369 .      A
C497  C498  1.366 .      A
C498  C499  1.372 .      A
C499  C500  1.372 .      A
C500  C501  1.363 .      A
C502  N227  1.339 .      A
C502  C506  1.377 .      A
N227  C503  1.332 .      A
C503  N228  1.332 .      A
N228  C504  1.329 .      A
C504  N229  1.321 .      A
C504  C506  1.345 .      A
N229  C505  1.387 .      A
C505  N230  1.392 .      A
N230  C506  1.363 .      A
C507  C508  1.377 .      A
C507  C512  1.377 .      A
C508  C509  1.379 .      A
C509  C510  1.383 .      A
C510  C511  1.386 .      A
C511  C512  1.379 .      A
C513  N232  1.346 .      A
C513  C517  1.392 .      A
N232  C514  1.346 .      A
C514  N233  1.342 .      A
N233  C515  1.334 .      A
C515  N234  1.338 .      A
C515  C517  1.369 .      A
N234  C516  1.390 .      A
C516  N235  1.383 .      A
N235  C517  1.368 .      A
C518  C519  1.364 .      A
C518  C523  1.370 .      A
C519  C520  1.360 .      A
C520  C521  1.374 .      A
C521  C522  1.374 .      A
C522  C523  1.364 .      A
C524  N237  1.348 .      A
C524  C528  1.360 .      A
N237  C525  1.352 .      A
C525  N238  1.343 .      A
N238  C526  1.328 .      A
C526  N239  1.331 .      A
C526  C528  1.342 .      A
N239  C527  1.374 .      A
C527  N240  1.379 .      A
N240  C528  1.341 .      A
C529  C530  1.373 .      A
C529  C534  1.372 .      A
C530  C531  1.378 .      A
C531  C532  1.374 .      A
C532  C533  1.377 .      A
C533  C534  1.375 .      A
C535  N242  1.339 .      A
C535  C539  1.388 .      A
N242  C536  1.340 .      A
C536  N243  1.345 .      A
N243  C537  1.325 .      A
C537  N244  1.347 .      A
C537  C539  1.360 .      A
N244  C538  1.386 .      A
C538  N245  1.404 .      A
N245  C539  1.347 .      A
C540  C541  1.373 1_455  A
C540  C545  1.364 .      A
C541  C540  1.373 1_655  A
C541  C542  1.367 .      A
C542  C543  1.373 1_655  A
C543  C542  1.373 1_455  A
C543  C544  1.371 .      A
C544  C545  1.366 .      A
C546  N247  1.349 .      A
C546  C550  1.364 .      A
N247  C547  1.346 .      A
C547  N248  1.342 1_556  A
N248  C547  1.342 1_554  A
N248  C548  1.336 1_454  A
C548  N248  1.336 1_656  A
C548  N249  1.327 1_556  A
C548  C550  1.357 1_655  A
N249  C548  1.327 1_554  A
N249  C549  1.395 1_554  A
C549  N249  1.395 1_556  A
C549  N250  1.388 .      A
N250  C550  1.360 1_655  A
C550  C548  1.357 1_455  A
C550  N250  1.360 1_455  A
C551  C552  1.365 .      A
C551  C556  1.366 .      A
C552  C553  1.366 .      A
C553  C554  1.374 .      A
C554  C555  1.397 .      A
C555  C556  1.380 .      A
C557  N252  1.348 .      A
C557  C561  1.384 .      A
N252  C558  1.347 .      A
C558  N253  1.341 .      A
N253  C559  1.338 .      A
C559  N254  1.334 .      A
C559  C561  1.354 .      A
N254  C560  1.376 .      A
C560  N255  1.391 .      A
N255  C561  1.366 .      A
C562  C563  1.377 .      A
C562  C567  1.377 .      A
C563  C564  1.379 .      A
C564  C565  1.384 .      A
C565  C566  1.383 .      A
C566  C567  1.379 .      A
C568  N257  1.349 .      A
C568  C572  1.382 .      A
N257  C569  1.346 .      A
C569  N258  1.343 .      A
N258  C570  1.338 .      A
C570  N259  1.338 .      A
C570  C572  1.361 .      A
N259  C571  1.395 .      A
C571  N260  1.393 .      A
N260  C572  1.362 .      A
C573  C574  1.374 .      A
C573  C578  1.375 .      A
C574  C575  1.379 .      A
C575  C576  1.390 .      A
C576  C577  1.380 .      A
C577  C578  1.380 .      A
C579  N262  1.349 .      A
C579  C583  1.388 .      A
N262  C580  1.346 .      A
C580  N263  1.343 .      A
N263  C581  1.335 .      A
C581  N264  1.344 .      A
C581  C583  1.368 .      A
N264  C582  1.387 .      A
C582  N265  1.390 .      A
N265  C583  1.361 .      A
C584  C585  1.375 .      A
C584  C589  1.376 .      A
C585  C586  1.377 .      A
C586  C587  1.381 .      A
C587  C588  1.386 .      A
C588  C589  1.377 .      A
C590  N267  1.350 .      A
C590  C594  1.391 .      A
N267  C591  1.343 .      A
C591  N268  1.340 .      A
N268  C592  1.336 .      A
C592  N269  1.329 .      A
C592  C594  1.364 .      A
N269  C593  1.395 .      A
C593  N270  1.387 .      A
N270  C594  1.372 .      A
C595  C596  1.369 .      A
C595  C600  1.377 .      A
C596  C597  1.368 .      A
C597  C598  1.375 .      A
C598  C599  1.368 .      A
C599  C600  1.362 .      A
C601  N272  1.350 .      A
C601  C605  1.358 .      A
N272  C602  1.345 .      A
C602  N273  1.345 .      A
N273  C603  1.335 .      A
C603  N274  1.337 .      A
C603  C605  1.358 .      A
N274  C604  1.405 .      A
C604  N275  1.399 .      A
N275  C605  1.349 .      A
C606  C607  1.372 .      A
C606  C611  1.368 .      A
C607  C608  1.362 .      A
C608  C609  1.368 .      A
C609  C610  1.387 .      A
C610  C611  1.374 .      A
C612  N277  1.349 .      A
C612  C616  1.382 .      A
N277  C613  1.347 .      A
C613  N278  1.345 .      A
N278  C614  1.336 .      A
C614  N279  1.337 .      A
C614  C616  1.364 .      A
N279  C615  1.395 .      A
C615  N280  1.394 .      A
N280  C616  1.364 .      A
C617  C618  1.362 .      A
C617  C622  1.375 .      A
C618  C619  1.348 .      A
C619  C620  1.349 .      A
C620  C621  1.387 .      A
C621  C622  1.376 .      A
C623  N282  1.345 .      A
C623  C627  1.337 1_455  A
N282  C624  1.346 .      A
C624  N283  1.345 .      A
N283  C625  1.335 .      A
C625  N284  1.333 1_455  A
C625  C627  1.347 1_455  A
N284  C625  1.333 1_655  A
N284  C626  1.402 .      A
C626  N285  1.393 .      A
N285  C627  1.345 .      A
C627  C623  1.337 1_655  A
C627  C625  1.347 1_655  A
C628  C629  1.351 .      A
C628  C633  1.364 .      A
C629  C630  1.358 .      A
C630  C631  1.366 .      A
C631  C632  1.351 .      A
C632  C633  1.341 .      A
C634  N287  1.350 .      A
C634  C638  1.344 .      A
N287  C635  1.353 .      A
C635  N288  1.351 .      A
N288  C636  1.337 .      A
C636  N289  1.335 .      A
C636  C638  1.348 .      A
N289  C637  1.385 .      A
C637  N290  1.395 .      A
N290  C638  1.346 .      A
C639  C640  1.375 .      A
C639  C644  1.375 .      A
C640  C641  1.379 .      A
C641  C642  1.382 .      A
C642  C643  1.386 .      A
C643  C644  1.379 .      A
C645  N292  1.349 .      A
C645  C649  1.388 .      A
N292  C646  1.343 1_565  A
C646  N292  1.343 1_545  A
C646  N293  1.338 .      A
N293  C647  1.334 1_545  A
C647  N293  1.334 1_565  A
C647  N294  1.332 .      A
C647  C649  1.372 .      A
N294  C648  1.395 .      A
C648  N295  1.403 .      A
N295  C649  1.377 .      A
C650  C651  1.366 .      A
C650  C655  1.369 .      A
C651  C652  1.371 .      A
C652  C653  1.386 .      A
C653  C654  1.390 .      A
C654  C655  1.374 .      A
C656  N297  1.333 .      A
C656  C660  1.392 .      A
N297  C657  1.337 .      A
C657  N298  1.347 .      A
N298  C658  1.334 .      A
C658  N299  1.349 1_554  A
C658  C660  1.371 .      A
N299  C658  1.349 1_556  A
N299  C659  1.386 .      A
C659  N300  1.390 1_556  A
N300  C659  1.390 1_554  A
N300  C660  1.349 .      A
C661  C662  1.359 .      A
C661  C666  1.371 .      A
C662  C663  1.364 .      A
C663  C664  1.372 .      A
C664  C665  1.360 .      A
C665  C666  1.350 .      A
C667  N302  1.348 .      A
C667  C671  1.350 .      A
N302  C668  1.345 .      A
C668  N303  1.332 .      A
N303  C669  1.323 .      A
C669  N304  1.322 .      A
C669  C671  1.354 .      A
N304  C670  1.383 .      A
C670  N305  1.404 .      A
N305  C671  1.341 .      A
C672  C673  1.370 .      A
C672  C677  1.376 .      A
C673  C674  1.377 .      A
C674  C675  1.374 .      A
C675  C676  1.369 .      A
C676  C677  1.371 .      A
C678  N307  1.344 .      A
C678  C682  1.375 .      A
N307  C679  1.339 .      A
C679  N308  1.342 .      A
N308  C680  1.339 .      A
C680  N309  1.334 .      A
C680  C682  1.382 .      A
N309  C681  1.407 .      A
C681  N310  1.410 .      A
N310  C682  1.368 .      A
C683  C684  1.366 .      A
C683  C688  1.379 .      A
C684  C685  1.370 .      A
C685  C686  1.371 .      A
C686  C687  1.377 .      A
C687  C688  1.376 .      A
C689  N312  1.345 .      A
C689  C693  1.364 .      A
N312  C690  1.355 .      A
C690  N313  1.345 .      A
N313  C691  1.334 .      A
C691  N314  1.336 .      A
C691  C693  1.348 .      A
N314  C692  1.357 .      A
C692  N315  1.372 .      A
N315  C693  1.338 .      A
C694  C695  1.374 .      A
C694  C699  1.376 .      A
C695  C696  1.378 .      A
C696  C697  1.389 .      A
C697  C698  1.380 .      A
C698  C699  1.378 .      A
C700  N317  1.352 .      A
C700  C704  1.398 .      A
N317  C701  1.346 .      A
C701  N318  1.340 .      A
N318  C702  1.338 .      A
C702  N319  1.332 .      A
C702  C704  1.372 .      A
N319  C703  1.380 .      A
C703  N320  1.388 .      A
N320  C704  1.377 .      A
