data_str_m1_o12004_AFI
_audit_creation_date              2015-10-01T06:28:05-0700
_symmetry_space_group_name_H-M    P1
_symmetry_Int_Tables_number       1
_space_group_crystal_system       triclinic
loop_
_symmetry_equiv_pos_as_xyz
  x,y,z
_cell_length_a                    17.4651056
_cell_length_b                    28.2826503
_cell_length_c                    28.3516764
_cell_angle_alpha                 61.1231779
_cell_angle_beta                  86.0072048
_cell_angle_gamma                 87.2081880
_cell_volume                      12231.6610252

loop_
_atom_site_label
_atom_site_type_symbol
_atom_site_description
_atom_site_fract_x
_atom_site_fract_y
_atom_site_fract_z
_atom_type_partial_charge
Zn1   Zn    Zn3+2 0.964262 0.762596 0.479342 0.000000
Zn2   Zn    Zn3+2 0.853880 0.559970 0.464846 0.000000
Zn3   Zn    Zn3+2 0.831273 0.889520 0.241309 0.000000
Zn4   Zn    Zn3+2 0.964930 0.095993 0.028620 0.000000
Zn5   Zn    Zn3+2 0.980676 0.361365 0.686189 0.000000
Zn6   Zn    Zn3+2 0.465445 0.702536 0.011040 0.000000
Zn7   Zn    Zn3+2 0.844817 0.691340 0.011723 0.000000
Zn8   Zn    Zn3+2 0.358370 0.562876 0.900403 0.000000
Zn9   Zn    Zn3+2 0.338798 0.690096 0.236303 0.000000
Zn10  Zn    Zn3+2 0.343772 0.913175 0.794525 0.000000
Zn11  Zn    Zn3+2 0.988607 0.555535 0.895495 0.000000
Zn12  Zn    Zn3+2 0.472816 0.338892 0.906505 0.000000
Zn13  Zn    Zn3+2 0.981665 0.895015 0.802319 0.000000
Zn14  Zn    Zn3+2 0.470101 0.769527 0.686271 0.000000
Zn15  Zn    Zn3+2 0.472041 0.119568 0.790616 0.000000
Zn16  Zn    Zn3+2 0.971268 0.681985 0.224874 0.000000
Zn17  Zn    Zn3+2 0.455612 0.900442 0.240664 0.000000
Zn18  Zn    Zn3+2 0.476014 0.570873 0.469957 0.000000
Zn19  Zn    Zn3+2 0.361037 0.361280 0.682574 0.000000
Zn20  Zn    Zn3+2 0.337668 0.100316 0.021071 0.000000
Zn21  Zn    Zn3+2 0.836234 0.765049 0.696546 0.000000
Zn22  Zn    Zn3+2 0.852987 0.339284 0.910850 0.000000
Zn23  Zn    Zn3+2 0.843928 0.118931 0.803426 0.000000
Zn24  Zn    Zn3+2 0.331916 0.777168 0.485395 0.000000
C1    C     C_3   0.709862 0.731360 0.502688 0.000000
N1    N     N_3   0.788098 0.710268 0.512728 0.000000
C2    C     C_3   0.810469 0.694458 0.472136 0.000000
C3    C     C_R   0.887745 0.667781 0.477347 0.000000
N2    N     N_R   0.953344 0.693053 0.476677 0.000000
C4    C     C_R   0.009010 0.658636 0.476671 0.000000
C5    C     C_R   0.085960 0.667184 0.466054 0.000000
C6    C     C_R   0.133197 0.623066 0.476630 0.000000
C7    C     C_R   0.101523 0.574162 0.490291 0.000000
C8    C     C_R   0.024792 0.571475 0.484738 0.000000
C9    C     C_R   0.978626 0.613661 0.480722 0.000000
N3    N     N_R   0.901817 0.618860 0.477351 0.000000
H1    H     H_    0.692588 0.748729 0.529565 0.000000
H2    H     H_    0.705088 0.762897 0.460219 0.000000
H3    H     H_    0.670675 0.698348 0.510979 0.000000
H4    H     H_    0.781513 0.675255 0.549316 0.000000
H5    H     H_    0.768053 0.665310 0.477119 0.000000
H6    H     H_    0.812132 0.731275 0.432595 0.000000
H7    H     H_    0.109044 0.706649 0.450239 0.000000
H8    H     H_    0.194549 0.626297 0.475044 0.000000
H9    H     H_    0.137005 0.538702 0.502254 0.000000
H10   H     H_    0.003811 0.536419 0.485390 0.000000
C10   C     C_3   0.780903 0.569369 0.578975 0.000000
N4    N     N_3   0.806072 0.514078 0.597609 0.000000
C11   C     C_3   0.889772 0.506310 0.597929 0.000000
C12   C     C_R   0.908601 0.467700 0.577662 0.000000
N5    N     N_R   0.939499 0.415589 0.607283 0.000000
C13   C     C_R   0.945087 0.399308 0.569490 0.000000
C14   C     C_R   0.970758 0.350089 0.575633 0.000000
C15   C     C_R   0.974533 0.342098 0.531126 0.000000
C16   C     C_R   0.958087 0.384244 0.480872 0.000000
C17   C     C_R   0.932836 0.433647 0.475318 0.000000
C18   C     C_R   0.921352 0.439181 0.520831 0.000000
N6    N     N_R   0.895051 0.482924 0.524743 0.000000
H11   H     H_    0.743827 0.581676 0.544889 0.000000
H12   H     H_    0.746859 0.573523 0.611124 0.000000
H13   H     H_    0.829802 0.595574 0.567347 0.000000
H14   H     H_    0.784026 0.501372 0.572558 0.000000
H15   H     H_    0.920667 0.543559 0.572292 0.000000
H16   H     H_    0.911653 0.491236 0.638383 0.000000
H17   H     H_    0.988864 0.318488 0.613510 0.000000
H18   H     H_    0.994653 0.303691 0.535000 0.000000
H19   H     H_    0.966369 0.378763 0.445665 0.000000
H20   H     H_    0.926732 0.466990 0.435942 0.000000
C19   C     C_3   0.122508 0.823742 0.342486 0.000000
N7    N     N_3   0.049224 0.810118 0.372413 0.000000
C20   C     C_3   0.991131 0.821878 0.334200 0.000000
C21   C     C_R   0.916734 0.830710 0.356032 0.000000
N8    N     N_R   0.860031 0.862990 0.322397 0.000000
C22   C     C_R   0.813548 0.872425 0.356904 0.000000
C23   C     C_R   0.756961 0.911106 0.344440 0.000000
C24   C     C_R   0.717434 0.915543 0.385944 0.000000
C25   C     C_R   0.730099 0.878142 0.438740 0.000000
C26   C     C_R   0.791210 0.842091 0.450254 0.000000
C27   C     C_R   0.836694 0.843436 0.408377 0.000000
N9    N     N_R   0.904045 0.817211 0.409860 0.000000
H21   H     H_    0.130136 0.804494 0.316552 0.000000
H22   H     H_    0.124675 0.867908 0.316923 0.000000
H23   H     H_    0.168533 0.810623 0.371319 0.000000
H24   H     H_    0.041135 0.838832 0.385226 0.000000
H25   H     H_    0.004706 0.860908 0.298235 0.000000
H26   H     H_    0.986687 0.788349 0.325121 0.000000
H27   H     H_    0.748564 0.940464 0.303771 0.000000
H28   H     H_    0.675782 0.947698 0.377311 0.000000
H29   H     H_    0.694520 0.878952 0.471053 0.000000
H30   H     H_    0.801300 0.813276 0.491120 0.000000
C28   C     C_3   0.771912 0.949524 0.053100 0.000000
N10   N     N_3   0.790941 0.978402 0.081190 0.000000
C29   C     C_3   0.865437 0.958920 0.102447 0.000000
C30   C     C_R   0.889869 0.986877 0.131065 0.000000
N11   N     N_R   0.920407 0.038415 0.106682 0.000000
C31   C     C_R   0.932016 0.044222 0.150144 0.000000
C32   C     C_R   0.944131 0.091479 0.150578 0.000000
C33   C     C_R   0.946333 0.090010 0.199996 0.000000
C34   C     C_R   0.936046 0.041879 0.247667 0.000000
C35   C     C_R   0.919503 0.995132 0.246553 0.000000
C36   C     C_R   0.916557 0.997531 0.197129 0.000000
N12   N     N_R   0.887539 0.960474 0.186592 0.000000
H31   H     H_    0.768082 0.979107 0.010228 0.000000
H32   H     H_    0.816163 0.918413 0.057632 0.000000
H33   H     H_    0.716298 0.929280 0.069380 0.000000
H34   H     H_    0.751747 0.967265 0.114153 0.000000
H35   H     H_    0.859948 0.915973 0.132158 0.000000
H36   H     H_    0.909320 0.963752 0.070956 0.000000
H37   H     H_    0.948043 0.129251 0.113590 0.000000
H38   H     H_    0.955180 0.126782 0.201534 0.000000
H39   H     H_    0.937743 0.041417 0.285928 0.000000
H40   H     H_    0.907318 0.958719 0.283523 0.000000
C37   C     C_3   0.672484 0.576314 0.974283 0.000000
N13   N     N_3   0.697025 0.623992 0.975659 0.000000
C38   C     C_3   0.647333 0.628523 0.015437 0.000000
C39   C     C_R   0.653988 0.680448 0.013026 0.000000
N14   N     N_R   0.722579 0.702730 0.014610 0.000000
C40   C     C_R   0.695559 0.746909 0.016641 0.000000
C41   C     C_R   0.737456 0.786330 0.016110 0.000000
C42   C     C_R   0.699896 0.831560 0.013227 0.000000
C43   C     C_R   0.621181 0.836207 0.010321 0.000000
C44   C     C_R   0.580042 0.795695 0.010489 0.000000
C45   C     C_R   0.618003 0.751522 0.014282 0.000000
N15   N     N_R   0.587920 0.710126 0.011989 0.000000
H41   H     H_    0.718045 0.563808 0.953720 0.000000
H42   H     H_    0.662802 0.542612 0.015633 0.000000
H43   H     H_    0.618865 0.585175 0.952626 0.000000
H44   H     H_    0.682958 0.657887 0.940042 0.000000
H45   H     H_    0.590098 0.631162 0.002208 0.000000
H46   H     H_    0.655920 0.595143 0.056655 0.000000
H47   H     H_    0.798377 0.784916 0.010835 0.000000
H48   H     H_    0.731983 0.864276 0.011076 0.000000
H49   H     H_    0.592528 0.871773 0.007621 0.000000
H50   H     H_    0.520626 0.798904 0.004380 0.000000
C46   C     C_3   0.242651 0.684328 0.893740 0.000000
N16   N     N_3   0.290356 0.689923 0.930091 0.000000
C47   C     C_3   0.369004 0.686941 0.912378 0.000000
C48   C     C_R   0.406811 0.637802 0.951438 0.000000
N17   N     N_R   0.444120 0.637628 0.993028 0.000000
C49   C     C_R   0.468475 0.585259 0.019627 0.000000
C50   C     C_R   0.504989 0.559134 0.067623 0.000000
C51   C     C_R   0.529496 0.506278 0.085757 0.000000
C52   C     C_R   0.521520 0.481521 0.054547 0.000000
C53   C     C_R   0.484608 0.508122 0.006688 0.000000
C54   C     C_R   0.452966 0.558351 0.992236 0.000000
N18   N     N_R   0.410604 0.589540 0.949468 0.000000
H51   H     H_    0.183340 0.674480 0.911405 0.000000
H52   H     H_    0.243578 0.722060 0.854913 0.000000
H53   H     H_    0.266705 0.651481 0.887467 0.000000
H54   H     H_    0.280870 0.658104 0.968936 0.000000
H55   H     H_    0.375347 0.692080 0.871018 0.000000
H56   H     H_    0.398843 0.718043 0.914945 0.000000
H57   H     H_    0.517312 0.579830 0.089703 0.000000
H58   H     H_    0.559287 0.485343 0.122771 0.000000
H59   H     H_    0.545793 0.441639 0.067179 0.000000
H60   H     H_    0.484638 0.490677 0.980518 0.000000
C55   C     C_3   0.357430 0.850474 0.026971 0.000000
N19   N     N_3   0.404400 0.801580 0.048937 0.000000
C56   C     C_3   0.365705 0.762480 0.097690 0.000000
C57   C     C_R   0.400366 0.707541 0.120911 0.000000
N20   N     N_R   0.416897 0.680711 0.091198 0.000000
C58   C     C_R   0.399446 0.629246 0.128727 0.000000
C59   C     C_R   0.371954 0.589807 0.119672 0.000000
C60   C     C_R   0.349616 0.541276 0.163520 0.000000
C61   C     C_R   0.349465 0.534142 0.215452 0.000000
C62   C     C_R   0.364769 0.577259 0.223199 0.000000
C63   C     C_R   0.385922 0.624823 0.178740 0.000000
N21   N     N_R   0.384029 0.673664 0.175352 0.000000
H61   H     H_    0.380371 0.878266 0.985775 0.000000
H62   H     H_    0.297594 0.842026 0.024486 0.000000
H63   H     H_    0.358019 0.869319 0.053295 0.000000
H64   H     H_    0.451827 0.811884 0.062123 0.000000
H65   H     H_    0.370167 0.776128 0.127046 0.000000
H66   H     H_    0.304933 0.759435 0.091822 0.000000
H67   H     H_    0.361471 0.597564 0.079737 0.000000
H68   H     H_    0.329755 0.509329 0.157086 0.000000
H69   H     H_    0.331281 0.496289 0.249398 0.000000
H70   H     H_    0.357989 0.573996 0.262758 0.000000
C64   C     C_3   0.558510 0.939439 0.829177 0.000000
N22   N     N_3   0.485947 0.911786 0.846062 0.000000
C65   C     C_3   0.499293 0.857600 0.888508 0.000000
C66   C     C_R   0.426669 0.826608 0.903217 0.000000
N23   N     N_R   0.413114 0.777940 0.951341 0.000000
C67   C     C_R   0.336543 0.781462 0.958438 0.000000
C68   C     C_R   0.292194 0.748440 0.003333 0.000000
C69   C     C_R   0.222441 0.768622 0.012090 0.000000
C70   C     C_R   0.196121 0.818530 0.973409 0.000000
C71   C     C_R   0.235190 0.845643 0.923385 0.000000
C72   C     C_R   0.306556 0.826688 0.916729 0.000000
N24   N     N_R   0.361091 0.853447 0.877597 0.000000
H71   H     H_    0.549372 0.982410 0.802683 0.000000
H72   H     H_    0.586271 0.936807 0.864061 0.000000
H73   H     H_    0.594443 0.924140 0.805607 0.000000
H74   H     H_    0.471418 0.907569 0.813574 0.000000
H75   H     H_    0.547277 0.840423 0.874683 0.000000
H76   H     H_    0.514918 0.860688 0.923334 0.000000
H77   H     H_    0.312166 0.709495 0.032711 0.000000
H78   H     H_    0.188132 0.745432 0.048904 0.000000
H79   H     H_    0.140952 0.833221 0.980841 0.000000
H80   H     H_    0.211573 0.882080 0.892094 0.000000
C73   C     C_3   0.702213 0.868738 0.875579 0.000000
N25   N     N_3   0.755701 0.827979 0.908045 0.000000
C74   C     C_3   0.828875 0.852444 0.899315 0.000000
C75   C     C_R   0.892021 0.812862 0.909198 0.000000
N26   N     N_R   0.898130 0.761921 0.954453 0.000000
C76   C     C_R   0.974158 0.754859 0.956761 0.000000
C77   C     C_R   0.013836 0.709972 0.992402 0.000000
C78   C     C_R   0.091625 0.707707 0.983373 0.000000
C79   C     C_R   0.126503 0.750217 0.939465 0.000000
C80   C     C_R   0.085679 0.796055 0.907117 0.000000
C81   C     C_R   0.009861 0.795938 0.914061 0.000000
N27   N     N_R   0.960376 0.832691 0.881273 0.000000
H81   H     H_    0.693125 0.864607 0.839453 0.000000
H82   H     H_    0.649491 0.861068 0.901183 0.000000
H83   H     H_    0.721936 0.909768 0.863776 0.000000
H84   H     H_    0.758202 0.799844 0.895137 0.000000
H85   H     H_    0.837212 0.884263 0.857098 0.000000
H86   H     H_    0.832403 0.870704 0.925965 0.000000
H87   H     H_    0.985873 0.674322 0.021655 0.000000
H88   H     H_    0.124598 0.672181 0.009112 0.000000
H89   H     H_    0.187164 0.749467 0.932587 0.000000
H90   H     H_    0.111015 0.832911 0.880020 0.000000
C82   C     C_3   0.928272 0.844608 0.023698 0.000000
N28   N     N_3   0.933673 0.787383 0.041184 0.000000
C83   C     C_3   0.889233 0.759013 0.091797 0.000000
C84   C     C_R   0.902977 0.700319 0.114319 0.000000
N29   N     N_R   0.891725 0.671250 0.087430 0.000000
C85   C     C_R   0.926230 0.623200 0.120431 0.000000
C86   C     C_R   0.942640 0.579000 0.113344 0.000000
C87   C     C_R   0.973538 0.532857 0.154904 0.000000
C88   C     C_R   0.996122 0.533206 0.200387 0.000000
C89   C     C_R   0.988412 0.580076 0.203844 0.000000
C90   C     C_R   0.953094 0.623865 0.163847 0.000000
N30   N     N_R   0.938410 0.671374 0.162245 0.000000
H91   H     H_    0.961355 0.866461 0.984695 0.000000
H92   H     H_    0.867500 0.858072 0.018649 0.000000
H93   H     H_    0.952291 0.853331 0.053681 0.000000
H94   H     H_    0.991099 0.775507 0.047985 0.000000
H95   H     H_    0.905152 0.772310 0.120327 0.000000
H96   H     H_    0.828280 0.768231 0.087169 0.000000
H97   H     H_    0.937757 0.580409 0.075721 0.000000
H98   H     H_    0.983044 0.496874 0.150911 0.000000
H99   H     H_    0.021266 0.497360 0.232419 0.000000
H100  H     H_    0.003842 0.581407 0.238835 0.000000
C91   C     C_3   0.046983 0.715919 0.832950 0.000000
N31   N     N_3   0.003143 0.668061 0.865995 0.000000
C92   C     C_3   0.982441 0.667806 0.915820 0.000000
C93   C     C_R   0.922805 0.628013 0.947325 0.000000
N32   N     N_R   0.875258 0.631275 0.987274 0.000000
C94   C     C_R   0.845605 0.581410 0.013319 0.000000
C95   C     C_R   0.802862 0.559376 0.061548 0.000000
C96   C     C_R   0.784390 0.505490 0.085270 0.000000
C97   C     C_R   0.807252 0.475291 0.060003 0.000000
C98   C     C_R   0.850681 0.498063 0.011701 0.000000
C99   C     C_R   0.871261 0.551177 0.989300 0.000000
N33   N     N_R   0.920899 0.579570 0.946596 0.000000
H101  H     H_    0.010373 0.748487 0.803809 0.000000
H102  H     H_    0.072482 0.729229 0.859020 0.000000
H103  H     H_    0.093675 0.705921 0.810591 0.000000
H104  H     H_    0.042788 0.636997 0.875302 0.000000
H105  H     H_    0.033968 0.656229 0.939538 0.000000
H106  H     H_    0.959495 0.707555 0.906077 0.000000
H107  H     H_    0.786354 0.583123 0.081261 0.000000
H108  H     H_    0.751310 0.487002 0.123314 0.000000
H109  H     H_    0.791489 0.433398 0.078447 0.000000
H110  H     H_    0.865914 0.474350 0.992522 0.000000
C100  C     C_3   0.275198 0.735535 0.680053 0.000000
N34   N     N_3   0.269280 0.684328 0.728963 0.000000
C101  C     C_3   0.299078 0.689231 0.772683 0.000000
C102  C     C_R   0.378229 0.667101 0.779944 0.000000
N35   N     N_R   0.396856 0.616669 0.821749 0.000000
C103  C     C_R   0.465327 0.606292 0.803470 0.000000
C104  C     C_R   0.517156 0.566228 0.832547 0.000000
C105  C     C_R   0.586760 0.564256 0.807165 0.000000
C106  C     C_R   0.605608 0.604053 0.755204 0.000000
C107  C     C_R   0.555819 0.647004 0.728709 0.000000
C108  C     C_R   0.485134 0.646950 0.753170 0.000000
N36   N     N_R   0.434462 0.688682 0.738635 0.000000
H111  H     H_    0.267865 0.729489 0.644880 0.000000
H112  H     H_    0.229423 0.763499 0.681033 0.000000
H113  H     H_    0.332184 0.752014 0.676538 0.000000
H114  H     H_    0.302901 0.655877 0.723076 0.000000
H115  H     H_    0.297305 0.731735 0.764566 0.000000
H116  H     H_    0.262919 0.663889 0.808677 0.000000
H117  H     H_    0.505524 0.537659 0.874329 0.000000
H118  H     H_    0.626768 0.531545 0.828145 0.000000
H119  H     H_    0.661071 0.603030 0.736426 0.000000
H120  H     H_    0.574340 0.680962 0.691396 0.000000
C109  C     C_3   0.177393 0.532015 0.771408 0.000000
N37   N     N_3   0.149215 0.520281 0.825572 0.000000
C110  C     C_3   0.209222 0.537594 0.846060 0.000000
C111  C     C_R   0.183121 0.552767 0.888261 0.000000
N38   N     N_R   0.108969 0.552877 0.910693 0.000000
C112  C     C_R   0.125544 0.554746 0.956013 0.000000
C113  C     C_R   0.077664 0.546921 0.999777 0.000000
C114  C     C_R   0.107776 0.547285 0.043238 0.000000
C115  C     C_R   0.184773 0.554654 0.043775 0.000000
C116  C     C_R   0.232806 0.559783 0.001274 0.000000
C117  C     C_R   0.202240 0.559214 0.958094 0.000000
N39   N     N_R   0.240284 0.559851 0.915000 0.000000
H121  H     H_    0.138303 0.516097 0.753771 0.000000
H122  H     H_    0.180610 0.575682 0.744258 0.000000
H123  H     H_    0.236344 0.515561 0.772342 0.000000
H124  H     H_    0.146197 0.478434 0.849368 0.000000
H125  H     H_    0.250936 0.503750 0.864414 0.000000
H126  H     H_    0.239862 0.572337 0.812867 0.000000
H127  H     H_    0.019789 0.535049 0.004076 0.000000
H128  H     H_    0.071547 0.539696 0.078041 0.000000
H129  H     H_    0.207787 0.554190 0.078418 0.000000
H130  H     H_    0.292766 0.562818 0.003742 0.000000
C118  C     C_3   0.459167 0.509894 0.746773 0.000000
N40   N     N_3   0.465773 0.472165 0.803650 0.000000
C119  C     C_3   0.398561 0.478686 0.832623 0.000000
C120  C     C_R   0.412114 0.455418 0.890810 0.000000
N41   N     N_R   0.424616 0.400446 0.923280 0.000000
C121  C     C_R   0.397310 0.393506 0.972379 0.000000
C122  C     C_R   0.384430 0.346176 0.020353 0.000000
C123  C     C_R   0.351300 0.348979 0.064659 0.000000
C124  C     C_R   0.329758 0.398301 0.060860 0.000000
C125  C     C_R   0.340926 0.445043 0.012548 0.000000
C126  C     C_R   0.374827 0.441729 0.969130 0.000000
N42   N     N_R   0.387075 0.482674 0.918756 0.000000
H131  H     H_    0.507596 0.502306 0.724131 0.000000
H132  H     H_    0.404402 0.503645 0.733112 0.000000
H133  H     H_    0.461733 0.552028 0.739135 0.000000
H134  H     H_    0.514564 0.480461 0.817130 0.000000
H135  H     H_    0.381760 0.521743 0.815696 0.000000
H136  H     H_    0.350662 0.456928 0.828614 0.000000
H137  H     H_    0.399630 0.307050 0.024585 0.000000
H138  H     H_    0.341773 0.312334 0.102427 0.000000
H139  H     H_    0.303811 0.400221 0.095652 0.000000
H140  H     H_    0.324994 0.483218 0.009424 0.000000
C127  C     C_3   0.137234 0.512102 0.310683 0.000000
N43   N     N_3   0.111979 0.568133 0.289401 0.000000
C128  C     C_3   0.172027 0.602575 0.252630 0.000000
C129  C     C_R   0.158386 0.660257 0.239355 0.000000
N44   N     N_R   0.089988 0.686534 0.218724 0.000000
C130  C     C_R   0.114636 0.735307 0.182777 0.000000
C131  C     C_R   0.078267 0.770514 0.137770 0.000000
C132  C     C_R   0.115699 0.816564 0.101173 0.000000
C133  C     C_R   0.186649 0.826859 0.112388 0.000000
C134  C     C_R   0.223845 0.788995 0.156406 0.000000
C135  C     C_R   0.188522 0.741673 0.189141 0.000000
N45   N     N_R   0.219768 0.695057 0.225716 0.000000
H141  H     H_    0.089557 0.485350 0.335699 0.000000
H142  H     H_    0.153695 0.503688 0.276933 0.000000
H143  H     H_    0.186963 0.503659 0.336007 0.000000
H144  H     H_    0.101336 0.576736 0.320914 0.000000
H145  H     H_    0.228250 0.588378 0.270162 0.000000
H146  H     H_    0.172993 0.600293 0.214624 0.000000
H147  H     H_    0.023620 0.761130 0.130901 0.000000
H148  H     H_    0.088786 0.844908 0.064806 0.000000
H149  H     H_    0.214893 0.863595 0.086077 0.000000
H150  H     H_    0.279422 0.796630 0.163611 0.000000
C136  C     C_3   0.201360 0.885316 0.198089 0.000000
N46   N     N_3   0.278208 0.867071 0.192904 0.000000
C137  C     C_3   0.294941 0.820230 0.243871 0.000000
C138  C     C_R   0.373837 0.802571 0.238263 0.000000
N47   N     N_R   0.388982 0.761471 0.225230 0.000000
C139  C     C_R   0.456165 0.777461 0.196339 0.000000
C140  C     C_R   0.502404 0.751515 0.174652 0.000000
C141  C     C_R   0.559354 0.780880 0.137389 0.000000
C142  C     C_R   0.572264 0.833303 0.126293 0.000000
C143  C     C_R   0.539130 0.852041 0.159171 0.000000
C144  C     C_R   0.478484 0.824728 0.192130 0.000000
N48   N     N_R   0.431681 0.839735 0.221981 0.000000
H151  H     H_    0.161207 0.855662 0.199676 0.000000
H152  H     H_    0.191268 0.887182 0.235768 0.000000
H153  H     H_    0.193027 0.926302 0.163716 0.000000
H154  H     H_    0.315634 0.898108 0.184151 0.000000
H155  H     H_    0.291025 0.831441 0.275768 0.000000
H156  H     H_    0.254031 0.787878 0.253008 0.000000
H157  H     H_    0.496820 0.709752 0.186336 0.000000
H158  H     H_    0.594147 0.762330 0.117702 0.000000
H159  H     H_    0.613348 0.858607 0.095249 0.000000
H160  H     H_    0.560686 0.887264 0.157799 0.000000
C145  C     C_3   0.633642 0.595244 0.310806 0.000000
N49   N     N_3   0.570345 0.601630 0.343294 0.000000
C146  C     C_3   0.505768 0.623185 0.309469 0.000000
C147  C     C_R   0.434058 0.620356 0.341877 0.000000
N50   N     N_R   0.426618 0.586270 0.397492 0.000000
C148  C     C_R   0.353013 0.571651 0.403682 0.000000
C149  C     C_R   0.315086 0.532942 0.448956 0.000000
C150  C     C_R   0.242146 0.520252 0.445243 0.000000
C151  C     C_R   0.202141 0.554434 0.401135 0.000000
C152  C     C_R   0.238860 0.597184 0.358105 0.000000
C153  C     C_R   0.316496 0.600433 0.357228 0.000000
N51   N     N_R   0.365500 0.632591 0.316358 0.000000
H161  H     H_    0.688020 0.593556 0.329438 0.000000
H162  H     H_    0.626840 0.557464 0.308838 0.000000
H163  H     H_    0.635417 0.630198 0.269493 0.000000
H164  H     H_    0.585745 0.632082 0.350919 0.000000
H165  H     H_    0.515785 0.665140 0.278502 0.000000
H166  H     H_    0.498163 0.598998 0.288914 0.000000
H167  H     H_    0.339710 0.510275 0.486317 0.000000
H168  H     H_    0.214109 0.486607 0.479119 0.000000
H169  H     H_    0.141637 0.548131 0.401997 0.000000
H170  H     H_    0.207207 0.627474 0.327250 0.000000
C154  C     C_3   0.158936 0.838871 0.723396 0.000000
N52   N     N_3   0.141794 0.817882 0.780586 0.000000
C155  C     C_3   0.196382 0.838998 0.801305 0.000000
C156  C     C_R   0.172392 0.893141 0.794447 0.000000
N53   N     N_R   0.099312 0.915916 0.781395 0.000000
C157  C     C_R   0.116177 0.968653 0.749458 0.000000
C158  C     C_R   0.069142 0.009331 0.713688 0.000000
C159  C     C_R   0.099634 0.059631 0.680943 0.000000
C160  C     C_R   0.175623 0.068831 0.684015 0.000000
C161  C     C_R   0.222377 0.027895 0.719277 0.000000
C162  C     C_R   0.191793 0.977379 0.750995 0.000000
N54   N     N_R   0.228849 0.930010 0.780846 0.000000
H171  H     H_    0.112454 0.828007 0.705883 0.000000
H172  H     H_    0.165175 0.883056 0.703198 0.000000
H173  H     H_    0.212582 0.819638 0.717677 0.000000
H174  H     H_    0.159514 0.777955 0.795989 0.000000
H175  H     H_    0.208275 0.809965 0.843169 0.000000
H176  H     H_    0.251661 0.842218 0.779700 0.000000
H177  H     H_    0.010181 0.002505 0.710157 0.000000
H178  H     H_    0.064091 0.091907 0.652675 0.000000
H179  H     H_    0.198596 0.108265 0.657889 0.000000
H180  H     H_    0.281999 0.035654 0.718469 0.000000
C163  C     C_3   0.540834 0.754786 0.866752 0.000000
N55   N     N_3   0.478996 0.773890 0.829001 0.000000
C164  C     C_3   0.498365 0.822050 0.779279 0.000000
C165  C     C_R   0.429495 0.839650 0.746507 0.000000
N56   N     N_R   0.416208 0.824798 0.707746 0.000000
C166  C     C_R   0.360797 0.861084 0.679623 0.000000
C167  C     C_R   0.322158 0.867175 0.636160 0.000000
C168  C     C_R   0.276957 0.912917 0.609077 0.000000
C169  C     C_R   0.270356 0.951747 0.625451 0.000000
C170  C     C_R   0.303603 0.942529 0.671862 0.000000
C171  C     C_R   0.344587 0.895530 0.699699 0.000000
N57   N     N_R   0.381473 0.880492 0.744942 0.000000
H181  H     H_    0.527646 0.760130 0.901982 0.000000
H182  H     H_    0.543022 0.710557 0.888282 0.000000
H183  H     H_    0.596761 0.772340 0.846108 0.000000
H184  H     H_    0.430084 0.785021 0.844097 0.000000
H185  H     H_    0.515638 0.853836 0.787565 0.000000
H186  H     H_    0.547308 0.816065 0.756382 0.000000
H187  H     H_    0.324946 0.838061 0.622474 0.000000
H188  H     H_    0.248326 0.919033 0.574032 0.000000
H189  H     H_    0.238102 0.988682 0.602562 0.000000
H190  H     H_    0.303075 0.973302 0.683407 0.000000
C172  C     C_3   0.284272 0.967928 0.917332 0.000000
N58   N     N_3   0.328403 0.965667 0.873768 0.000000
C173  C     C_3   0.331035 0.019890 0.829980 0.000000
C174  C     C_R   0.392038 0.021780 0.791127 0.000000
N59   N     N_R   0.445086 0.062077 0.768558 0.000000
C175  C     C_R   0.477009 0.054970 0.727343 0.000000
C176  C     C_R   0.534046 0.083593 0.690008 0.000000
C177  C     C_R   0.557119 0.070177 0.650357 0.000000
C178  C     C_R   0.527174 0.025725 0.650861 0.000000
C179  C     C_R   0.473199 0.995027 0.690580 0.000000
C180  C     C_R   0.447239 0.011097 0.727736 0.000000
N60   N     N_R   0.395048 0.987353 0.769422 0.000000
H191  H     H_    0.322938 0.977163 0.940720 0.000000
H192  H     H_    0.239239 0.999757 0.901457 0.000000
H193  H     H_    0.257228 0.928528 0.943298 0.000000
H194  H     H_    0.296414 0.945165 0.860217 0.000000
H195  H     H_    0.275480 0.030699 0.810346 0.000000
H196  H     H_    0.342313 0.048753 0.844161 0.000000
H197  H     H_    0.561843 0.114759 0.691625 0.000000
H198  H     H_    0.600188 0.093702 0.619553 0.000000
H199  H     H_    0.547037 0.014404 0.620660 0.000000
H200  H     H_    0.453097 0.960155 0.690770 0.000000
C181  C     C_3   0.759804 0.526749 0.882276 0.000000
N61   N     N_3   0.817166 0.557277 0.840045 0.000000
C182  C     C_3   0.815032 0.612091 0.829894 0.000000
C183  C     C_R   0.886695 0.641061 0.801405 0.000000
N62   N     N_R   0.957248 0.615927 0.816743 0.000000
C184  C     C_R   0.002647 0.648625 0.773697 0.000000
C185  C     C_R   0.077417 0.641621 0.762329 0.000000
C186  C     C_R   0.107628 0.674585 0.710728 0.000000
C187  C     C_R   0.070477 0.721769 0.676888 0.000000
C188  C     C_R   0.998870 0.732648 0.692527 0.000000
C189  C     C_R   0.963582 0.692929 0.738468 0.000000
N63   N     N_R   0.889390 0.691495 0.754401 0.000000
H201  H     H_    0.743864 0.491284 0.878571 0.000000
H202  H     H_    0.783867 0.511925 0.921957 0.000000
H203  H     H_    0.707951 0.552162 0.878528 0.000000
H204  H     H_    0.796969 0.559700 0.805277 0.000000
H205  H     H_    0.769404 0.629885 0.801644 0.000000
H206  H     H_    0.807487 0.612041 0.868805 0.000000
H207  H     H_    0.109399 0.610209 0.791845 0.000000
H208  H     H_    0.160578 0.664205 0.696226 0.000000
H209  H     H_    0.096999 0.749567 0.638173 0.000000
H210  H     H_    0.971050 0.769969 0.667238 0.000000
C190  C     C_3   0.975170 0.506613 0.742292 0.000000
N64   N     N_3   0.979575 0.469476 0.799741 0.000000
C191  C     C_3   0.923966 0.488335 0.826869 0.000000
C192  C     C_R   0.925185 0.455865 0.886557 0.000000
N65   N     N_R   0.904068 0.401990 0.918486 0.000000
C193  C     C_R   0.935665 0.389665 0.965472 0.000000
C194  C     C_R   0.934923 0.341217 0.012629 0.000000
C195  C     C_R   0.975463 0.336421 0.054917 0.000000
C196  C     C_R   0.016781 0.379486 0.049387 0.000000
C197  C     C_R   0.015008 0.428283 0.002377 0.000000
C198  C     C_R   0.972103 0.432917 0.961594 0.000000
N66   N     N_R   0.960922 0.477054 0.913744 0.000000
H211  H     H_    0.023806 0.499483 0.719281 0.000000
H212  H     H_    0.921149 0.500342 0.728321 0.000000
H213  H     H_    0.978082 0.549053 0.733904 0.000000
H214  H     H_    0.031301 0.477019 0.810363 0.000000
H215  H     H_    0.942019 0.528917 0.816909 0.000000
H216  H     H_    0.867675 0.491473 0.811801 0.000000
H217  H     H_    0.901986 0.308038 0.017862 0.000000
H218  H     H_    0.975712 0.298646 0.092214 0.000000
H219  H     H_    0.050261 0.374996 0.082019 0.000000
H220  H     H_    0.049174 0.460621 0.997387 0.000000
C199  C     C_3   0.216027 0.273565 0.816032 0.000000
N67   N     N_3   0.296629 0.286013 0.801704 0.000000
C200  C     C_3   0.328256 0.308278 0.833022 0.000000
C201  C     C_R   0.393684 0.345297 0.802159 0.000000
N68   N     N_R   0.449816 0.356609 0.827643 0.000000
C202  C     C_R   0.503455 0.379659 0.787582 0.000000
C203  C     C_R   0.574652 0.393252 0.791933 0.000000
C204  C     C_R   0.629080 0.397569 0.753176 0.000000
C205  C     C_R   0.610035 0.400561 0.705708 0.000000
C206  C     C_R   0.535563 0.392300 0.699606 0.000000
C207  C     C_R   0.482653 0.381529 0.741512 0.000000
N69   N     N_R   0.411346 0.363003 0.747577 0.000000
H221  H     H_    0.210237 0.233944 0.852178 0.000000
H222  H     H_    0.184666 0.304692 0.822727 0.000000
H223  H     H_    0.190054 0.271308 0.782630 0.000000
H224  H     H_    0.299741 0.313158 0.761294 0.000000
H225  H     H_    0.284404 0.329169 0.846429 0.000000
H226  H     H_    0.350352 0.274070 0.869444 0.000000
H227  H     H_    0.589526 0.395228 0.826805 0.000000
H228  H     H_    0.687132 0.391210 0.763200 0.000000
H229  H     H_    0.654513 0.403679 0.675898 0.000000
H230  H     H_    0.522754 0.388209 0.665369 0.000000
C208  C     C_3   0.561767 0.189062 0.886667 0.000000
N70   N     N_3   0.505279 0.219865 0.899731 0.000000
C209  C     C_3   0.496158 0.192793 0.957723 0.000000
C210  C     C_R   0.424911 0.213801 0.970765 0.000000
N71   N     N_R   0.413184 0.268416 0.952225 0.000000
C211  C     C_R   0.339054 0.270597 0.966964 0.000000
C212  C     C_R   0.293547 0.315569 0.954792 0.000000
C213  C     C_R   0.226833 0.309052 0.985989 0.000000
C214  C     C_R   0.203583 0.257640 0.023196 0.000000
C215  C     C_R   0.242791 0.212977 0.025009 0.000000
C216  C     C_R   0.310287 0.220308 0.995679 0.000000
N72   N     N_R   0.361206 0.182506 0.996082 0.000000
H231  H     H_    0.584597 0.212251 0.845744 0.000000
H232  H     H_    0.609236 0.183590 0.910872 0.000000
H233  H     H_    0.538738 0.150317 0.893832 0.000000
H234  H     H_    0.453785 0.216175 0.885935 0.000000
H235  H     H_    0.491800 0.148640 0.973998 0.000000
H236  H     H_    0.544575 0.202129 0.975049 0.000000
H237  H     H_    0.310086 0.355066 0.923801 0.000000
H238  H     H_    0.192542 0.343856 0.981075 0.000000
H239  H     H_    0.151815 0.252925 0.048067 0.000000
H240  H     H_    0.225358 0.173289 0.051766 0.000000
C217  C     C_3   0.779826 0.235228 0.892748 0.000000
N73   N     N_3   0.701285 0.241836 0.907960 0.000000
C218  C     C_3   0.675637 0.295952 0.872009 0.000000
C219  C     C_R   0.667138 0.325267 0.903167 0.000000
N74   N     N_R   0.595412 0.332899 0.923697 0.000000
C220  C     C_R   0.617342 0.345960 0.960688 0.000000
C221  C     C_R   0.573717 0.344019 0.003144 0.000000
C222  C     C_R   0.606468 0.355100 0.039577 0.000000
C223  C     C_R   0.683635 0.366810 0.033485 0.000000
C224  C     C_R   0.729074 0.363164 0.993486 0.000000
C225  C     C_R   0.695024 0.350727 0.958796 0.000000
N75   N     N_R   0.729985 0.337372 0.923080 0.000000
H241  H     H_    0.806135 0.201116 0.926736 0.000000
H242  H     H_    0.781030 0.227007 0.858410 0.000000
H243  H     H_    0.813002 0.270633 0.883898 0.000000
H244  H     H_    0.697865 0.237479 0.946583 0.000000
H245  H     H_    0.716429 0.315834 0.836813 0.000000
H246  H     H_    0.618740 0.293557 0.858815 0.000000
H247  H     H_    0.519139 0.326759 0.011611 0.000000
H248  H     H_    0.572493 0.352425 0.074093 0.000000
H249  H     H_    0.709293 0.374911 0.062366 0.000000
H250  H     H_    0.789483 0.368201 0.991147 0.000000
C226  C     C_3   0.104193 0.958412 0.891315 0.000000
N76   N     N_3   0.037223 0.952714 0.867287 0.000000
C227  C     C_3   0.016115 0.005998 0.825195 0.000000
C228  C     C_R   0.938146 0.005270 0.807445 0.000000
N77   N     N_R   0.922182 0.965568 0.794276 0.000000
C229  C     C_R   0.858062 0.985181 0.767367 0.000000
C230  C     C_R   0.819788 0.964284 0.740991 0.000000
C231  C     C_R   0.763760 0.995622 0.706863 0.000000
C232  C     C_R   0.750556 0.047786 0.697790 0.000000
C233  C     C_R   0.788095 0.066785 0.726296 0.000000
C234  C     C_R   0.837556 0.033804 0.764083 0.000000
N78   N     N_R   0.882969 0.047462 0.792462 0.000000
H251  H     H_    0.114717 0.920426 0.928412 0.000000
H252  H     H_    0.153846 0.968256 0.861912 0.000000
H253  H     H_    0.095672 0.990573 0.902773 0.000000
H254  H     H_    0.992419 0.937853 0.896611 0.000000
H255  H     H_    0.024326 0.037531 0.834840 0.000000
H256  H     H_    0.059242 0.019914 0.792560 0.000000
H257  H     H_    0.832889 0.925127 0.745594 0.000000
H258  H     H_    0.734063 0.980747 0.684583 0.000000
H259  H     H_    0.713189 0.074607 0.666841 0.000000
H260  H     H_    0.786771 0.108117 0.714106 0.000000
C235  C     C_3   0.800878 0.722862 0.880688 0.000000
N79   N     N_3   0.861840 0.754023 0.842077 0.000000
C236  C     C_3   0.832582 0.805165 0.801132 0.000000
C237  C     C_R   0.890645 0.829028 0.756561 0.000000
N80   N     N_R   0.942898 0.867072 0.751463 0.000000
C238  C     C_R   0.968041 0.886896 0.699510 0.000000
C239  C     C_R   0.022097 0.925096 0.670252 0.000000
C240  C     C_R   0.036950 0.940546 0.616423 0.000000
C241  C     C_R   0.997661 0.916998 0.592930 0.000000
C242  C     C_R   0.946103 0.876888 0.624315 0.000000
C243  C     C_R   0.933486 0.862277 0.676378 0.000000
N81   N     N_R   0.885788 0.823779 0.710989 0.000000
H261  H     H_    0.809226 0.719568 0.920191 0.000000
H262  H     H_    0.743686 0.741227 0.867427 0.000000
H263  H     H_    0.803712 0.681573 0.886282 0.000000
H264  H     H_    0.881518 0.732419 0.822508 0.000000
H265  H     H_    0.779767 0.800430 0.784653 0.000000
H266  H     H_    0.820933 0.833624 0.816495 0.000000
H267  H     H_    0.057220 0.939439 0.688767 0.000000
H268  H     H_    0.080116 0.970273 0.593036 0.000000
H269  H     H_    0.008975 0.929250 0.550820 0.000000
H270  H     H_    0.913298 0.855830 0.611634 0.000000
C244  C     C_3   0.572296 0.665000 0.604515 0.000000
N82   N     N_3   0.537860 0.715348 0.597707 0.000000
C245  C     C_3   0.455258 0.710151 0.600819 0.000000
C246  C     C_R   0.421051 0.763890 0.585219 0.000000
N83   N     N_R   0.448122 0.792898 0.607535 0.000000
C247  C     C_R   0.445296 0.843905 0.566732 0.000000
C248  C     C_R   0.468642 0.889816 0.566230 0.000000
C249  C     C_R   0.457332 0.938747 0.520455 0.000000
C250  C     C_R   0.422493 0.940760 0.476949 0.000000
C251  C     C_R   0.398479 0.893974 0.478669 0.000000
C252  C     C_R   0.410670 0.845683 0.524251 0.000000
N84   N     N_R   0.392051 0.795466 0.535021 0.000000
H271  H     H_    0.634924 0.665197 0.608560 0.000000
H272  H     H_    0.547276 0.631360 0.641807 0.000000
H273  H     H_    0.561392 0.659813 0.569260 0.000000
H274  H     H_    0.553628 0.745247 0.558733 0.000000
H275  H     H_    0.442216 0.697937 0.571349 0.000000
H276  H     H_    0.434319 0.680581 0.642091 0.000000
H277  H     H_    0.493695 0.887863 0.600888 0.000000
H278  H     H_    0.475062 0.975662 0.518735 0.000000
H279  H     H_    0.413744 0.979260 0.441454 0.000000
H280  H     H_    0.371586 0.896084 0.444907 0.000000
C253  C     C_3   0.668565 0.926487 0.563703 0.000000
N85   N     N_3   0.702349 0.877858 0.606216 0.000000
C254  C     C_3   0.665961 0.830699 0.610222 0.000000
C255  C     C_R   0.656412 0.790054 0.667889 0.000000
N86   N     N_R   0.717509 0.769379 0.701131 0.000000
C256  C     C_R   0.681492 0.739616 0.748681 0.000000
C257  C     C_R   0.713380 0.710964 0.795854 0.000000
C258  C     C_R   0.669177 0.673082 0.837983 0.000000
C259  C     C_R   0.592549 0.670333 0.833797 0.000000
C260  C     C_R   0.559419 0.709748 0.789120 0.000000
C261  C     C_R   0.605741 0.739925 0.744966 0.000000
N87   N     N_R   0.585667 0.771363 0.694309 0.000000
H281  H     H_    0.610861 0.934070 0.577709 0.000000
H282  H     H_    0.704935 0.961366 0.554140 0.000000
H283  H     H_    0.665022 0.922544 0.526885 0.000000
H284  H     H_    0.689430 0.878749 0.642297 0.000000
H285  H     H_    0.609188 0.841623 0.592711 0.000000
H286  H     H_    0.702318 0.813144 0.588796 0.000000
H287  H     H_    0.773604 0.713137 0.797128 0.000000
H288  H     H_    0.695024 0.643965 0.873284 0.000000
H289  H     H_    0.557716 0.641580 0.867702 0.000000
H290  H     H_    0.498825 0.715420 0.789413 0.000000
C262  C     C_3   0.692116 0.983011 0.927997 0.000000
N88   N     N_3   0.638119 0.023628 0.893715 0.000000
C263  C     C_3   0.667868 0.045911 0.838511 0.000000
C264  C     C_R   0.659636 0.105605 0.807387 0.000000
N89   N     N_R   0.593764 0.130105 0.779418 0.000000
C265  C     C_R   0.624423 0.169502 0.732415 0.000000
C266  C     C_R   0.588261 0.200236 0.684952 0.000000
C267  C     C_R   0.632310 0.229149 0.637980 0.000000
C268  C     C_R   0.711284 0.227558 0.639001 0.000000
C269  C     C_R   0.746604 0.200638 0.687472 0.000000
C270  C     C_R   0.702077 0.171447 0.734185 0.000000
N90   N     N_R   0.726424 0.133658 0.782709 0.000000
H291  H     H_    0.667661 0.963317 0.970030 0.000000
H292  H     H_    0.701410 0.951760 0.915340 0.000000
H293  H     H_    0.747436 0.001946 0.925310 0.000000
H294  H     H_    0.629339 0.053466 0.904839 0.000000
H295  H     H_    0.729512 0.035487 0.837709 0.000000
H296  H     H_    0.638061 0.028329 0.817809 0.000000
H297  H     H_    0.527684 0.198119 0.682428 0.000000
H298  H     H_    0.605099 0.251159 0.599984 0.000000
H299  H     H_    0.745594 0.248438 0.601713 0.000000
H300  H     H_    0.808256 0.198354 0.687209 0.000000
C271  C     C_3   0.612885 0.279505 0.746399 0.000000
N91   N     N_3   0.537433 0.286036 0.725430 0.000000
C272  C     C_3   0.484677 0.247915 0.766007 0.000000
C273  C     C_R   0.422444 0.239732 0.739004 0.000000
N92   N     N_R   0.378492 0.280778 0.701450 0.000000
C274  C     C_R   0.344482 0.255182 0.679142 0.000000
C275  C     C_R   0.304246 0.278615 0.633436 0.000000
C276  C     C_R   0.285864 0.247138 0.610885 0.000000
C277  C     C_R   0.306441 0.192928 0.635100 0.000000
C278  C     C_R   0.345774 0.169504 0.681994 0.000000
C279  C     C_R   0.366061 0.201908 0.702696 0.000000
N93   N     N_R   0.414977 0.190504 0.741776 0.000000
H301  H     H_    0.653462 0.304637 0.713243 0.000000
H302  H     H_    0.610894 0.292742 0.777182 0.000000
H303  H     H_    0.633538 0.237620 0.764754 0.000000
H304  H     H_    0.540426 0.282162 0.690760 0.000000
H305  H     H_    0.512768 0.208095 0.788387 0.000000
H306  H     H_    0.462445 0.262800 0.793681 0.000000
H307  H     H_    0.293847 0.321407 0.613116 0.000000
H308  H     H_    0.257120 0.265050 0.573427 0.000000
H309  H     H_    0.293889 0.169302 0.616074 0.000000
H310  H     H_    0.361793 0.127747 0.699564 0.000000
C280  C     C_3   0.221258 0.118114 0.869809 0.000000
N94   N     N_3   0.288373 0.148640 0.839036 0.000000
C281  C     C_3   0.332285 0.161694 0.872987 0.000000
C282  C     C_R   0.389122 0.118338 0.899924 0.000000
N95   N     N_R   0.433658 0.098200 0.870847 0.000000
C283  C     C_R   0.451943 0.049128 0.909583 0.000000
C284  C     C_R   0.483264 0.008570 0.901411 0.000000
C285  C     C_R   0.494164 0.959127 0.945601 0.000000
C286  C     C_R   0.468657 0.950337 0.996129 0.000000
C287  C     C_R   0.428963 0.990328 0.002273 0.000000
C288  C     C_R   0.424229 0.041000 0.959035 0.000000
N96   N     N_R   0.386337 0.085548 0.955696 0.000000
H311  H     H_    0.189879 0.106372 0.844483 0.000000
H312  H     H_    0.239544 0.081175 0.905744 0.000000
H313  H     H_    0.182308 0.142725 0.882178 0.000000
H314  H     H_    0.269362 0.184464 0.806869 0.000000
H315  H     H_    0.363776 0.198727 0.847054 0.000000
H316  H     H_    0.294617 0.166246 0.903690 0.000000
H317  H     H_    0.501981 0.015789 0.861696 0.000000
H318  H     H_    0.522086 0.927332 0.940584 0.000000
H319  H     H_    0.477267 0.911359 0.030836 0.000000
H320  H     H_    0.401812 0.980794 0.040222 0.000000
C289  C     C_3   0.088882 0.708210 0.323884 0.000000
N97   N     N_3   0.054500 0.657236 0.338536 0.000000
C290  C     C_3   0.972779 0.662432 0.347515 0.000000
C291  C     C_R   0.934151 0.618348 0.345542 0.000000
N98   N     N_R   0.927872 0.620058 0.296936 0.000000
C292  C     C_R   0.878005 0.579689 0.309643 0.000000
C293  C     C_R   0.839921 0.566682 0.276437 0.000000
C294  C     C_R   0.790577 0.523500 0.299642 0.000000
C295  C     C_R   0.775161 0.496380 0.354893 0.000000
C296  C     C_R   0.806896 0.513851 0.386873 0.000000
C297  C     C_R   0.858641 0.554706 0.363439 0.000000
N99   N     N_R   0.892206 0.578138 0.387852 0.000000
H321  H     H_    0.150981 0.706039 0.314876 0.000000
H322  H     H_    0.064289 0.740339 0.287225 0.000000
H323  H     H_    0.078658 0.717368 0.357444 0.000000
H324  H     H_    0.075411 0.629075 0.375372 0.000000
H325  H     H_    0.959738 0.663342 0.384753 0.000000
H326  H     H_    0.950742 0.701083 0.316713 0.000000
H327  H     H_    0.844111 0.589858 0.233472 0.000000
H328  H     H_    0.761767 0.512030 0.274254 0.000000
H329  H     H_    0.735690 0.463185 0.372569 0.000000
H330  H     H_    0.794938 0.494492 0.429698 0.000000
C298  C     C_3   0.046086 0.917360 0.142117 0.000000
N100  N     N_3   0.988751 0.877029 0.155165 0.000000
C299  C     C_3   0.002356 0.829968 0.206595 0.000000
C300  C     C_R   0.930664 0.798925 0.224976 0.000000
N101  N     N_R   0.863059 0.826185 0.224493 0.000000
C301  C     C_R   0.812660 0.797808 0.215227 0.000000
C302  C     C_R   0.764891 0.821800 0.173755 0.000000
C303  C     C_R   0.736777 0.790347 0.154161 0.000000
C304  C     C_R   0.747608 0.735193 0.179841 0.000000
C305  C     C_R   0.806357 0.714517 0.213777 0.000000
C306  C     C_R   0.844721 0.750099 0.222739 0.000000
N102  N     N_R   0.920858 0.750488 0.224683 0.000000
H331  H     H_    0.025285 0.956796 0.111705 0.000000
H332  H     H_    0.056538 0.922152 0.177628 0.000000
H333  H     H_    0.098056 0.907270 0.124185 0.000000
H334  H     H_    0.991833 0.865574 0.125281 0.000000
H335  H     H_    0.051248 0.806537 0.202909 0.000000
H336  H     H_    0.016461 0.842850 0.235173 0.000000
H337  H     H_    0.752687 0.864411 0.155216 0.000000
H338  H     H_    0.711601 0.808951 0.116130 0.000000
H339  H     H_    0.722884 0.711053 0.164833 0.000000
H340  H     H_    0.829024 0.675331 0.223761 0.000000
C307  C     C_3   0.529383 0.916415 0.368498 0.000000
N103  N     N_3   0.545640 0.871085 0.358202 0.000000
C308  C     C_3   0.493253 0.827907 0.392196 0.000000
C309  C     C_R   0.416032 0.841566 0.370365 0.000000
N104  N     N_R   0.401600 0.873913 0.316295 0.000000
C310  C     C_R   0.328144 0.889539 0.319343 0.000000
C311  C     C_R   0.283170 0.923771 0.278179 0.000000
C312  C     C_R   0.219330 0.947811 0.289512 0.000000
C313  C     C_R   0.203959 0.938101 0.341609 0.000000
C314  C     C_R   0.246705 0.899608 0.382258 0.000000
C315  C     C_R   0.302124 0.870084 0.371132 0.000000
N105  N     N_R   0.353622 0.835106 0.404848 0.000000
H341  H     H_    0.544831 0.905424 0.409880 0.000000
H342  H     H_    0.563627 0.951382 0.339065 0.000000
H343  H     H_    0.468236 0.929149 0.363310 0.000000
H344  H     H_    0.601015 0.856872 0.370159 0.000000
H345  H     H_    0.513438 0.788823 0.396024 0.000000
H346  H     H_    0.489259 0.823091 0.433455 0.000000
H347  H     H_    0.297670 0.933537 0.237560 0.000000
H348  H     H_    0.185391 0.977079 0.257281 0.000000
H349  H     H_    0.160722 0.961951 0.350193 0.000000
H350  H     H_    0.248150 0.901746 0.418087 0.000000
C316  C     C_3   0.588379 0.999313 0.047468 0.000000
N106  N     N_3   0.528408 0.024144 0.066694 0.000000
C317  C     C_3   0.485752 0.980424 0.110085 0.000000
C318  C     C_R   0.416136 0.998473 0.128775 0.000000
N107  N     N_R   0.410123 0.977690 0.183666 0.000000
C319  C     C_R   0.377636 0.019654 0.188744 0.000000
C320  C     C_R   0.367757 0.025493 0.234559 0.000000
C321  C     C_R   0.341134 0.074387 0.229493 0.000000
C322  C     C_R   0.328026 0.117248 0.179109 0.000000
C323  C     C_R   0.339452 0.111006 0.133725 0.000000
C324  C     C_R   0.361429 0.061437 0.139377 0.000000
N108  N     N_R   0.380915 0.048976 0.099635 0.000000
H351  H     H_    0.586237 0.015722 0.003477 0.000000
H352  H     H_    0.643736 0.006622 0.058570 0.000000
H353  H     H_    0.582754 0.955195 0.066277 0.000000
H354  H     H_    0.493544 0.048705 0.035458 0.000000
H355  H     H_    0.472517 0.947111 0.102700 0.000000
H356  H     H_    0.522154 0.964044 0.144730 0.000000
H357  H     H_    0.383105 0.993760 0.273666 0.000000
H358  H     H_    0.333733 0.079857 0.264736 0.000000
H359  H     H_    0.311047 0.156247 0.175064 0.000000
H360  H     H_    0.336058 0.145236 0.095042 0.000000
C325  C     C_3   0.572225 0.743893 0.291847 0.000000
N109  N     N_3   0.569213 0.798163 0.284920 0.000000
C326  C     C_3   0.642857 0.821328 0.261535 0.000000
C327  C     C_R   0.642838 0.878715 0.246514 0.000000
N110  N     N_R   0.575417 0.908343 0.241052 0.000000
C328  C     C_R   0.602483 0.957219 0.226952 0.000000
C329  C     C_R   0.561034 0.000172 0.224846 0.000000
C330  C     C_R   0.597418 0.047773 0.210081 0.000000
C331  C     C_R   0.675637 0.050789 0.198857 0.000000
C332  C     C_R   0.717431 0.005666 0.204933 0.000000
C333  C     C_R   0.680253 0.958128 0.220577 0.000000
N111  N     N_R   0.709859 0.907960 0.234856 0.000000
H361  H     H_    0.520809 0.721928 0.316222 0.000000
H362  H     H_    0.577000 0.745078 0.252616 0.000000
H363  H     H_    0.625162 0.722433 0.309812 0.000000
H364  H     H_    0.561377 0.795982 0.322221 0.000000
H365  H     H_    0.688704 0.800465 0.289176 0.000000
H366  H     H_    0.651194 0.817982 0.225190 0.000000
H367  H     H_    0.503347 0.994556 0.239839 0.000000
H368  H     H_    0.565316 0.081983 0.208830 0.000000
H369  H     H_    0.704904 0.087675 0.188138 0.000000
H370  H     H_    0.777324 0.008633 0.199334 0.000000
C334  C     C_3   0.271924 0.729101 0.366239 0.000000
N112  N     N_3   0.308012 0.691720 0.414414 0.000000
C335  C     C_3   0.388290 0.704440 0.410028 0.000000
C336  C     C_R   0.408510 0.680454 0.465903 0.000000
N113  N     N_R   0.370168 0.700747 0.496981 0.000000
C337  C     C_R   0.346703 0.655309 0.540890 0.000000
C338  C     C_R   0.309576 0.649838 0.587290 0.000000
C339  C     C_R   0.278754 0.600141 0.622700 0.000000
C340  C     C_R   0.277658 0.560476 0.607338 0.000000
C341  C     C_R   0.318793 0.567150 0.561098 0.000000
C342  C     C_R   0.365009 0.611611 0.534655 0.000000
N114  N     N_R   0.414800 0.624843 0.491746 0.000000
H371  H     H_    0.281432 0.770398 0.358796 0.000000
H372  H     H_    0.295119 0.721777 0.333042 0.000000
H373  H     H_    0.209844 0.721914 0.373112 0.000000
H374  H     H_    0.304361 0.653453 0.418345 0.000000
H375  H     H_    0.422396 0.685493 0.389198 0.000000
H376  H     H_    0.397038 0.747872 0.388794 0.000000
H377  H     H_    0.302985 0.683445 0.595269 0.000000
H378  H     H_    0.249150 0.594164 0.659778 0.000000
H379  H     H_    0.246186 0.523847 0.632115 0.000000
H380  H     H_    0.317899 0.536630 0.549048 0.000000
C343  C     C_3   0.572871 0.540479 0.620596 0.000000
N115  N     N_3   0.542918 0.512124 0.595138 0.000000
C344  C     C_3   0.463688 0.497288 0.614186 0.000000
C345  C     C_R   0.435099 0.470717 0.584394 0.000000
N116  N     N_R   0.453521 0.493299 0.529939 0.000000
C346  C     C_R   0.453593 0.450664 0.521177 0.000000
C347  C     C_R   0.472967 0.450190 0.473608 0.000000
C348  C     C_R   0.476073 0.400908 0.474409 0.000000
C349  C     C_R   0.463630 0.353748 0.522700 0.000000
C350  C     C_R   0.443788 0.355663 0.569903 0.000000
C351  C     C_R   0.433539 0.405171 0.567502 0.000000
N117  N     N_R   0.415875 0.416528 0.608323 0.000000
H381  H     H_    0.602507 0.511668 0.656989 0.000000
H382  H     H_    0.614293 0.570659 0.591868 0.000000
H383  H     H_    0.525925 0.561121 0.631876 0.000000
H384  H     H_    0.576241 0.477408 0.605511 0.000000
H385  H     H_    0.456291 0.472809 0.657832 0.000000
H386  H     H_    0.432750 0.533620 0.607388 0.000000
H387  H     H_    0.487630 0.486777 0.437028 0.000000
H388  H     H_    0.492316 0.398871 0.437931 0.000000
H389  H     H_    0.471583 0.315107 0.523763 0.000000
H390  H     H_    0.443249 0.319206 0.607560 0.000000
C352  C     C_3   0.673094 0.399814 0.508550 0.000000
N118  N     N_3   0.671795 0.458271 0.475858 0.000000
C353  C     C_3   0.656201 0.481937 0.511034 0.000000
C354  C     C_R   0.662369 0.541883 0.479366 0.000000
N119  N     N_R   0.732806 0.567506 0.460893 0.000000
C355  C     C_R   0.709951 0.618567 0.429861 0.000000
C356  C     C_R   0.754790 0.660573 0.394199 0.000000
C357  C     C_R   0.724838 0.711578 0.377107 0.000000
C358  C     C_R   0.652947 0.718238 0.397274 0.000000
C359  C     C_R   0.603297 0.675355 0.422482 0.000000
C360  C     C_R   0.633220 0.625046 0.436675 0.000000
N120  N     N_R   0.598587 0.577020 0.464336 0.000000
H391  H     H_    0.668347 0.381356 0.482152 0.000000
H392  H     H_    0.728050 0.386399 0.528856 0.000000
H393  H     H_    0.624529 0.386452 0.539190 0.000000
H394  H     H_    0.627251 0.469398 0.449693 0.000000
H395  H     H_    0.597820 0.471635 0.529128 0.000000
H396  H     H_    0.697179 0.465316 0.543528 0.000000
H397  H     H_    0.814298 0.655400 0.385748 0.000000
H398  H     H_    0.761844 0.745666 0.354302 0.000000
H399  H     H_    0.634871 0.757823 0.390396 0.000000
H400  H     H_    0.545809 0.681185 0.434023 0.000000
C361  C     C_3   0.160211 0.365312 0.531566 0.000000
N121  N     N_3   0.138814 0.352059 0.587084 0.000000
C362  C     C_3   0.171514 0.392130 0.597501 0.000000
C363  C     C_R   0.171509 0.374635 0.656416 0.000000
N122  N     N_R   0.103321 0.376737 0.684689 0.000000
C364  C     C_R   0.131164 0.391373 0.718989 0.000000
C365  C     C_R   0.092406 0.401862 0.756311 0.000000
C366  C     C_R   0.134177 0.409274 0.791609 0.000000
C367  C     C_R   0.211921 0.417500 0.782318 0.000000
C368  C     C_R   0.248891 0.415038 0.739385 0.000000
C369  C     C_R   0.208906 0.395481 0.713044 0.000000
N123  N     N_R   0.238381 0.379861 0.678005 0.000000
H401  H     H_    0.138814 0.333780 0.523511 0.000000
H402  H     H_    0.134340 0.404902 0.503622 0.000000
H403  H     H_    0.223497 0.366678 0.524514 0.000000
H404  H     H_    0.162062 0.314295 0.612174 0.000000
H405  H     H_    0.230983 0.401562 0.579887 0.000000
H406  H     H_    0.136838 0.429969 0.577955 0.000000
H407  H     H_    0.031895 0.404015 0.759020 0.000000
H408  H     H_    0.106188 0.410443 0.825905 0.000000
H409  H     H_    0.243508 0.425298 0.809071 0.000000
H410  H     H_    0.307591 0.426798 0.728033 0.000000
C370  C     C_3   0.117015 0.148384 0.146688 0.000000
N124  N     N_3   0.091933 0.138049 0.104661 0.000000
C371  C     C_3   0.137992 0.093986 0.104524 0.000000
C372  C     C_R   0.144846 0.097802 0.049846 0.000000
N125  N     N_R   0.083031 0.081535 0.033157 0.000000
C373  C     C_R   0.117411 0.050754 0.014227 0.000000
C374  C     C_R   0.083850 0.008525 0.014019 0.000000
C375  C     C_R   0.130284 0.969162 0.011298 0.000000
C376  C     C_R   0.208253 0.970695 0.014833 0.000000
C377  C     C_R   0.239820 0.013429 0.015848 0.000000
C378  C     C_R   0.194605 0.054221 0.012924 0.000000
N126  N     N_R   0.215638 0.087941 0.030013 0.000000
H411  H     H_    0.077179 0.178110 0.150744 0.000000
H412  H     H_    0.116837 0.110302 0.185633 0.000000
H413  H     H_    0.175432 0.165220 0.136270 0.000000
H414  H     H_    0.097932 0.172597 0.067482 0.000000
H415  H     H_    0.195468 0.092301 0.119142 0.000000
H416  H     H_    0.109903 0.055378 0.132939 0.000000
H417  H     H_    0.022669 0.004783 0.019945 0.000000
H418  H     H_    0.105651 0.934886 0.011583 0.000000
H419  H     H_    0.245037 0.937581 0.019210 0.000000
H420  H     H_    0.295396 0.011820 0.028026 0.000000
C379  C     C_3   0.857714 0.936833 0.487929 0.000000
N127  N     N_3   0.845742 0.883129 0.533577 0.000000
C380  C     C_3   0.907577 0.847523 0.531685 0.000000
C381  C     C_R   0.892504 0.789256 0.569345 0.000000
N128  N     N_R   0.862763 0.765558 0.622786 0.000000
C382  C     C_R   0.856152 0.714068 0.633867 0.000000
C383  C     C_R   0.817142 0.673836 0.677425 0.000000
C384  C     C_R   0.823258 0.622298 0.684119 0.000000
C385  C     C_R   0.868641 0.612270 0.648169 0.000000
C386  C     C_R   0.900976 0.654169 0.602130 0.000000
C387  C     C_R   0.889815 0.705656 0.594178 0.000000
N129  N     N_R   0.910927 0.752753 0.551188 0.000000
H421  H     H_    0.853144 0.936244 0.449451 0.000000
H422  H     H_    0.813577 0.965163 0.490373 0.000000
H423  H     H_    0.915102 0.951369 0.488502 0.000000
H424  H     H_    0.794185 0.869219 0.529392 0.000000
H425  H     H_    0.913008 0.852050 0.491113 0.000000
H426  H     H_    0.963112 0.858360 0.539612 0.000000
H427  H     H_    0.781356 0.681885 0.705227 0.000000
H428  H     H_    0.793463 0.589494 0.717459 0.000000
H429  H     H_    0.875130 0.571686 0.654375 0.000000
H430  H     H_    0.932353 0.645478 0.573589 0.000000
C388  C     C_3   0.722242 0.220152 0.080480 0.000000
N130  N     N_3   0.797934 0.233247 0.053176 0.000000
C389  C     C_3   0.817305 0.195114 0.033526 0.000000
C390  C     C_R   0.887844 0.212539 0.996811 0.000000
N131  N     N_R   0.903155 0.266170 0.960927 0.000000
C391  C     C_R   0.979248 0.265138 0.952224 0.000000
C392  C     C_R   0.026161 0.308686 0.923856 0.000000
C393  C     C_R   0.103005 0.298955 0.918163 0.000000
C394  C     C_R   0.128818 0.247120 0.933805 0.000000
C395  C     C_R   0.079869 0.204525 0.959561 0.000000
C396  C     C_R   0.006648 0.213695 0.974525 0.000000
N132  N     N_R   0.950332 0.178213 0.003577 0.000000
H431  H     H_    0.710797 0.243334 0.102584 0.000000
H432  H     H_    0.677936 0.231000 0.050548 0.000000
H433  H     H_    0.719606 0.176458 0.109626 0.000000
H434  H     H_    0.836800 0.226400 0.082288 0.000000
H435  H     H_    0.828883 0.155314 0.068578 0.000000
H436  H     H_    0.768745 0.191764 0.012904 0.000000
H437  H     H_    0.005120 0.349412 0.904212 0.000000
H438  H     H_    0.142249 0.331850 0.897644 0.000000
H439  H     H_    0.187987 0.239827 0.925653 0.000000
H440  H     H_    0.098803 0.167457 0.961772 0.000000
C397  C     C_3   0.021554 0.204000 0.857404 0.000000
N133  N     N_3   0.961317 0.242020 0.855415 0.000000
C398  C     C_3   0.990034 0.295422 0.819022 0.000000
C399  C     C_R   0.928085 0.337502 0.802035 0.000000
N134  N     N_R   0.916867 0.368582 0.748034 0.000000
C400  C     C_R   0.858973 0.401837 0.748408 0.000000
C401  C     C_R   0.813156 0.434660 0.708349 0.000000
C402  C     C_R   0.765589 0.471636 0.715716 0.000000
C403  C     C_R   0.754773 0.468046 0.766028 0.000000
C404  C     C_R   0.788116 0.425513 0.809193 0.000000
C405  C     C_R   0.841590 0.394164 0.798723 0.000000
N135  N     N_R   0.882888 0.353308 0.834552 0.000000
H441  H     H_    0.021528 0.168872 0.898082 0.000000
H442  H     H_    0.011547 0.190026 0.828337 0.000000
H443  H     H_    0.078281 0.222791 0.847980 0.000000
H444  H     H_    0.915963 0.235631 0.837381 0.000000
H445  H     H_    0.035781 0.305769 0.836564 0.000000
H446  H     H_    0.016233 0.295754 0.782297 0.000000
H447  H     H_    0.811090 0.428712 0.674013 0.000000
H448  H     H_    0.728119 0.498099 0.685088 0.000000
H449  H     H_    0.714617 0.494983 0.772375 0.000000
H450  H     H_    0.778169 0.421426 0.848792 0.000000
C406  C     C_3   0.927942 0.979265 0.965546 0.000000
N136  N     N_3   0.950127 0.017785 0.910669 0.000000
C407  C     C_3   0.982211 0.068089 0.902975 0.000000
C408  C     C_R   0.920885 0.097387 0.913983 0.000000
N137  N     N_R   0.855615 0.107926 0.885129 0.000000
C409  C     C_R   0.802113 0.107716 0.921964 0.000000
C410  C     C_R   0.724844 0.112267 0.919133 0.000000
C411  C     C_R   0.681478 0.102631 0.965624 0.000000
C412  C     C_R   0.714452 0.098122 0.010350 0.000000
C413  C     C_R   0.792482 0.096262 0.011725 0.000000
C414  C     C_R   0.834503 0.099507 0.967978 0.000000
N138  N     N_R   0.910520 0.094836 0.964276 0.000000
H451  H     H_    0.884466 0.952797 0.964292 0.000000
H452  H     H_    0.977909 0.954151 0.986080 0.000000
H453  H     H_    0.900855 0.999520 0.986860 0.000000
H454  H     H_    0.900976 0.025957 0.889181 0.000000
H455  H     H_    0.031535 0.061685 0.926762 0.000000
H456  H     H_    0.001104 0.094228 0.860493 0.000000
H457  H     H_    0.698843 0.123065 0.882225 0.000000
H458  H     H_    0.620099 0.100787 0.966834 0.000000
H459  H     H_    0.679064 0.094038 0.044908 0.000000
H460  H     H_    0.818841 0.089992 0.047209 0.000000
C415  C     C_3   0.790352 0.324366 0.644225 0.000000
N139  N     N_3   0.805033 0.326515 0.692875 0.000000
C416  C     C_3   0.818429 0.273470 0.739193 0.000000
C417  C     C_R   0.892989 0.248334 0.732914 0.000000
N140  N     N_R   0.959213 0.278481 0.711627 0.000000
C418  C     C_R   0.011888 0.240020 0.716893 0.000000
C419  C     C_R   0.090038 0.244364 0.711015 0.000000
C420  C     C_R   0.134280 0.198534 0.723064 0.000000
C421  C     C_R   0.099928 0.149605 0.739557 0.000000
C422  C     C_R   0.021122 0.145801 0.746506 0.000000
C423  C     C_R   0.978793 0.190718 0.737822 0.000000
N141  N     N_R   0.904008 0.192851 0.751704 0.000000
H461  H     H_    0.831041 0.296463 0.637940 0.000000
H462  H     H_    0.730193 0.313872 0.645341 0.000000
H463  H     H_    0.797471 0.365302 0.609406 0.000000
H464  H     H_    0.854456 0.348402 0.683958 0.000000
H465  H     H_    0.821185 0.279814 0.774398 0.000000
H466  H     H_    0.770415 0.246522 0.747258 0.000000
H467  H     H_    0.116809 0.281245 0.700751 0.000000
H468  H     H_    0.195958 0.200712 0.720276 0.000000
H469  H     H_    0.135009 0.114006 0.749002 0.000000
H470  H     H_    0.993256 0.108943 0.758214 0.000000
C424  C     C_3   0.085377 0.616209 0.610369 0.000000
N142  N     N_3   0.074251 0.671990 0.568478 0.000000
C425  C     C_3   0.150054 0.693097 0.547398 0.000000
C426  C     C_R   0.149877 0.749736 0.502994 0.000000
N143  N     N_R   0.081679 0.779242 0.484517 0.000000
C427  C     C_R   0.101030 0.827607 0.478639 0.000000
C428  C     C_R   0.059786 0.875280 0.458010 0.000000
C429  C     C_R   0.086583 0.916793 0.464755 0.000000
C430  C     C_R   0.151980 0.909320 0.492958 0.000000
C431  C     C_R   0.196813 0.862946 0.508249 0.000000
C432  C     C_R   0.173500 0.825694 0.494409 0.000000
N144  N     N_R   0.210389 0.780265 0.501333 0.000000
H471  H     H_    0.029888 0.596180 0.627126 0.000000
H472  H     H_    0.118226 0.592822 0.593504 0.000000
H473  H     H_    0.115646 0.615222 0.643860 0.000000
H474  H     H_    0.051270 0.693274 0.587787 0.000000
H475  H     H_    0.177452 0.694469 0.580563 0.000000
H476  H     H_    0.183597 0.667266 0.534122 0.000000
H477  H     H_    0.009199 0.881212 0.436057 0.000000
H478  H     H_    0.054866 0.954628 0.449620 0.000000
H479  H     H_    0.170227 0.941273 0.499919 0.000000
H480  H     H_    0.249929 0.857759 0.527516 0.000000

loop_
_geom_bond_atom_site_label_1
_geom_bond_atom_site_label_2
_geom_bond_distance
_geom_bond_site_symmetry_2
_ccdc_geom_bond_type
Zn1   N2    2.023 .      S
Zn1   N9    2.136 .      S
Zn1   N129  2.076 .      S
Zn1   N143  2.157 1_655  S
Zn2   N3    2.085 .      S
Zn2   N6    2.143 .      S
Zn2   N99   2.055 .      S
Zn2   N119  2.120 .      S
Zn3   N8    2.135 .      S
Zn3   N12   2.091 .      S
Zn3   N101  2.106 .      S
Zn3   N111  2.158 .      S
Zn4   N11   2.135 .      S
Zn4   N125  2.084 1_655  S
Zn4   N132  2.086 .      S
Zn4   N138  2.129 1_554  S
Zn5   N5    2.163 .      S
Zn5   N122  2.200 1_655  S
Zn5   N134  2.100 .      S
Zn5   N140  2.138 .      S
Zn6   N15   2.163 .      S
Zn6   N17   2.184 1_554  S
Zn6   N20   2.166 .      S
Zn6   N23   2.188 1_554  S
Zn7   N14   2.145 .      S
Zn7   N26   2.080 1_554  S
Zn7   N29   2.150 .      S
Zn7   N32   2.156 1_554  S
Zn8   N18   2.143 .      S
Zn8   N35   2.086 .      S
Zn8   N39   2.073 .      S
Zn8   N42   2.110 .      S
Zn9   N21   2.092 .      S
Zn9   N45   2.109 .      S
Zn9   N47   2.113 .      S
Zn9   N51   2.127 .      S
Zn10  N24   2.168 .      S
Zn10  N54   2.060 .      S
Zn10  N57   2.081 .      S
Zn10  N60   2.089 .      S
Zn11  N33   2.143 .      S
Zn11  N38   2.166 1_655  S
Zn11  N62   2.144 .      S
Zn11  N66   2.095 .      S
Zn12  N41   2.137 .      S
Zn12  N68   2.106 .      S
Zn12  N71   2.063 .      S
Zn12  N74   2.209 .      S
Zn13  N27   2.096 .      S
Zn13  N53   2.129 1_655  S
Zn13  N77   2.122 .      S
Zn13  N80   2.110 .      S
Zn14  N36   2.133 .      S
Zn14  N56   2.097 .      S
Zn14  N83   2.058 .      S
Zn14  N87   2.053 .      S
Zn15  N59   2.087 .      S
Zn15  N89   2.141 .      S
Zn15  N93   2.062 .      S
Zn15  N95   2.119 .      S
Zn16  N30   2.060 .      S
Zn16  N44   2.074 1_655  S
Zn16  N98   2.067 .      S
Zn16  N102  2.086 .      S
Zn17  N48   2.093 .      S
Zn17  N104  2.070 .      S
Zn17  N107  2.148 .      S
Zn17  N110  2.116 .      S
Zn18  N50   2.122 .      S
Zn18  N114  2.125 .      S
Zn18  N116  2.061 .      S
Zn18  N120  2.145 .      S
Zn19  N69   2.118 .      S
Zn19  N92   2.084 .      S
Zn19  N117  2.116 .      S
Zn19  N123  2.178 .      S
Zn20  N72   2.130 1_554  S
Zn20  N96   2.197 1_554  S
Zn20  N108  2.155 .      S
Zn20  N126  2.154 .      S
Zn21  N63   2.147 .      S
Zn21  N81   2.127 .      S
Zn21  N86   2.070 .      S
Zn21  N128  2.104 .      S
Zn22  N65   2.131 .      S
Zn22  N75   2.151 .      S
Zn22  N131  2.054 .      S
Zn22  N135  2.036 .      S
Zn23  N78   2.256 .      S
Zn23  N90   2.140 .      S
Zn23  N137  2.206 .      S
Zn23  N141  2.159 .      S
Zn24  N84   2.077 .      S
Zn24  N105  2.090 .      S
Zn24  N113  2.105 .      S
Zn24  N144  2.146 .      S
C1    N1    1.454 .      S
C1    H1    1.108 .      S
C1    H2    1.105 .      S
C1    H3    1.106 .      S
N1    C2    1.447 .      S
N1    H4    1.035 .      S
C2    C3    1.495 .      S
C2    H5    1.087 .      S
C2    H6    1.101 .      S
C5    H7    1.070 .      S
C6    H8    1.076 .      S
C7    H9    1.070 .      S
C8    H10   1.065 .      S
C10   N4    1.444 .      S
C10   H11   1.102 .      S
C10   H12   1.104 .      S
C10   H13   1.083 .      S
N4    C11   1.468 .      S
N4    H14   1.039 .      S
C11   C12   1.475 .      S
C11   H15   1.091 .      S
C11   H16   1.103 .      S
C14   H17   1.070 .      S
C15   H18   1.081 .      S
C16   H19   1.081 .      S
C17   H20   1.066 .      S
C19   N7    1.445 .      S
C19   H21   1.105 .      S
C19   H22   1.102 .      S
C19   H23   1.105 .      S
N7    C20   1.444 1_455  S
N7    H24   1.038 .      S
C20   N7    1.444 1_655  S
C20   C21   1.463 .      S
C20   H25   1.104 1_655  S
C20   H26   1.103 .      S
C23   H27   1.062 .      S
C24   H28   1.078 .      S
C25   H29   1.080 .      S
C26   H30   1.068 .      S
H25   C20   1.104 1_455  S
C28   N10   1.450 .      S
C28   H31   1.098 .      S
C28   H32   1.107 .      S
C28   H33   1.105 .      S
N10   C29   1.442 .      S
N10   H34   1.043 .      S
C29   C30   1.472 .      S
C29   H35   1.098 .      S
C29   H36   1.096 .      S
C32   H37   1.077 .      S
C33   H38   1.081 .      S
C34   H39   1.081 .      S
C35   H40   1.073 .      S
C37   N13   1.454 .      S
C37   H41   1.098 .      S
C37   H42   1.105 1_556  S
C37   H43   1.107 .      S
N13   C38   1.426 1_556  S
N13   H44   1.037 .      S
C38   N13   1.426 1_554  S
C38   C39   1.447 .      S
C38   H45   1.079 .      S
C38   H46   1.107 .      S
C41   H47   1.066 .      S
C42   H48   1.079 .      S
C43   H49   1.072 .      S
C44   H50   1.056 .      S
H42   C37   1.105 1_554  S
C46   N16   1.439 .      S
C46   H51   1.106 .      S
C46   H52   1.102 .      S
C46   H53   1.087 .      S
N16   C47   1.442 .      S
N16   H54   1.040 .      S
C47   C48   1.456 .      S
C47   H55   1.108 .      S
C47   H56   1.078 .      S
N17   Zn6   2.184 1_556  S
C50   H57   1.080 .      S
C51   H58   1.081 .      S
C52   H59   1.079 .      S
C53   H60   1.071 1_554  S
H60   C53   1.071 1_556  S
C55   N19   1.450 .      S
C55   H61   1.105 1_554  S
C55   H62   1.098 .      S
C55   H63   1.108 .      S
N19   C56   1.434 .      S
N19   H64   1.041 .      S
C56   C57   1.480 .      S
C56   H65   1.082 .      S
C56   H66   1.100 .      S
C59   H67   1.072 .      S
C60   H68   1.081 .      S
C61   H69   1.081 .      S
C62   H70   1.078 .      S
H61   C55   1.105 1_556  S
C64   N22   1.448 .      S
C64   H71   1.088 .      S
C64   H72   1.100 .      S
C64   H73   1.105 .      S
N22   C65   1.440 .      S
N22   H74   1.034 .      S
C65   C66   1.494 .      S
C65   H75   1.091 .      S
C65   H76   1.086 .      S
N23   Zn6   2.188 1_556  S
C68   H77   1.070 .      S
C69   H78   1.081 .      S
C70   H79   1.078 .      S
C71   H80   1.070 .      S
C73   N25   1.428 .      S
C73   H81   1.108 .      S
C73   H82   1.094 .      S
C73   H83   1.107 .      S
N25   C74   1.432 .      S
N25   H84   1.022 .      S
C74   C75   1.472 .      S
C74   H85   1.101 .      S
C74   H86   1.108 .      S
N26   Zn7   2.080 1_556  S
C77   H87   1.062 1_456  S
C78   H88   1.081 1_556  S
C79   H89   1.065 .      S
C80   H90   1.047 .      S
H87   C77   1.062 1_654  S
H88   C78   1.081 1_554  S
C82   N28   1.446 .      S
C82   H91   1.107 1_554  S
C82   H92   1.105 .      S
C82   H93   1.105 .      S
N28   C83   1.449 .      S
N28   H94   1.043 .      S
C83   C84   1.476 .      S
C83   H95   1.099 .      S
C83   H96   1.085 .      S
C86   H97   1.057 .      S
C87   H98   1.081 .      S
C88   H99   1.081 1_655  S
C89   H100  1.064 1_655  S
H91   C82   1.107 1_556  S
H99   C88   1.081 1_455  S
H100  C89   1.064 1_455  S
C91   N31   1.440 .      S
C91   H101  1.105 .      S
C91   H102  1.103 .      S
C91   H103  1.107 .      S
N31   C92   1.430 1_455  S
N31   H104  1.031 .      S
C92   N31   1.430 1_655  S
C92   C93   1.471 .      S
C92   H105  1.101 1_655  S
C92   H106  1.083 .      S
N32   Zn7   2.156 1_556  S
C95   H107  1.081 .      S
C96   H108  1.081 .      S
C97   H109  1.080 .      S
C98   H110  1.063 1_554  S
H105  C92   1.101 1_455  S
H110  C98   1.063 1_556  S
C100  N34   1.444 .      S
C100  H111  1.107 .      S
C100  H112  1.105 .      S
C100  H113  1.097 .      S
N34   C101  1.445 .      S
N34   H114  1.044 .      S
C101  C102  1.475 .      S
C101  H115  1.109 .      S
C101  H116  1.096 .      S
C104  H117  1.075 .      S
C105  H118  1.078 .      S
C106  H119  1.078 .      S
C107  H120  1.071 .      S
C109  N37   1.459 .      S
C109  H121  1.102 .      S
C109  H122  1.097 .      S
C109  H123  1.106 .      S
N37   C110  1.444 .      S
N37   H124  1.043 .      S
C110  C111  1.491 .      S
C110  H125  1.105 .      S
C110  H126  1.107 .      S
N38   Zn11  2.166 1_455  S
C113  H127  1.061 1_556  S
C114  H128  1.069 .      S
C115  H129  1.081 .      S
C116  H130  1.065 .      S
H127  C113  1.061 1_554  S
C118  N40   1.451 .      S
C118  H131  1.102 .      S
C118  H132  1.109 .      S
C118  H133  1.106 .      S
N40   C119  1.441 .      S
N40   H134  1.039 .      S
C119  C120  1.484 .      S
C119  H135  1.104 .      S
C119  H136  1.106 .      S
C122  H137  1.076 .      S
C123  H138  1.081 .      S
C124  H139  1.081 .      S
C125  H140  1.064 .      S
C127  N43   1.454 .      S
C127  H141  1.109 .      S
C127  H142  1.109 .      S
C127  H143  1.108 .      S
N43   C128  1.450 .      S
N43   H144  1.037 .      S
C128  C129  1.497 .      S
C128  H145  1.100 .      S
C128  H146  1.109 .      S
N44   Zn16  2.074 1_455  S
C131  H147  1.058 .      S
C132  H148  1.077 .      S
C133  H149  1.063 .      S
C134  H150  1.059 .      S
C136  N46   1.438 .      S
C136  H151  1.102 .      S
C136  H152  1.097 .      S
C136  H153  1.108 .      S
N46   C137  1.449 .      S
N46   H154  1.040 .      S
C137  C138  1.467 .      S
C137  H155  1.091 .      S
C137  H156  1.106 .      S
C140  H157  1.069 .      S
C141  H158  1.077 .      S
C142  H159  1.075 .      S
C143  H160  1.064 .      S
C145  N49   1.450 .      S
C145  H161  1.107 .      S
C145  H162  1.109 .      S
C145  H163  1.109 .      S
N49   C146  1.443 .      S
N49   H164  1.035 .      S
C146  C147  1.482 .      S
C146  H165  1.096 .      S
C146  H166  1.109 .      S
C149  H167  1.048 .      S
C150  H168  1.079 .      S
C151  H169  1.077 .      S
C152  H170  1.050 .      S
C154  N52   1.446 .      S
C154  H171  1.108 .      S
C154  H172  1.102 .      S
C154  H173  1.102 .      S
N52   C155  1.443 .      S
N52   H174  1.034 .      S
C155  C156  1.490 .      S
C155  H175  1.097 .      S
C155  H176  1.090 .      S
N53   Zn13  2.129 1_455  S
C158  H177  1.077 .      S
C159  H178  1.081 .      S
C160  H179  1.076 .      S
C161  H180  1.071 .      S
C163  N55   1.466 .      S
C163  H181  1.088 .      S
C163  H182  1.095 .      S
C163  H183  1.109 .      S
N55   C164  1.443 .      S
N55   H184  1.032 .      S
C164  C165  1.486 .      S
C164  H185  1.093 .      S
C164  H186  1.093 .      S
C167  H187  1.064 .      S
C168  H188  1.078 .      S
C169  H189  1.081 .      S
C170  H190  1.067 .      S
C172  N58   1.436 .      S
C172  H191  1.100 .      S
C172  H192  1.105 .      S
C172  H193  1.103 .      S
N58   C173  1.434 1_565  S
N58   H194  1.036 .      S
C173  N58   1.434 1_545  S
C173  C174  1.462 .      S
C173  H195  1.108 .      S
C173  H196  1.100 .      S
C176  H197  1.048 .      S
C177  H198  1.080 .      S
C178  H199  1.081 .      S
C179  H200  1.060 .      S
C181  N61   1.450 .      S
C181  H201  1.108 .      S
C181  H202  1.101 .      S
C181  H203  1.106 .      S
N61   C182  1.433 .      S
N61   H204  1.040 .      S
C182  C183  1.487 .      S
C182  H205  1.091 .      S
C182  H206  1.101 .      S
C185  H207  1.049 .      S
C186  H208  1.071 .      S
C187  H209  1.081 .      S
C188  H210  1.064 .      S
C190  N64   1.456 .      S
C190  H211  1.105 1_655  S
C190  H212  1.102 .      S
C190  H213  1.108 .      S
N64   C191  1.436 .      S
N64   H214  1.035 1_655  S
C191  C192  1.486 .      S
C191  H215  1.098 .      S
C191  H216  1.082 .      S
C194  H217  1.068 .      S
C195  H218  1.081 .      S
C196  H219  1.081 .      S
C197  H220  1.063 1_554  S
H211  C190  1.105 1_455  S
H214  N64   1.035 1_455  S
H220  C197  1.063 1_556  S
C199  N67   1.450 .      S
C199  H221  1.097 .      S
C199  H222  1.100 .      S
C199  H223  1.108 .      S
N67   C200  1.460 .      S
N67   H224  1.025 .      S
C200  C201  1.503 .      S
C200  H225  1.101 .      S
C200  H226  1.098 .      S
C203  H227  1.067 .      S
C204  H228  1.056 .      S
C205  H229  1.081 .      S
C206  H230  1.071 .      S
C208  N70   1.431 .      S
C208  H231  1.078 .      S
C208  H232  1.071 .      S
C208  H233  1.105 .      S
N70   C209  1.440 .      S
N70   H234  1.035 .      S
C209  C210  1.454 .      S
C209  H235  1.107 .      S
C209  H236  1.109 .      S
C212  H237  1.073 .      S
C213  H238  1.081 .      S
C214  H239  1.079 .      S
C215  H240  1.052 .      S
N72   Zn20  2.130 1_556  S
C217  N73   1.440 .      S
C217  H241  1.091 .      S
C217  H242  1.103 .      S
C217  H243  1.093 .      S
N73   C218  1.439 .      S
N73   H244  1.039 .      S
C218  C219  1.472 .      S
C218  H245  1.103 .      S
C218  H246  1.102 .      S
C221  H247  1.051 .      S
C222  H248  1.080 .      S
C223  H249  1.080 .      S
C224  H250  1.065 .      S
C226  N76   1.447 .      S
C226  H251  1.100 .      S
C226  H252  1.106 .      S
C226  H253  1.105 .      S
N76   C227  1.450 1_565  S
N76   H254  1.041 1_455  S
C227  N76   1.450 1_545  S
C227  C228  1.489 1_455  S
C227  H255  1.070 .      S
C227  H256  1.076 .      S
C228  C227  1.489 1_655  S
C230  H257  1.066 .      S
C231  H258  1.081 .      S
C232  H259  1.077 .      S
C233  H260  1.046 .      S
H254  N76   1.041 1_655  S
C235  N79   1.451 .      S
C235  H261  1.098 .      S
C235  H262  1.105 .      S
C235  H263  1.099 .      S
N79   C236  1.446 .      S
N79   H264  1.039 .      S
C236  C237  1.465 .      S
C236  H265  1.104 .      S
C236  H266  1.091 .      S
C239  H267  1.045 .      S
C240  H268  1.081 .      S
C241  H269  1.076 1_655  S
C242  H270  1.040 .      S
H269  C241  1.076 1_455  S
C244  N82   1.447 .      S
C244  H271  1.108 .      S
C244  H272  1.104 .      S
C244  H273  1.108 .      S
N82   C245  1.449 .      S
N82   H274  1.044 .      S
C245  C246  1.470 .      S
C245  H275  1.087 .      S
C245  H276  1.108 .      S
C248  H277  1.079 .      S
C249  H278  1.081 .      S
C250  H279  1.081 .      S
C251  H280  1.070 .      S
C253  N85   1.453 .      S
C253  H281  1.107 .      S
C253  H282  1.109 .      S
C253  H283  1.108 .      S
N85   C254  1.457 .      S
N85   H284  1.044 .      S
C254  C255  1.479 .      S
C254  H285  1.103 .      S
C254  H286  1.107 .      S
C257  H287  1.061 .      S
C258  H288  1.056 .      S
C259  H289  1.080 .      S
C260  H290  1.063 .      S
C262  N88   1.448 1_565  S
C262  H291  1.106 .      S
C262  H292  1.105 .      S
C262  H293  1.108 1_565  S
N88   C262  1.448 1_545  S
N88   C263  1.443 .      S
N88   H294  1.036 .      S
C263  C264  1.485 .      S
C263  H295  1.104 .      S
C263  H296  1.101 .      S
C266  H297  1.072 .      S
C267  H298  1.081 .      S
C268  H299  1.081 .      S
C269  H300  1.075 .      S
H293  C262  1.108 1_545  S
C271  N91   1.450 .      S
C271  H301  1.096 .      S
C271  H302  1.101 .      S
C271  H303  1.092 .      S
N91   C272  1.444 .      S
N91   H304  1.038 .      S
C272  C273  1.460 .      S
C272  H305  1.100 .      S
C272  H306  1.097 .      S
C275  H307  1.072 .      S
C276  H308  1.080 .      S
C277  H309  1.079 .      S
C278  H310  1.068 .      S
C280  N94   1.452 .      S
C280  H311  1.109 .      S
C280  H312  1.103 .      S
C280  H313  1.108 .      S
N94   C281  1.458 .      S
N94   H314  1.042 .      S
C281  C282  1.468 .      S
C281  H315  1.094 .      S
C281  H316  1.108 .      S
C284  H317  1.072 .      S
C285  H318  1.067 .      S
C286  H319  1.078 1_556  S
C287  H320  1.057 .      S
N96   Zn20  2.197 1_556  S
H319  C286  1.078 1_554  S
C289  N97   1.443 .      S
C289  H321  1.102 .      S
C289  H322  1.097 .      S
C289  H323  1.102 .      S
N97   C290  1.445 1_455  S
N97   H324  1.039 .      S
C290  N97   1.445 1_655  S
C290  C291  1.472 .      S
C290  H325  1.077 .      S
C290  H326  1.091 .      S
C293  H327  1.068 .      S
C294  H328  1.081 .      S
C295  H329  1.081 .      S
C296  H330  1.073 .      S
C298  N100  1.447 1_455  S
C298  H331  1.093 .      S
C298  H332  1.107 .      S
C298  H333  1.102 .      S
N100  C298  1.447 1_655  S
N100  C299  1.448 1_655  S
N100  H334  1.041 .      S
C299  N100  1.448 1_455  S
C299  C300  1.478 1_455  S
C299  H335  1.086 .      S
C299  H336  1.082 .      S
C300  C299  1.478 1_655  S
C302  H337  1.074 .      S
C303  H338  1.062 .      S
C304  H339  1.081 .      S
C305  H340  1.065 .      S
C307  N103  1.457 .      S
C307  H341  1.109 .      S
C307  H342  1.106 .      S
C307  H343  1.107 .      S
N103  C308  1.451 .      S
N103  H344  1.043 .      S
C308  C309  1.478 .      S
C308  H345  1.100 .      S
C308  H346  1.108 .      S
C311  H347  1.061 .      S
C312  H348  1.081 .      S
C313  H349  1.081 .      S
C314  H350  1.048 .      S
C316  N106  1.451 1_565  S
C316  H351  1.104 1_565  S
C316  H352  1.096 1_565  S
C316  H353  1.101 .      S
N106  C316  1.451 1_545  S
N106  C317  1.446 1_545  S
N106  H354  1.038 .      S
C317  N106  1.446 1_565  S
C317  C318  1.460 .      S
C317  H355  1.097 .      S
C317  H356  1.097 .      S
C320  H357  1.079 1_545  S
C321  H358  1.081 .      S
C322  H359  1.081 .      S
C323  H360  1.059 .      S
H351  C316  1.104 1_545  S
H352  C316  1.096 1_545  S
H357  C320  1.079 1_565  S
C325  N109  1.449 .      S
C325  H361  1.106 .      S
C325  H362  1.094 .      S
C325  H363  1.093 .      S
N109  C326  1.438 .      S
N109  H364  1.029 .      S
C326  C327  1.466 .      S
C326  H365  1.095 .      S
C326  H366  1.079 .      S
C329  H367  1.054 1_545  S
C330  H368  1.081 .      S
C331  H369  1.080 .      S
C332  H370  1.048 .      S
H367  C329  1.054 1_565  S
C334  N112  1.429 .      S
C334  H371  1.101 .      S
C334  H372  1.105 .      S
C334  H373  1.099 .      S
N112  C335  1.446 .      S
N112  H374  1.038 .      S
C335  C336  1.453 .      S
C335  H375  1.103 .      S
C335  H376  1.089 .      S
C338  H377  1.078 .      S
C339  H378  1.078 .      S
C340  H379  1.081 .      S
C341  H380  1.072 .      S
C343  N115  1.446 .      S
C343  H381  1.104 .      S
C343  H382  1.105 .      S
C343  H383  1.101 .      S
N115  C344  1.455 .      S
N115  H384  1.039 .      S
C344  C345  1.495 .      S
C344  H385  1.089 .      S
C344  H386  1.074 .      S
C347  H387  1.079 .      S
C348  H388  1.081 .      S
C349  H389  1.081 .      S
C350  H390  1.067 .      S
C352  N118  1.453 .      S
C352  H391  1.109 .      S
C352  H392  1.108 .      S
C352  H393  1.108 .      S
N118  C353  1.451 .      S
N118  H394  1.042 .      S
C353  C354  1.492 .      S
C353  H395  1.095 .      S
C353  H396  1.106 .      S
C356  H397  1.069 .      S
C357  H398  1.080 .      S
C358  H399  1.074 .      S
C359  H400  1.064 .      S
C361  N121  1.456 .      S
C361  H401  1.108 .      S
C361  H402  1.109 .      S
C361  H403  1.109 .      S
N121  C362  1.452 .      S
N121  H404  1.037 .      S
C362  C363  1.496 .      S
C362  H405  1.107 .      S
C362  H406  1.109 .      S
N122  Zn5   2.200 1_455  S
C365  H407  1.055 .      S
C366  H408  1.072 .      S
C367  H409  1.077 .      S
C368  H410  1.072 .      S
C370  N124  1.456 .      S
C370  H411  1.109 .      S
C370  H412  1.109 .      S
C370  H413  1.107 .      S
N124  C371  1.451 .      S
N124  H414  1.038 .      S
C371  C372  1.498 .      S
C371  H415  1.103 .      S
C371  H416  1.109 .      S
N125  Zn4   2.084 1_455  S
C374  H417  1.072 .      S
C375  H418  1.076 .      S
C376  H419  1.070 .      S
C377  H420  1.044 .      S
C379  N127  1.456 .      S
C379  H421  1.107 .      S
C379  H422  1.108 .      S
C379  H423  1.106 .      S
N127  C380  1.457 .      S
N127  H424  1.036 .      S
C380  C381  1.493 .      S
C380  H425  1.092 .      S
C380  H426  1.100 .      S
C383  H427  1.075 .      S
C384  H428  1.075 .      S
C385  H429  1.075 .      S
C386  H430  1.064 .      S
C388  N130  1.453 .      S
C388  H431  1.109 .      S
C388  H432  1.109 .      S
C388  H433  1.107 .      S
N130  C389  1.451 .      S
N130  H434  1.044 .      S
C389  C390  1.493 1_554  S
C389  H435  1.105 .      S
C389  H436  1.096 .      S
C390  C389  1.493 1_556  S
C392  H437  1.068 .      S
C393  H438  1.076 .      S
C394  H439  1.075 .      S
C395  H440  1.057 .      S
C397  N133  1.451 1_455  S
C397  H441  1.100 .      S
C397  H442  1.099 .      S
C397  H443  1.101 .      S
N133  C397  1.451 1_655  S
N133  C398  1.447 .      S
N133  H444  1.040 .      S
C398  C399  1.487 .      S
C398  H445  1.091 1_655  S
C398  H446  1.104 1_655  S
C401  H447  1.068 .      S
C402  H448  1.071 .      S
C403  H449  1.080 .      S
C404  H450  1.074 .      S
H445  C398  1.091 1_455  S
H446  C398  1.104 1_455  S
C406  N136  1.441 1_565  S
C406  H451  1.106 .      S
C406  H452  1.103 .      S
C406  H453  1.089 .      S
N136  C406  1.441 1_545  S
N136  C407  1.465 .      S
N136  H454  1.039 .      S
C407  C408  1.431 .      S
C407  H455  1.085 1_655  S
C407  H456  1.102 1_655  S
C410  H457  1.067 .      S
C411  H458  1.073 .      S
C412  H459  1.081 .      S
C413  H460  1.068 .      S
N138  Zn4   2.129 1_556  S
H455  C407  1.085 1_455  S
H456  C407  1.102 1_455  S
C415  N139  1.450 .      S
C415  H461  1.106 .      S
C415  H462  1.100 .      S
C415  H463  1.106 .      S
N139  C416  1.461 .      S
N139  H464  1.031 .      S
C416  C417  1.494 .      S
C416  H465  1.101 .      S
C416  H466  1.097 .      S
C419  H467  1.061 .      S
C420  H468  1.077 .      S
C421  H469  1.079 .      S
C422  H470  1.061 1_455  S
H470  C422  1.061 1_655  S
C424  N142  1.459 .      S
C424  H471  1.102 .      S
C424  H472  1.107 .      S
C424  H473  1.107 .      S
N142  C425  1.445 .      S
N142  H474  1.043 .      S
C425  C426  1.484 .      S
C425  H475  1.102 .      S
C425  H476  1.101 .      S
N143  Zn1   2.157 1_455  S
C428  H477  1.076 .      S
C429  H478  1.081 .      S
C430  H479  1.080 .      S
C431  H480  1.077 .      S
C3    N2    1.374 .      A
C3    N3    1.393 .      A
N2    C4    1.342 1_655  A
C4    N2    1.342 1_455  A
C4    C5    1.364 .      A
C4    C9    1.352 1_455  A
C5    C6    1.379 .      A
C6    C7    1.377 .      A
C7    C8    1.370 .      A
C8    C9    1.369 1_455  A
C9    C4    1.352 1_655  A
C9    C8    1.369 1_655  A
C9    N3    1.347 .      A
C12   N5    1.400 .      A
C12   N6    1.381 .      A
N5    C13   1.352 .      A
C13   C14   1.373 .      A
C13   C18   1.370 .      A
C14   C15   1.382 .      A
C15   C16   1.384 .      A
C16   C17   1.382 .      A
C17   C18   1.373 .      A
C18   N6    1.351 .      A
C21   N8    1.388 .      A
C21   N9    1.386 .      A
N8    C22   1.345 .      A
C22   C23   1.367 .      A
C22   C27   1.364 .      A
C23   C24   1.378 .      A
C24   C25   1.379 .      A
C25   C26   1.381 .      A
C26   C27   1.368 .      A
C27   N9    1.352 .      A
C30   N11   1.392 1_565  A
C30   N12   1.377 .      A
N11   C30   1.392 1_545  A
N11   C31   1.349 .      A
C31   C32   1.369 .      A
C31   C36   1.370 1_545  A
C32   C33   1.385 .      A
C33   C34   1.387 .      A
C34   C35   1.383 1_545  A
C35   C34   1.383 1_565  A
C35   C36   1.374 .      A
C36   C31   1.370 1_565  A
C36   N12   1.349 .      A
C39   N14   1.394 .      A
C39   N15   1.387 .      A
N14   C40   1.340 .      A
C40   C41   1.357 .      A
C40   C45   1.358 .      A
C41   C42   1.378 .      A
C42   C43   1.379 .      A
C43   C44   1.380 .      A
C44   C45   1.346 .      A
C45   N15   1.338 .      A
C48   N17   1.384 .      A
C48   N18   1.391 .      A
N17   C49   1.359 1_556  A
C49   N17   1.359 1_554  A
C49   C50   1.381 .      A
C49   C54   1.370 1_554  A
C50   C51   1.381 .      A
C51   C52   1.385 .      A
C52   C53   1.383 .      A
C53   C54   1.373 1_554  A
C54   C49   1.370 1_556  A
C54   C53   1.373 1_556  A
C54   N18   1.351 .      A
C57   N20   1.390 .      A
C57   N21   1.385 .      A
N20   C58   1.359 .      A
C58   C59   1.374 .      A
C58   C63   1.366 .      A
C59   C60   1.385 .      A
C60   C61   1.386 .      A
C61   C62   1.380 .      A
C62   C63   1.371 .      A
C63   N21   1.337 .      A
C66   N23   1.409 .      A
C66   N24   1.384 .      A
N23   C67   1.345 .      A
C67   C68   1.370 1_556  A
C67   C72   1.367 .      A
C68   C67   1.370 1_554  A
C68   C69   1.378 .      A
C69   C70   1.385 1_554  A
C70   C69   1.385 1_556  A
C70   C71   1.390 .      A
C71   C72   1.370 .      A
C72   N24   1.350 .      A
C75   N26   1.397 .      A
C75   N27   1.368 .      A
N26   C76   1.335 .      A
C76   C77   1.373 1_655  A
C76   C81   1.346 1_655  A
C77   C76   1.373 1_455  A
C77   C78   1.369 .      A
C78   C79   1.373 .      A
C79   C80   1.372 .      A
C80   C81   1.325 .      A
C81   C76   1.346 1_455  A
C81   N27   1.335 1_455  A
N27   C81   1.335 1_655  A
C84   N29   1.392 .      A
C84   N30   1.376 .      A
N29   C85   1.362 .      A
C85   C86   1.373 .      A
C85   C90   1.356 .      A
C86   C87   1.385 .      A
C87   C88   1.379 .      A
C88   C89   1.375 .      A
C89   C90   1.366 .      A
C90   N30   1.335 .      A
C93   N32   1.394 .      A
C93   N33   1.382 .      A
N32   C94   1.347 1_556  A
C94   N32   1.347 1_554  A
C94   C95   1.377 .      A
C94   C99   1.370 1_554  A
C95   C96   1.381 .      A
C96   C97   1.386 .      A
C97   C98   1.384 .      A
C98   C99   1.374 1_554  A
C99   C94   1.370 1_556  A
C99   C98   1.374 1_556  A
C99   N33   1.358 .      A
C102  N35   1.386 .      A
C102  N36   1.384 .      A
N35   C103  1.346 .      A
C103  C104  1.373 .      A
C103  C108  1.364 .      A
C104  C105  1.382 .      A
C105  C106  1.383 .      A
C106  C107  1.379 .      A
C107  C108  1.373 .      A
C108  N36   1.351 .      A
C111  N38   1.403 .      A
C111  N39   1.372 .      A
N38   C112  1.363 .      A
C112  C113  1.377 .      A
C112  C117  1.360 .      A
C113  C114  1.378 1_556  A
C114  C113  1.378 1_554  A
C114  C115  1.373 .      A
C115  C116  1.371 .      A
C116  C117  1.377 1_554  A
C117  C116  1.377 1_556  A
C117  N39   1.342 .      A
C120  N41   1.387 .      A
C120  N42   1.386 .      A
N41   C121  1.363 .      A
C121  C122  1.386 1_556  A
C121  C126  1.362 .      A
C122  C121  1.386 1_554  A
C122  C123  1.382 .      A
C123  C124  1.381 .      A
C124  C125  1.379 .      A
C125  C126  1.371 1_554  A
C126  C125  1.371 1_556  A
C126  N42   1.346 .      A
C129  N44   1.383 .      A
C129  N45   1.395 .      A
N44   C130  1.329 .      A
C130  C131  1.359 .      A
C130  C135  1.348 .      A
C131  C132  1.372 .      A
C132  C133  1.379 .      A
C133  C134  1.371 .      A
C134  C135  1.354 .      A
C135  N45   1.341 .      A
C138  N47   1.389 .      A
C138  N48   1.381 .      A
N47   C139  1.346 .      A
C139  C140  1.370 .      A
C139  C144  1.358 .      A
C140  C141  1.372 .      A
C141  C142  1.386 .      A
C142  C143  1.363 .      A
C143  C144  1.355 .      A
C144  N48   1.335 .      A
C147  N50   1.396 .      A
C147  N51   1.384 .      A
N50   C148  1.343 .      A
C148  C149  1.371 .      A
C148  C153  1.355 .      A
C149  C150  1.365 .      A
C150  C151  1.369 .      A
C151  C152  1.380 .      A
C152  C153  1.361 .      A
C153  N51   1.350 .      A
C156  N53   1.392 .      A
C156  N54   1.366 .      A
N53   C157  1.354 .      A
C157  C158  1.387 1_565  A
C157  C162  1.363 .      A
C158  C157  1.387 1_545  A
C158  C159  1.378 .      A
C159  C160  1.381 .      A
C160  C161  1.382 .      A
C161  C162  1.379 1_545  A
C162  C161  1.379 1_565  A
C162  N54   1.352 .      A
C165  N56   1.389 .      A
C165  N57   1.379 .      A
N56   C166  1.359 .      A
C166  C167  1.379 .      A
C166  C171  1.356 .      A
C167  C168  1.383 .      A
C168  C169  1.381 .      A
C169  C170  1.377 .      A
C170  C171  1.369 .      A
C171  N57   1.343 .      A
C174  N59   1.372 .      A
C174  N60   1.378 1_545  A
N59   C175  1.357 .      A
C175  C176  1.368 .      A
C175  C180  1.363 .      A
C176  C177  1.380 .      A
C177  C178  1.378 .      A
C178  C179  1.378 1_545  A
C179  C178  1.378 1_565  A
C179  C180  1.378 1_565  A
C180  C179  1.378 1_545  A
C180  N60   1.350 1_545  A
N60   C174  1.378 1_565  A
N60   C180  1.350 1_565  A
C183  N62   1.380 .      A
C183  N63   1.405 .      A
N62   C184  1.349 1_655  A
C184  N62   1.349 1_455  A
C184  C185  1.351 .      A
C184  C189  1.355 1_455  A
C185  C186  1.382 .      A
C186  C187  1.374 .      A
C187  C188  1.368 1_455  A
C188  C187  1.368 1_655  A
C188  C189  1.371 .      A
C189  C184  1.355 1_655  A
C189  N63   1.338 .      A
C192  N65   1.398 .      A
C192  N66   1.376 .      A
N65   C193  1.355 .      A
C193  C194  1.377 1_556  A
C193  C198  1.360 .      A
C194  C193  1.377 1_554  A
C194  C195  1.382 .      A
C195  C196  1.384 1_655  A
C196  C195  1.384 1_455  A
C196  C197  1.381 .      A
C197  C198  1.371 1_454  A
C198  C197  1.371 1_656  A
C198  N66   1.347 .      A
C201  N68   1.392 .      A
C201  N69   1.393 .      A
N68   C202  1.337 .      A
C202  C203  1.350 .      A
C202  C207  1.356 .      A
C203  C204  1.365 .      A
C204  C205  1.371 .      A
C205  C206  1.370 .      A
C206  C207  1.372 .      A
C207  N69   1.342 .      A
C210  N71   1.380 .      A
C210  N72   1.381 .      A
N71   C211  1.340 .      A
C211  C212  1.373 .      A
C211  C216  1.354 .      A
C212  C213  1.376 .      A
C213  C214  1.381 1_556  A
C214  C213  1.381 1_554  A
C214  C215  1.387 .      A
C215  C216  1.358 1_554  A
C216  C215  1.358 1_556  A
C216  N72   1.353 .      A
C219  N74   1.396 .      A
C219  N75   1.397 .      A
N74   C220  1.352 .      A
C220  C221  1.358 1_556  A
C220  C225  1.365 .      A
C221  C220  1.358 1_554  A
C221  C222  1.380 .      A
C222  C223  1.383 .      A
C223  C224  1.381 1_554  A
C224  C223  1.381 1_556  A
C224  C225  1.371 .      A
C225  N75   1.342 .      A
C228  N77   1.389 1_545  A
C228  N78   1.410 .      A
N77   C228  1.389 1_565  A
N77   C229  1.339 .      A
C229  C230  1.375 .      A
C229  C234  1.364 1_565  A
C230  C231  1.378 .      A
C231  C232  1.380 1_565  A
C232  C231  1.380 1_545  A
C232  C233  1.378 .      A
C233  C234  1.360 .      A
C234  C229  1.364 1_545  A
C234  N78   1.358 .      A
C237  N80   1.392 .      A
C237  N81   1.379 .      A
N80   C238  1.347 .      A
C238  C239  1.368 1_655  A
C238  C243  1.348 .      A
C239  C238  1.368 1_455  A
C239  C240  1.378 .      A
C240  C241  1.376 1_455  A
C241  C240  1.376 1_655  A
C241  C242  1.379 .      A
C242  C243  1.331 .      A
C243  N81   1.336 .      A
C246  N83   1.370 .      A
C246  N84   1.381 .      A
N83   C247  1.346 .      A
C247  C248  1.373 .      A
C247  C252  1.363 .      A
C248  C249  1.383 .      A
C249  C250  1.389 .      A
C250  C251  1.385 .      A
C251  C252  1.373 .      A
C252  N84   1.352 .      A
C255  N86   1.384 .      A
C255  N87   1.385 .      A
N86   C256  1.326 .      A
C256  C257  1.330 .      A
C256  C261  1.334 .      A
C257  C258  1.374 .      A
C258  C259  1.361 .      A
C259  C260  1.363 .      A
C260  C261  1.358 .      A
C261  N87   1.335 .      A
C264  N89   1.397 .      A
C264  N90   1.386 .      A
N89   C265  1.352 .      A
C265  C266  1.379 .      A
C265  C270  1.365 .      A
C266  C267  1.379 .      A
C267  C268  1.380 .      A
C268  C269  1.382 .      A
C269  C270  1.380 .      A
C270  N90   1.354 .      A
C273  N92   1.380 .      A
C273  N93   1.368 .      A
N92   C274  1.347 .      A
C274  C275  1.365 .      A
C274  C279  1.366 .      A
C275  C276  1.382 .      A
C276  C277  1.384 .      A
C277  C278  1.382 .      A
C278  C279  1.375 .      A
C279  N93   1.350 .      A
C282  N95   1.389 .      A
C282  N96   1.393 .      A
N95   C283  1.330 .      A
C283  C284  1.359 .      A
C283  C288  1.363 .      A
C284  C285  1.370 1_545  A
C285  C284  1.370 1_565  A
C285  C286  1.375 .      A
C286  C287  1.374 1_556  A
C287  C286  1.374 1_554  A
C287  C288  1.367 1_564  A
C288  C287  1.367 1_546  A
C288  N96   1.359 .      A
C291  N98   1.367 .      A
C291  N99   1.382 .      A
N98   C292  1.359 .      A
C292  C293  1.382 .      A
C292  C297  1.360 .      A
C293  C294  1.384 .      A
C294  C295  1.384 .      A
C295  C296  1.379 .      A
C296  C297  1.367 .      A
C297  N99   1.341 .      A
C300  N101  1.376 .      A
C300  N102  1.393 .      A
N101  C301  1.339 .      A
C301  C302  1.360 .      A
C301  C306  1.358 .      A
C302  C303  1.378 .      A
C303  C304  1.376 .      A
C304  C305  1.362 .      A
C305  C306  1.365 .      A
C306  N102  1.336 .      A
C309  N104  1.388 .      A
C309  N105  1.370 .      A
N104  C310  1.347 .      A
C310  C311  1.371 .      A
C310  C315  1.348 .      A
C311  C312  1.377 .      A
C312  C313  1.375 .      A
C313  C314  1.378 .      A
C314  C315  1.366 .      A
C315  N105  1.349 .      A
C318  N107  1.370 .      A
C318  N108  1.395 1_565  A
N107  C319  1.356 1_565  A
C319  N107  1.356 1_545  A
C319  C320  1.385 .      A
C319  C324  1.364 .      A
C320  C321  1.380 .      A
C321  C322  1.381 .      A
C322  C323  1.381 .      A
C323  C324  1.370 .      A
C324  N108  1.352 .      A
N108  C318  1.395 1_545  A
C327  N110  1.384 .      A
C327  N111  1.393 .      A
N110  C328  1.341 .      A
C328  C329  1.362 1_565  A
C328  C333  1.358 .      A
C329  C328  1.362 1_545  A
C329  C330  1.376 .      A
C330  C331  1.378 .      A
C331  C332  1.380 .      A
C332  C333  1.377 1_545  A
C333  C332  1.377 1_565  A
C333  N111  1.359 .      A
C336  N113  1.387 .      A
C336  N114  1.380 .      A
N113  C337  1.343 .      A
C337  C338  1.367 .      A
C337  C342  1.351 .      A
C338  C339  1.382 .      A
C339  C340  1.387 .      A
C340  C341  1.383 .      A
C341  C342  1.378 .      A
C342  N114  1.349 .      A
C345  N116  1.376 .      A
C345  N117  1.391 .      A
N116  C346  1.343 .      A
C346  C347  1.374 .      A
C346  C351  1.360 .      A
C347  C348  1.381 .      A
C348  C349  1.387 .      A
C349  C350  1.385 .      A
C350  C351  1.372 .      A
C351  N117  1.356 .      A
C354  N119  1.394 .      A
C354  N120  1.400 .      A
N119  C355  1.336 .      A
C355  C356  1.366 .      A
C355  C360  1.357 .      A
C356  C357  1.370 .      A
C357  C358  1.386 .      A
C358  C359  1.383 .      A
C359  C360  1.365 .      A
C360  N120  1.346 .      A
C363  N122  1.404 .      A
C363  N123  1.402 .      A
N122  C364  1.352 .      A
C364  C365  1.360 .      A
C364  C369  1.360 .      A
C365  C366  1.377 .      A
C366  C367  1.374 .      A
C367  C368  1.368 .      A
C368  C369  1.364 .      A
C369  N123  1.333 .      A
C372  N125  1.390 .      A
C372  N126  1.394 .      A
N125  C373  1.327 .      A
C373  C374  1.359 .      A
C373  C378  1.353 .      A
C374  C375  1.375 1_545  A
C375  C374  1.375 1_565  A
C375  C376  1.377 .      A
C376  C377  1.366 1_565  A
C377  C376  1.366 1_545  A
C377  C378  1.338 .      A
C378  N126  1.336 .      A
C381  N128  1.399 .      A
C381  N129  1.376 .      A
N128  C382  1.342 .      A
C382  C383  1.373 .      A
C382  C387  1.350 .      A
C383  C384  1.376 .      A
C384  C385  1.376 .      A
C385  C386  1.377 .      A
C386  C387  1.368 .      A
C387  N129  1.346 .      A
C390  N131  1.385 .      A
C390  N132  1.384 1_556  A
N131  C391  1.336 .      A
C391  C392  1.373 1_655  A
C391  C396  1.353 1_655  A
C392  C391  1.373 1_455  A
C392  C393  1.371 .      A
C393  C394  1.373 .      A
C394  C395  1.371 .      A
C395  C396  1.372 .      A
C396  C391  1.353 1_455  A
C396  N132  1.356 1_456  A
N132  C390  1.384 1_554  A
N132  C396  1.356 1_654  A
C399  N134  1.371 .      A
C399  N135  1.391 .      A
N134  C400  1.350 .      A
C400  C401  1.352 .      A
C400  C405  1.350 .      A
C401  C402  1.389 .      A
C402  C403  1.380 .      A
C403  C404  1.376 .      A
C404  C405  1.372 .      A
C405  N135  1.332 .      A
C408  N137  1.385 .      A
C408  N138  1.392 .      A
N137  C409  1.350 .      A
C409  C410  1.354 .      A
C409  C414  1.369 .      A
C410  C411  1.385 .      A
C411  C412  1.376 1_556  A
C412  C411  1.376 1_554  A
C412  C413  1.364 .      A
C413  C414  1.362 1_554  A
C414  C413  1.362 1_556  A
C414  N138  1.330 .      A
C417  N140  1.390 .      A
C417  N141  1.400 .      A
N140  C418  1.348 1_655  A
C418  N140  1.348 1_455  A
C418  C419  1.368 .      A
C418  C423  1.365 1_455  A
C419  C420  1.380 .      A
C420  C421  1.382 .      A
C421  C422  1.379 .      A
C422  C423  1.361 1_455  A
C423  C418  1.365 1_655  A
C423  C422  1.361 1_655  A
C423  N141  1.345 .      A
C426  N143  1.399 .      A
C426  N144  1.381 .      A
N143  C427  1.353 .      A
C427  C428  1.372 .      A
C427  C432  1.361 .      A
C428  C429  1.385 .      A
C429  C430  1.389 .      A
C430  C431  1.385 .      A
C431  C432  1.376 .      A
C432  N144  1.341 .      A
