data_str_m1_o12014_SFO
_audit_creation_date              2015-10-01T06:38:14-0700
_symmetry_space_group_name_H-M    P1
_symmetry_Int_Tables_number       1
_space_group_crystal_system       triclinic
loop_
_symmetry_equiv_pos_as_xyz
  x,y,z
_cell_length_a                    14.9458709
_cell_length_b                    28.1448323
_cell_length_c                    26.8407163
_cell_angle_alpha                 114.573016
_cell_angle_beta                  95.1021314
_cell_angle_gamma                 86.5367158
_cell_volume                      10223.8570944

loop_
_atom_site_label
_atom_site_type_symbol
_atom_site_description
_atom_site_fract_x
_atom_site_fract_y
_atom_site_fract_z
_atom_type_partial_charge
Zn1   Zn    Zn3+2 0.610140 0.309235 0.297154 0.000000
Zn2   Zn    Zn3+2 0.605349 0.663378 0.125929 0.000000
Zn3   Zn    Zn3+2 0.031395 0.236178 0.334139 0.000000
Zn4   Zn    Zn3+2 0.315659 0.911669 0.148503 0.000000
Zn5   Zn    Zn3+2 0.052026 0.013708 0.344713 0.000000
Zn6   Zn    Zn3+2 0.652305 0.907856 0.316572 0.000000
Zn7   Zn    Zn3+2 0.387744 0.333462 0.502770 0.000000
Zn8   Zn    Zn3+2 0.891159 0.344152 0.938984 0.000000
Zn9   Zn    Zn3+2 0.532134 0.242446 0.773003 0.000000
Zn10  Zn    Zn3+2 0.298530 0.263371 0.979148 0.000000
Zn11  Zn    Zn3+2 0.612069 0.421679 0.132619 0.000000
Zn12  Zn    Zn3+2 0.866660 0.561819 0.918778 0.000000
Zn13  Zn    Zn3+2 0.429286 0.103241 0.512582 0.000000
Zn14  Zn    Zn3+2 0.295434 0.151536 0.142736 0.000000
Zn15  Zn    Zn3+2 0.273116 0.667438 0.958206 0.000000
Zn16  Zn    Zn3+2 0.498040 0.472314 0.762144 0.000000
C1    C     C_3   0.835670 0.397523 0.337207 0.000000
C2    C     C_3   0.847716 0.360338 0.364650 0.000000
C3    C     C_3   0.787919 0.376145 0.412162 0.000000
C4    C     C_R   0.833976 0.304029 0.326708 0.000000
N1    N     N_R   0.747739 0.282433 0.310352 0.000000
C5    C     C_R   0.765649 0.234902 0.311431 0.000000
C6    C     C_R   0.710287 0.195428 0.305063 0.000000
C7    C     C_R   0.729150 0.169714 0.338843 0.000000
C8    C     C_R   0.800748 0.185448 0.378102 0.000000
C9    C     C_R   0.862935 0.216418 0.373813 0.000000
C10   C     C_R   0.849902 0.232610 0.332483 0.000000
N2    N     N_R   0.900205 0.268790 0.331158 0.000000
C11   C     C_2   0.809154 0.174043 0.426407 0.000000
O1    O     O_2   0.744521 0.160308 0.440620 0.000000
O2    O     O_2   0.887152 0.181302 0.457008 0.000000
H1    H     H_    0.791011 0.380568 0.299596 0.000000
H2    H     H_    0.810384 0.435972 0.366161 0.000000
H3    H     H_    0.901928 0.404583 0.326987 0.000000
H4    H     H_    0.918052 0.363862 0.382427 0.000000
H5    H     H_    0.804485 0.350931 0.434410 0.000000
H6    H     H_    0.799349 0.417312 0.441323 0.000000
H7    H     H_    0.716514 0.371080 0.396938 0.000000
H8    H     H_    0.651534 0.185428 0.277938 0.000000
H9    H     H_    0.680857 0.142882 0.338556 0.000000
H10   H     H_    0.920408 0.228676 0.402905 0.000000
H11   H     H_    0.894502 0.171538 0.487566 0.000000
C12   C     C_3   0.527516 0.229760 0.348325 0.000000
C13   C     C_3   0.547888 0.269800 0.404761 0.000000
C14   C     C_3   0.644934 0.276353 0.425698 0.000000
C15   C     C_R   0.514527 0.319846 0.407504 0.000000
N3    N     N_R   0.535958 0.343179 0.373480 0.000000
C16   C     C_R   0.484902 0.388710 0.394658 0.000000
C17   C     C_R   0.463068 0.426181 0.374522 0.000000
C18   C     C_R   0.404756 0.467266 0.401748 0.000000
C19   C     C_R   0.363756 0.470072 0.447311 0.000000
C20   C     C_R   0.379085 0.430188 0.464525 0.000000
C21   C     C_R   0.438203 0.390333 0.437089 0.000000
N4    N     N_R   0.454774 0.347183 0.445854 0.000000
C22   C     C_2   0.300438 0.513252 0.474807 0.000000
O3    O     O_2   0.261289 0.514253 0.513202 0.000000
O4    O     O_2   0.285145 0.551958 0.457794 0.000000
H12   H     H_    0.559509 0.242839 0.321859 0.000000
H13   H     H_    0.547363 0.190130 0.344913 0.000000
H14   H     H_    0.455349 0.230888 0.337725 0.000000
H15   H     H_    0.509658 0.259536 0.431091 0.000000
H16   H     H_    0.651498 0.313103 0.463232 0.000000
H17   H     H_    0.668107 0.243230 0.435476 0.000000
H18   H     H_    0.684880 0.282195 0.396840 0.000000
H19   H     H_    0.481787 0.422243 0.335567 0.000000
H20   H     H_    0.388646 0.496149 0.385353 0.000000
H21   H     H_    0.344517 0.429258 0.497770 0.000000
H22   H     H_    0.243409 0.580273 0.475989 0.000000
C23   C     C_3   0.762320 0.779311 0.160822 0.000000
C24   C     C_3   0.681122 0.809097 0.187570 0.000000
C25   C     C_3   0.606201 0.805936 0.146063 0.000000
C26   C     C_R   0.650974 0.787843 0.223872 0.000000
N5    N     N_R   0.625988 0.735653 0.206377 0.000000
C27   C     C_R   0.609774 0.736414 0.255843 0.000000
C28   C     C_R   0.575712 0.697122 0.265733 0.000000
C29   C     C_R   0.560155 0.706259 0.319028 0.000000
C30   C     C_R   0.575346 0.754936 0.361885 0.000000
C31   C     C_R   0.605877 0.795135 0.351331 0.000000
C32   C     C_R   0.623833 0.785182 0.298491 0.000000
N6    N     N_R   0.645878 0.820249 0.279540 0.000000
C33   C     C_2   0.556360 0.764261 0.418026 0.000000
O5    O     O_2   0.528416 0.729188 0.427378 0.000000
O6    O     O_2   0.569906 0.811537 0.459543 0.000000
H23   H     H_    0.750526 0.736995 0.142288 0.000000
H24   H     H_    0.779973 0.792989 0.129854 0.000000
H25   H     H_    0.817128 0.787770 0.193298 0.000000
H26   H     H_    0.701659 0.849262 0.212663 0.000000
H27   H     H_    0.589609 0.764632 0.123988 0.000000
H28   H     H_    0.544713 0.823843 0.164011 0.000000
H29   H     H_    0.624705 0.826589 0.121478 0.000000
H30   H     H_    0.558605 0.660264 0.233121 0.000000
H31   H     H_    0.533922 0.675065 0.326534 0.000000
H32   H     H_    0.613123 0.833561 0.383366 0.000000
H33   H     H_    0.557421 0.817489 0.496408 0.000000
C34   C     C_3   0.081173 0.149529 0.448533 0.000000
C35   C     C_3   0.105201 0.148887 0.394906 0.000000
C36   C     C_3   0.180055 0.112431 0.368401 0.000000
C37   C     C_R   0.032955 0.131114 0.354133 0.000000
N7    N     N_R   0.004912 0.080212 0.331356 0.000000
C38   C     C_R   0.949650 0.079737 0.288659 0.000000
C39   C     C_R   0.900164 0.039390 0.251387 0.000000
C40   C     C_R   0.857175 0.045429 0.206775 0.000000
C41   C     C_R   0.866227 0.090617 0.199011 0.000000
C42   C     C_R   0.908461 0.133202 0.240471 0.000000
C43   C     C_R   0.948784 0.126686 0.285267 0.000000
N8    N     N_R   0.004022 0.160214 0.325657 0.000000
C44   C     C_2   0.843161 0.088501 0.143704 0.000000
O7    O     O_2   0.807385 0.049757 0.108760 0.000000
O8    O     O_2   0.868357 0.125709 0.128775 0.000000
H34   H     H_    0.035319 0.117692 0.441061 0.000000
H35   H     H_    0.142389 0.147138 0.473278 0.000000
H36   H     H_    0.048007 0.187536 0.472268 0.000000
H37   H     H_    0.117869 0.188730 0.400153 0.000000
H38   H     H_    0.200637 0.123013 0.336838 0.000000
H39   H     H_    0.236513 0.116749 0.397315 0.000000
H40   H     H_    0.160032 0.071757 0.348120 0.000000
H41   H     H_    0.895369 0.003497 0.256093 0.000000
H42   H     H_    0.823444 0.012520 0.175516 0.000000
H43   H     H_    0.918006 0.169004 0.236493 0.000000
H44   H     H_    0.894862 0.158170 0.153483 0.000000
C45   C     C_3   0.266792 0.230206 0.323712 0.000000
C46   C     C_3   0.272310 0.283756 0.370200 0.000000
C47   C     C_3   0.242568 0.328201 0.354453 0.000000
C48   C     C_R   0.216373 0.289628 0.414509 0.000000
N9    N     N_R   0.123358 0.282275 0.404921 0.000000
C49   C     C_R   0.094944 0.317336 0.453222 0.000000
C50   C     C_R   0.007751 0.330965 0.466175 0.000000
C51   C     C_R   0.992110 0.371507 0.516084 0.000000
C52   C     C_R   0.062903 0.400519 0.549944 0.000000
C53   C     C_R   0.150636 0.387306 0.535430 0.000000
C54   C     C_R   0.165929 0.343144 0.488843 0.000000
N10   N     N_R   0.245812 0.323796 0.467308 0.000000
C55   C     C_2   0.043901 0.445526 0.600798 0.000000
O9    O     O_2   0.975585 0.447054 0.623038 0.000000
O10   O     O_2   0.101680 0.485020 0.623408 0.000000
H45   H     H_    0.204858 0.211958 0.325496 0.000000
H46   H     H_    0.275395 0.232053 0.284513 0.000000
H47   H     H_    0.321972 0.204170 0.327780 0.000000
H48   H     H_    0.342249 0.289173 0.386088 0.000000
H49   H     H_    0.288526 0.360823 0.374549 0.000000
H50   H     H_    0.241953 0.315774 0.310225 0.000000
H51   H     H_    0.175946 0.343940 0.369320 0.000000
H52   H     H_    0.952477 0.311788 0.438121 0.000000
H53   H     H_    0.923569 0.382493 0.526819 0.000000
H54   H     H_    0.205180 0.411860 0.558777 0.000000
H55   H     H_    0.089140 0.514453 0.657264 0.000000
C56   C     C_3   0.063919 0.998648 0.171198 0.000000
C57   C     C_3   0.064648 0.956484 0.190233 0.000000
C58   C     C_3   0.051574 0.904924 0.141844 0.000000
C59   C     C_R   0.145280 0.958945 0.227695 0.000000
N11   N     N_R   0.211743 0.920478 0.208682 0.000000
C60   C     C_R   0.210724 0.899507 0.246809 0.000000
C61   C     C_R   0.222793 0.848445 0.240977 0.000000
C62   C     C_R   0.210384 0.835018 0.283980 0.000000
C63   C     C_R   0.176082 0.870909 0.331621 0.000000
C64   C     C_R   0.149866 0.919521 0.334061 0.000000
C65   C     C_R   0.166608 0.931615 0.290864 0.000000
N12   N     N_R   0.125208 0.969964 0.280872 0.000000
C66   C     C_2   0.159430 0.856025 0.376284 0.000000
O11   O     O_2   0.179669 0.812145 0.372667 0.000000
O12   O     O_2   0.122201 0.890808 0.421625 0.000000
H56   H     H_    0.002904 0.996185 0.143668 0.000000
H57   H     H_    0.065515 0.035429 0.208366 0.000000
H58   H     H_    0.123959 0.994483 0.149056 0.000000
H59   H     H_    0.007096 0.960835 0.214160 0.000000
H60   H     H_    0.105281 0.898092 0.114183 0.000000
H61   H     H_    0.049297 0.873832 0.156628 0.000000
H62   H     H_    0.986242 0.905856 0.119139 0.000000
H63   H     H_    0.241257 0.817866 0.204745 0.000000
H64   H     H_    0.224414 0.795171 0.278662 0.000000
H65   H     H_    0.110928 0.945496 0.366946 0.000000
H66   H     H_    0.111529 0.880899 0.450953 0.000000
C67   C     C_3   0.434708 0.815154 0.243949 0.000000
C68   C     C_3   0.432548 0.874727 0.267309 0.000000
C69   C     C_3   0.465366 0.892223 0.326017 0.000000
C70   C     C_R   0.480341 0.900162 0.238051 0.000000
N13   N     N_R   0.569372 0.913723 0.252830 0.000000
C71   C     C_R   0.591261 0.926208 0.212327 0.000000
C72   C     C_R   0.675558 0.935853 0.202870 0.000000
C73   C     C_R   0.687842 0.935391 0.152354 0.000000
C74   C     C_R   0.615939 0.928010 0.113558 0.000000
C75   C     C_R   0.530031 0.921682 0.125672 0.000000
C76   C     C_R   0.518973 0.921179 0.175579 0.000000
N14   N     N_R   0.444436 0.907887 0.191659 0.000000
C77   C     C_2   0.632712 0.924272 0.058974 0.000000
O13   O     O_2   0.706709 0.933619 0.049966 0.000000
O14   O     O_2   0.567634 0.908979 0.018068 0.000000
H67   H     H_    0.464369 0.802605 0.275357 0.000000
H68   H     H_    0.368325 0.799019 0.237610 0.000000
H69   H     H_    0.469072 0.795573 0.206157 0.000000
H70   H     H_    0.366145 0.890880 0.269485 0.000000
H71   H     H_    0.460274 0.934614 0.343087 0.000000
H72   H     H_    0.423131 0.875974 0.346808 0.000000
H73   H     H_    0.533471 0.879179 0.331880 0.000000
H74   H     H_    0.732351 0.938776 0.231658 0.000000
H75   H     H_    0.755200 0.937223 0.142067 0.000000
H76   H     H_    0.474343 0.914117 0.096149 0.000000
H77   H     H_    0.580241 0.905143 0.981888 0.000000
C78   C     C_3   0.858501 0.050094 0.433128 0.000000
C79   C     C_3   0.802297 0.022920 0.380303 0.000000
C80   C     C_3   0.786785 0.054705 0.347774 0.000000
C81   C     C_R   0.842025 0.972605 0.345104 0.000000
N15   N     N_R   0.932432 0.963393 0.332546 0.000000
C82   C     C_R   0.931773 0.909819 0.306353 0.000000
C83   C     C_R   0.989456 0.873745 0.272201 0.000000
C84   C     C_R   0.986768 0.822621 0.266599 0.000000
C85   C     C_R   0.921090 0.808650 0.290891 0.000000
C86   C     C_R   0.847670 0.841868 0.307941 0.000000
C87   C     C_R   0.851842 0.890720 0.308951 0.000000
N16   N     N_R   0.789676 0.928588 0.326081 0.000000
C88   C     C_2   0.928264 0.759727 0.298183 0.000000
O15   O     O_2   0.990881 0.729035 0.280635 0.000000
O16   O     O_2   0.869928 0.750853 0.328613 0.000000
H78   H     H_    0.923439 0.060478 0.424271 0.000000
H79   H     H_    0.822506 0.085653 0.460289 0.000000
H80   H     H_    0.868141 0.023559 0.454303 0.000000
H81   H     H_    0.737822 0.014625 0.391241 0.000000
H82   H     H_    0.771771 0.028464 0.304235 0.000000
H83   H     H_    0.728077 0.079753 0.360637 0.000000
H84   H     H_    0.845031 0.078807 0.355266 0.000000
H85   H     H_    0.031527 0.883164 0.247842 0.000000
H86   H     H_    0.037566 0.794476 0.244854 0.000000
H87   H     H_    0.794459 0.832551 0.326446 0.000000
H88   H     H_    0.878910 0.721171 0.337872 0.000000
C89   C     C_3   0.580471 0.321592 0.887367 0.000000
C90   C     C_3   0.662692 0.295412 0.901050 0.000000
C91   C     C_3   0.652666 0.243914 0.905709 0.000000
C92   C     C_R   0.714296 0.283397 0.856083 0.000000
N17   N     N_R   0.680682 0.249163 0.804032 0.000000
C93   C     C_R   0.758931 0.233545 0.779711 0.000000
C94   C     C_R   0.772686 0.192454 0.730739 0.000000
C95   C     C_R   0.856171 0.186511 0.710511 0.000000
C96   C     C_R   0.924990 0.219856 0.740819 0.000000
C97   C     C_R   0.914039 0.256597 0.793987 0.000000
C98   C     C_R   0.830332 0.262420 0.813150 0.000000
N18   N     N_R   0.804792 0.294940 0.863649 0.000000
C99   C     C_2   0.010266 0.215079 0.716702 0.000000
O17   O     O_2   0.013526 0.196054 0.666966 0.000000
O18   O     O_2   0.085419 0.231772 0.749346 0.000000
H89   H     H_    0.524459 0.315655 0.906114 0.000000
H90   H     H_    0.591391 0.363115 0.898361 0.000000
H91   H     H_    0.563314 0.306820 0.844547 0.000000
H92   H     H_    0.699988 0.321840 0.937290 0.000000
H93   H     H_    0.707344 0.240053 0.934646 0.000000
H94   H     H_    0.587681 0.241804 0.920537 0.000000
H95   H     H_    0.663274 0.209902 0.866856 0.000000
H96   H     H_    0.721034 0.164479 0.709802 0.000000
H97   H     H_    0.867719 0.155158 0.671047 0.000000
H98   H     H_    0.967974 0.281461 0.818714 0.000000
H99   H     H_    0.142092 0.225556 0.733008 0.000000
C100  C     C_3   0.138177 0.403593 0.960988 0.000000
C101  C     C_3   0.145457 0.366920 0.989478 0.000000
C102  C     C_3   0.091509 0.382359 0.037215 0.000000
C103  C     C_R   0.111970 0.315671 0.953629 0.000000
N19   N     N_R   0.022071 0.303471 0.934433 0.000000
C104  C     C_R   0.029282 0.250719 0.908473 0.000000
C105  C     C_R   0.961400 0.215597 0.886995 0.000000
C106  C     C_R   0.984364 0.162855 0.862422 0.000000
C107  C     C_R   0.074120 0.145580 0.861496 0.000000
C108  C     C_R   0.140577 0.181453 0.889516 0.000000
C109  C     C_R   0.116295 0.233528 0.912353 0.000000
N20   N     N_R   0.169300 0.273578 0.944594 0.000000
C110  C     C_2   0.100069 0.089773 0.833479 0.000000
O19   O     O_2   0.175410 0.075158 0.843205 0.000000
O20   O     O_2   0.044072 0.054626 0.795656 0.000000
H100  H     H_    0.138782 0.444769 0.991555 0.000000
H101  H     H_    0.196913 0.397007 0.936673 0.000000
H102  H     H_    0.078574 0.394846 0.931638 0.000000
H103  H     H_    0.216776 0.363307 0.002553 0.000000
H104  H     H_    0.096835 0.351396 0.051935 0.000000
H105  H     H_    0.113578 0.420314 0.069410 0.000000
H106  H     H_    0.021556 0.379340 0.020918 0.000000
H107  H     H_    0.891907 0.228023 0.890613 0.000000
H108  H     H_    0.930676 0.135463 0.845344 0.000000
H109  H     H_    0.210032 0.169556 0.892773 0.000000
H110  H     H_    0.986793 0.064199 0.782399 0.000000
C111  C     C_3   0.784452 0.472219 0.067970 0.000000
C112  C     C_3   0.720129 0.435080 0.027811 0.000000
C113  C     C_3   0.718249 0.432054 0.970035 0.000000
C114  C     C_R   0.744765 0.387280 0.033449 0.000000
N21   N     N_R   0.820298 0.357563 0.010045 0.000000
C115  C     C_R   0.851503 0.341980 0.049223 0.000000
C116  C     C_R   0.928420 0.313936 0.049417 0.000000
C117  C     C_R   0.955888 0.308058 0.096659 0.000000
C118  C     C_R   0.908519 0.332123 0.142632 0.000000
C119  C     C_R   0.832476 0.362846 0.142873 0.000000
C120  C     C_R   0.799771 0.362142 0.093385 0.000000
N22   N     N_R   0.725424 0.386858 0.082671 0.000000
C121  C     C_2   0.928740 0.315670 0.186521 0.000000
O21   O     O_2   0.910551 0.344781 0.232634 0.000000
O22   O     O_2   0.943788 0.264401 0.173480 0.000000
H111  H     H_    0.827986 0.454214 0.090720 0.000000
H112  H     H_    0.820903 0.489690 0.048049 0.000000
H113  H     H_    0.747532 0.502521 0.098126 0.000000
H114  H     H_    0.654554 0.448561 0.044205 0.000000
H115  H     H_    0.647601 0.436069 0.956036 0.000000
H116  H     H_    0.751771 0.464850 0.968623 0.000000
H117  H     H_    0.749153 0.395398 0.941670 0.000000
H118  H     H_    0.964729 0.296234 0.013488 0.000000
H119  H     H_    0.015652 0.285639 0.099024 0.000000
H120  H     H_    0.795136 0.381769 0.178902 0.000000
H121  H     H_    0.935273 0.250457 0.199995 0.000000
C122  C     C_3   0.773720 0.432454 0.852175 0.000000
C123  C     C_3   0.864589 0.411064 0.858505 0.000000
C124  C     C_3   0.926827 0.411873 0.817217 0.000000
C125  C     C_R   0.898616 0.443528 0.914058 0.000000
N23   N     N_R   0.914327 0.496415 0.933574 0.000000
C126  C     C_R   0.959847 0.505368 0.981742 0.000000
C127  C     C_R   0.008354 0.548302 0.014154 0.000000
C128  C     C_R   0.040018 0.554657 0.065716 0.000000
C129  C     C_R   0.019047 0.519240 0.085375 0.000000
C130  C     C_R   0.979309 0.472904 0.049568 0.000000
C131  C     C_R   0.956432 0.464022 0.994998 0.000000
N24   N     N_R   0.918575 0.422282 0.951439 0.000000
C132  C     C_2   0.040648 0.531998 0.143935 0.000000
O23   O     O_2   0.103373 0.560290 0.168146 0.000000
O24   O     O_2   0.988244 0.516698 0.172563 0.000000
H122  H     H_    0.767322 0.471618 0.885478 0.000000
H123  H     H_    0.768129 0.433253 0.811695 0.000000
H124  H     H_    0.721777 0.409444 0.857941 0.000000
H125  H     H_    0.860837 0.370682 0.853948 0.000000
H126  H     H_    0.997503 0.411524 0.833643 0.000000
H127  H     H_    0.916894 0.376688 0.778206 0.000000
H128  H     H_    0.913489 0.446875 0.808863 0.000000
H129  H     H_    0.028417 0.574789 0.999280 0.000000
H130  H     H_    0.075215 0.589441 0.091606 0.000000
H131  H     H_    0.960006 0.447255 0.066606 0.000000
H132  H     H_    0.934214 0.497663 0.156234 0.000000
C133  C     C_3   0.706066 0.330858 0.755015 0.000000
C134  C     C_3   0.630515 0.363313 0.744323 0.000000
C135  C     C_3   0.624814 0.354560 0.685004 0.000000
C136  C     C_R   0.541652 0.360272 0.764115 0.000000
N25   N     N_R   0.505011 0.316479 0.766304 0.000000
C137  C     C_R   0.417844 0.330339 0.768686 0.000000
C138  C     C_R   0.350035 0.295690 0.751040 0.000000
C139  C     C_R   0.265234 0.313218 0.741540 0.000000
C140  C     C_R   0.247358 0.365634 0.754727 0.000000
C141  C     C_R   0.317823 0.400367 0.772805 0.000000
C142  C     C_R   0.403654 0.380808 0.775338 0.000000
N26   N     N_R   0.480932 0.401416 0.771643 0.000000
C143  C     C_2   0.155674 0.381497 0.742635 0.000000
O25   O     O_2   0.095685 0.349999 0.727412 0.000000
O26   O     O_2   0.137570 0.429616 0.745225 0.000000
H133  H     H_    0.705712 0.291001 0.724203 0.000000
H134  H     H_    0.770640 0.346292 0.752152 0.000000
H135  H     H_    0.700607 0.332935 0.795978 0.000000
H136  H     H_    0.647485 0.403856 0.767150 0.000000
H137  H     H_    0.579203 0.383940 0.679092 0.000000
H138  H     H_    0.692581 0.357295 0.672820 0.000000
H139  H     H_    0.598688 0.316296 0.659313 0.000000
H140  H     H_    0.364389 0.254526 0.738841 0.000000
H141  H     H_    0.213475 0.285184 0.722282 0.000000
H142  H     H_    0.309668 0.438705 0.774197 0.000000
H143  H     H_    0.079146 0.436815 0.731145 0.000000
C144  C     C_3   0.463683 0.244171 0.631573 0.000000
C145  C     C_3   0.529470 0.199854 0.625450 0.000000
C146  C     C_3   0.619866 0.212703 0.654088 0.000000
C147  C     C_R   0.488444 0.166240 0.641579 0.000000
N27   N     N_R   0.480792 0.174994 0.695602 0.000000
C148  C     C_R   0.429922 0.132833 0.686668 0.000000
C149  C     C_R   0.381615 0.123021 0.722463 0.000000
C150  C     C_R   0.340187 0.075411 0.704525 0.000000
C151  C     C_R   0.337933 0.040280 0.649625 0.000000
C152  C     C_R   0.373211 0.054343 0.611900 0.000000
C153  C     C_R   0.416390 0.101028 0.631273 0.000000
N28   N     N_R   0.448474 0.122845 0.600871 0.000000
C154  C     C_2   0.292331 0.990413 0.631111 0.000000
O27   O     O_2   0.259038 0.978600 0.664118 0.000000
O28   O     O_2   0.287453 0.957296 0.577611 0.000000
H144  H     H_    0.486258 0.271698 0.616681 0.000000
H145  H     H_    0.397710 0.228316 0.611035 0.000000
H146  H     H_    0.454347 0.265366 0.674253 0.000000
H147  H     H_    0.536912 0.171065 0.584618 0.000000
H148  H     H_    0.660342 0.175903 0.639036 0.000000
H149  H     H_    0.652198 0.240180 0.642774 0.000000
H150  H     H_    0.613302 0.228338 0.698547 0.000000
H151  H     H_    0.367956 0.152489 0.761843 0.000000
H152  H     H_    0.305042 0.067308 0.733512 0.000000
H153  H     H_    0.367083 0.029844 0.568367 0.000000
H154  H     H_    0.257567 0.924477 0.565590 0.000000
C155  C     C_3   0.351035 0.354118 0.882377 0.000000
C156  C     C_3   0.321164 0.302444 0.879387 0.000000
C157  C     C_3   0.244824 0.278335 0.836564 0.000000
C158  C     C_R   0.390307 0.260676 0.875817 0.000000
N29   N     N_R   0.454408 0.237626 0.836211 0.000000
C159  C     C_R   0.473522 0.192484 0.841625 0.000000
C160  C     C_R   0.530055 0.152642 0.810830 0.000000
C161  C     C_R   0.528268 0.105330 0.814793 0.000000
C162  C     C_R   0.466855 0.097701 0.846643 0.000000
C163  C     C_R   0.413058 0.139267 0.878938 0.000000
C164  C     C_R   0.422980 0.187776 0.879262 0.000000
N30   N     N_R   0.376047 0.232769 0.906254 0.000000
C165  C     C_2   0.457130 0.045189 0.844419 0.000000
O29   O     O_2   0.508074 0.009563 0.818744 0.000000
O30   O     O_2   0.390781 0.035699 0.869555 0.000000
H155  H     H_    0.418966 0.351994 0.869598 0.000000
H156  H     H_    0.302748 0.368996 0.858417 0.000000
H157  H     H_    0.349188 0.383362 0.925266 0.000000
H158  H     H_    0.293326 0.313533 0.919392 0.000000
H159  H     H_    0.207383 0.252846 0.848224 0.000000
H160  H     H_    0.197382 0.308317 0.832012 0.000000
H161  H     H_    0.271174 0.250769 0.797767 0.000000
H162  H     H_    0.571858 0.157144 0.782339 0.000000
H163  H     H_    0.570685 0.073412 0.789640 0.000000
H164  H     H_    0.361190 0.133523 0.901005 0.000000
H165  H     H_    0.384289 0.000996 0.867554 0.000000
C166  C     C_3   0.525992 0.379202 0.002006 0.000000
C167  C     C_3   0.511873 0.328972 0.007861 0.000000
C168  C     C_3   0.595816 0.305744 0.025466 0.000000
C169  C     C_R   0.454799 0.345917 0.051356 0.000000
N31   N     N_R   0.482746 0.386858 0.099424 0.000000
C170  C     C_R   0.407402 0.399722 0.125561 0.000000
C171  C     C_R   0.396827 0.440586 0.175009 0.000000
C172  C     C_R   0.311577 0.452787 0.192395 0.000000
C173  C     C_R   0.240695 0.421131 0.162554 0.000000
C174  C     C_R   0.256609 0.374565 0.116587 0.000000
C175  C     C_R   0.338888 0.367135 0.095239 0.000000
N32   N     N_R   0.366185 0.331285 0.045930 0.000000
C176  C     C_2   0.149756 0.438854 0.180352 0.000000
O31   O     O_2   0.138494 0.481602 0.217775 0.000000
O32   O     O_2   0.078738 0.408296 0.156540 0.000000
H166  H     H_    0.530311 0.414872 0.039649 0.000000
H167  H     H_    0.588702 0.376104 0.984583 0.000000
H168  H     H_    0.470318 0.386514 0.976373 0.000000
H169  H     H_    0.477879 0.299661 0.971530 0.000000
H170  H     H_    0.587949 0.263866 0.013208 0.000000
H171  H     H_    0.653959 0.308660 0.005854 0.000000
H172  H     H_    0.610468 0.325031 0.069967 0.000000
H173  H     H_    0.451818 0.465430 0.197198 0.000000
H174  H     H_    0.301206 0.487630 0.229288 0.000000
H175  H     H_    0.207870 0.344793 0.098392 0.000000
H176  H     H_    0.019860 0.420236 0.169606 0.000000
C177  C     C_3   0.421986 0.115805 0.001452 0.000000
C178  C     C_3   0.419768 0.173441 0.039677 0.000000
C179  C     C_3   0.458885 0.203946 0.013601 0.000000
C180  C     C_R   0.325207 0.189870 0.049154 0.000000
N33   N     N_R   0.273676 0.214386 0.020381 0.000000
C181  C     C_R   0.189606 0.202677 0.026637 0.000000
C182  C     C_R   0.107788 0.221155 0.014822 0.000000
C183  C     C_R   0.031617 0.194827 0.013236 0.000000
C184  C     C_R   0.037150 0.156412 0.032779 0.000000
C185  C     C_R   0.117163 0.148795 0.058617 0.000000
C186  C     C_R   0.192051 0.172285 0.054695 0.000000
N34   N     N_R   0.275800 0.166874 0.073730 0.000000
C187  C     C_2   0.959154 0.124768 0.026697 0.000000
O33   O     O_2   0.968350 0.085629 0.035647 0.000000
O34   O     O_2   0.878060 0.137218 0.008619 0.000000
H177  H     H_    0.488673 0.103625 0.984470 0.000000
H178  H     H_    0.405545 0.091984 0.023060 0.000000
H179  H     H_    0.369004 0.108361 0.968000 0.000000
H180  H     H_    0.458267 0.180385 0.078528 0.000000
H181  H     H_    0.454265 0.245481 0.041103 0.000000
H182  H     H_    0.528379 0.189644 0.003110 0.000000
H183  H     H_    0.417052 0.199709 0.977476 0.000000
H184  H     H_    0.101532 0.257494 0.011703 0.000000
H185  H     H_    0.967638 0.205371 0.998118 0.000000
H186  H     H_    0.123520 0.121154 0.076252 0.000000
H187  H     H_    0.827229 0.115688 0.003706 0.000000
C188  C     C_3   0.559291 0.278437 0.128692 0.000000
C189  C     C_3   0.633339 0.300030 0.171356 0.000000
C190  C     C_3   0.720698 0.279768 0.146871 0.000000
C191  C     C_R   0.626096 0.356209 0.210500 0.000000
N35   N     N_R   0.623785 0.401599 0.200847 0.000000
C192  C     C_R   0.621342 0.439233 0.252535 0.000000
C193  C     C_R   0.605082 0.491902 0.268890 0.000000
C194  C     C_R   0.611845 0.524130 0.324232 0.000000
C195  C     C_R   0.632435 0.503321 0.362624 0.000000
C196  C     C_R   0.638080 0.449542 0.345584 0.000000
C197  C     C_R   0.627265 0.418183 0.290189 0.000000
N36   N     N_R   0.623737 0.365542 0.264962 0.000000
C198  C     C_2   0.645254 0.538205 0.421092 0.000000
O35   O     O_2   0.634162 0.585301 0.436309 0.000000
O36   O     O_2   0.672127 0.518629 0.458076 0.000000
H188  H     H_    0.589351 0.251910 0.090612 0.000000
H189  H     H_    0.518974 0.254040 0.140271 0.000000
H190  H     H_    0.518220 0.310054 0.124101 0.000000
H191  H     H_    0.630838 0.281922 0.199536 0.000000
H192  H     H_    0.771005 0.294725 0.181272 0.000000
H193  H     H_    0.724575 0.236671 0.130483 0.000000
H194  H     H_    0.727134 0.289364 0.111715 0.000000
H195  H     H_    0.583725 0.508239 0.240253 0.000000
H196  H     H_    0.601529 0.565760 0.336960 0.000000
H197  H     H_    0.647695 0.432656 0.375002 0.000000
H198  H     H_    0.683068 0.542096 0.496199 0.000000
C199  C     C_3   0.409460 0.556635 0.147487 0.000000
C200  C     C_3   0.478477 0.525993 0.107641 0.000000
C201  C     C_3   0.459036 0.526132 0.051915 0.000000
C202  C     C_R   0.571157 0.541033 0.132530 0.000000
N37   N     N_R   0.612803 0.590037 0.147236 0.000000
C203  C     C_R   0.679875 0.585973 0.183410 0.000000
C204  C     C_R   0.741266 0.622954 0.215779 0.000000
C205  C     C_R   0.807517 0.609476 0.247413 0.000000
C206  C     C_R   0.813108 0.559695 0.246654 0.000000
C207  C     C_R   0.751288 0.522779 0.214056 0.000000
C208  C     C_R   0.682980 0.537538 0.185210 0.000000
N38   N     N_R   0.617181 0.506751 0.151905 0.000000
C209  C     C_2   0.884436 0.546216 0.280255 0.000000
O37   O     O_2   0.939057 0.578607 0.309040 0.000000
O38   O     O_2   0.889805 0.498039 0.279593 0.000000
H199  H     H_    0.441239 0.590819 0.180984 0.000000
H200  H     H_    0.350476 0.566845 0.125623 0.000000
H201  H     H_    0.385616 0.532248 0.166550 0.000000
H202  H     H_    0.471191 0.485394 0.102141 0.000000
H203  H     H_    0.503596 0.497281 0.022351 0.000000
H204  H     H_    0.388980 0.513893 0.038264 0.000000
H205  H     H_    0.468345 0.565231 0.053893 0.000000
H206  H     H_    0.740559 0.661252 0.215868 0.000000
H207  H     H_    0.856662 0.637986 0.271764 0.000000
H208  H     H_    0.755645 0.483385 0.211365 0.000000
H209  H     H_    0.936738 0.489358 0.301796 0.000000
C210  C     C_3   0.129345 0.594655 0.819784 0.000000
C211  C     C_3   0.055473 0.585306 0.848111 0.000000
C212  C     C_3   0.029133 0.528872 0.823967 0.000000
C213  C     C_R   0.067451 0.605939 0.908795 0.000000
N39   N     N_R   0.128016 0.646031 0.940839 0.000000
C214  C     C_R   0.074187 0.677137 0.979115 0.000000
C215  C     C_R   0.071334 0.730303 0.002187 0.000000
C216  C     C_R   0.007878 0.753789 0.040192 0.000000
C217  C     C_R   0.967199 0.722882 0.059694 0.000000
C218  C     C_R   0.955706 0.671183 0.025882 0.000000
C219  C     C_R   0.998514 0.652861 0.978493 0.000000
N40   N     N_R   0.988186 0.607797 0.933244 0.000000
C220  C     C_2   0.949277 0.742766 0.117149 0.000000
O39   O     O_2   0.959132 0.788903 0.146666 0.000000
O40   O     O_2   0.933548 0.709017 0.138928 0.000000
H210  H     H_    0.190805 0.576077 0.828547 0.000000
H211  H     H_    0.112821 0.577585 0.774807 0.000000
H212  H     H_    0.133786 0.637366 0.834285 0.000000
H213  H     H_    0.998632 0.608733 0.840553 0.000000
H214  H     H_    0.966689 0.526415 0.841595 0.000000
H215  H     H_    0.017744 0.514859 0.778940 0.000000
H216  H     H_    0.079623 0.503898 0.834308 0.000000
H217  H     H_    0.112777 0.752450 0.989170 0.000000
H218  H     H_    0.001116 0.795785 0.060390 0.000000
H219  H     H_    0.922843 0.645859 0.038703 0.000000
H220  H     H_    0.928606 0.720916 0.177849 0.000000
C221  C     C_3   0.580903 0.591603 0.853323 0.000000
C222  C     C_3   0.622924 0.553693 0.877705 0.000000
C223  C     C_3   0.565417 0.515323 0.885835 0.000000
C224  C     C_R   0.681728 0.522853 0.837580 0.000000
N41   N     N_R   0.643847 0.494561 0.785050 0.000000
C225  C     C_R   0.714401 0.492366 0.755521 0.000000
C226  C     C_R   0.719266 0.470111 0.699616 0.000000
C227  C     C_R   0.784766 0.486908 0.677845 0.000000
C228  C     C_R   0.841147 0.526632 0.712217 0.000000
C229  C     C_R   0.843232 0.542255 0.768470 0.000000
C230  C     C_R   0.785874 0.520153 0.789188 0.000000
N42   N     N_R   0.771581 0.536010 0.842825 0.000000
C231  C     C_2   0.894105 0.554280 0.689498 0.000000
O41   O     O_2   0.885158 0.544585 0.640662 0.000000
O42   O     O_2   0.950204 0.591949 0.722787 0.000000
H221  H     H_    0.563245 0.573166 0.808755 0.000000
H222  H     H_    0.520639 0.613381 0.871427 0.000000
H223  H     H_    0.632055 0.620796 0.859289 0.000000
H224  H     H_    0.663884 0.574329 0.915491 0.000000
H225  H     H_    0.610361 0.487327 0.895705 0.000000
H226  H     H_    0.523752 0.534251 0.920437 0.000000
H227  H     H_    0.525050 0.491993 0.848703 0.000000
H228  H     H_    0.671397 0.442502 0.672636 0.000000
H229  H     H_    0.785476 0.472333 0.633737 0.000000
H230  H     H_    0.879058 0.575907 0.795900 0.000000
H231  H     H_    0.983867 0.610594 0.707819 0.000000
C232  C     C_3   0.804554 0.597789 0.100326 0.000000
C233  C     C_3   0.757260 0.573124 0.043309 0.000000
C234  C     C_3   0.662312 0.554989 0.035341 0.000000
C235  C     C_R   0.747240 0.614065 0.026843 0.000000
N43   N     N_R   0.698792 0.659333 0.056050 0.000000
C236  C     C_R   0.718736 0.687615 0.026278 0.000000
C237  C     C_R   0.691020 0.736213 0.028417 0.000000
C238  C     C_R   0.718404 0.754399 0.991696 0.000000
C239  C     C_R   0.769508 0.723375 0.949053 0.000000
C240  C     C_R   0.792559 0.673575 0.943514 0.000000
C241  C     C_R   0.768088 0.657858 0.982439 0.000000
N44   N     N_R   0.787814 0.611159 0.981634 0.000000
C242  C     C_2   0.795420 0.742265 0.909087 0.000000
O43   O     O_2   0.773684 0.786359 0.913969 0.000000
O44   O     O_2   0.843566 0.711067 0.866901 0.000000
H232  H     H_    0.765232 0.631887 0.126610 0.000000
H233  H     H_    0.822903 0.571060 0.120059 0.000000
H234  H     H_    0.868865 0.612863 0.096414 0.000000
H235  H     H_    0.800533 0.544330 0.013912 0.000000
H236  H     H_    0.643190 0.537874 0.990937 0.000000
H237  H     H_    0.652561 0.525824 0.049668 0.000000
H238  H     H_    0.615343 0.587314 0.055244 0.000000
H239  H     H_    0.640878 0.758862 0.052290 0.000000
H240  H     H_    0.694333 0.792557 0.995153 0.000000
H241  H     H_    0.829213 0.647111 0.909456 0.000000
H242  H     H_    0.860564 0.723634 0.840713 0.000000
C243  C     C_3   0.321742 0.965152 0.400309 0.000000
C244  C     C_3   0.320163 0.016429 0.395262 0.000000
C245  C     C_3   0.323092 0.016027 0.339231 0.000000
C246  C     C_R   0.251699 0.049114 0.428716 0.000000
N45   N     N_R   0.159046 0.037435 0.419222 0.000000
C247  C     C_R   0.139294 0.052163 0.471706 0.000000
C248  C     C_R   0.065241 0.038283 0.488250 0.000000
C249  C     C_R   0.058665 0.053390 0.543702 0.000000
C250  C     C_R   0.125235 0.082949 0.581776 0.000000
C251  C     C_R   0.201122 0.096441 0.564360 0.000000
C252  C     C_R   0.209928 0.077683 0.508841 0.000000
N46   N     N_R   0.283914 0.077566 0.482721 0.000000
C253  C     C_2   0.117249 0.096694 0.640242 0.000000
O45   O     O_2   0.055005 0.080673 0.654894 0.000000
O46   O     O_2   0.178422 0.126936 0.678101 0.000000
H243  H     H_    0.313892 0.933780 0.359380 0.000000
H244  H     H_    0.385730 0.960474 0.422164 0.000000
H245  H     H_    0.267506 0.964272 0.425408 0.000000
H246  H     H_    0.379844 0.036211 0.418427 0.000000
H247  H     H_    0.338693 0.055724 0.344911 0.000000
H248  H     H_    0.373612 0.987559 0.315272 0.000000
H249  H     H_    0.259899 0.009329 0.316105 0.000000
H250  H     H_    0.018288 0.011847 0.458410 0.000000
H251  H     H_    0.001386 0.041108 0.556845 0.000000
H252  H     H_    0.252355 0.120054 0.593222 0.000000
H253  H     H_    0.173254 0.134924 0.716403 0.000000
C254  C     C_3   0.587959 0.096445 0.414364 0.000000
C255  C     C_3   0.540454 0.048294 0.379644 0.000000
C256  C     C_3   0.574319 0.024426 0.323614 0.000000
C257  C     C_R   0.547979 0.014699 0.410580 0.000000
N47   N     N_R   0.597137 0.966880 0.394193 0.000000
C258  C     C_R   0.609157 0.962206 0.442320 0.000000
C259  C     C_R   0.666526 0.927537 0.453580 0.000000
C260  C     C_R   0.673998 0.930522 0.506527 0.000000
C261  C     C_R   0.626695 0.968985 0.547630 0.000000
C262  C     C_R   0.572586 0.005544 0.536052 0.000000
C263  C     C_R   0.564618 0.001708 0.483187 0.000000
N48   N     N_R   0.522017 0.035829 0.464771 0.000000
C264  C     C_2   0.636630 0.972094 0.603840 0.000000
O47   O     O_2   0.685259 0.940715 0.614522 0.000000
O48   O     O_2   0.591817 0.009458 0.643878 0.000000
H254  H     H_    0.589708 0.123227 0.393817 0.000000
H255  H     H_    0.545884 0.113520 0.447922 0.000000
H256  H     H_    0.653277 0.087202 0.431118 0.000000
H257  H     H_    0.472132 0.062235 0.376191 0.000000
H258  H     H_    0.518115 0.002720 0.296790 0.000000
H259  H     H_    0.589873 0.054963 0.310012 0.000000
H260  H     H_    0.633526 0.998828 0.321710 0.000000
H261  H     H_    0.707436 0.899955 0.422538 0.000000
H262  H     H_    0.718753 0.903122 0.515660 0.000000
H263  H     H_    0.540870 0.037333 0.567965 0.000000
H264  H     H_    0.598411 0.011286 0.680755 0.000000
C265  C     C_3   0.241378 0.234248 0.507136 0.000000
C266  C     C_3   0.314539 0.198013 0.476200 0.000000
C267  C     C_3   0.325450 0.195516 0.420208 0.000000
C268  C     C_R   0.399923 0.215660 0.503823 0.000000
N49   N     N_R   0.434258 0.263079 0.510692 0.000000
C269  C     C_R   0.521804 0.255804 0.521616 0.000000
C270  C     C_R   0.585642 0.293335 0.539615 0.000000
C271  C     C_R   0.671999 0.280008 0.552613 0.000000
C272  C     C_R   0.692942 0.229535 0.547374 0.000000
C273  C     C_R   0.627512 0.191661 0.527744 0.000000
C274  C     C_R   0.539752 0.206068 0.517266 0.000000
N50   N     N_R   0.461439 0.179212 0.508486 0.000000
C275  C     C_2   0.782312 0.217464 0.567387 0.000000
O49   O     O_2   0.839258 0.250842 0.585774 0.000000
O50   O     O_2   0.801343 0.169791 0.566589 0.000000
H265  H     H_    0.264811 0.272838 0.519775 0.000000
H266  H     H_    0.178939 0.232266 0.482017 0.000000
H267  H     H_    0.229341 0.227227 0.543674 0.000000
H268  H     H_    0.306129 0.159173 0.474782 0.000000
H269  H     H_    0.362504 0.158949 0.395762 0.000000
H270  H     H_    0.259958 0.197348 0.400626 0.000000
H271  H     H_    0.364220 0.227992 0.421755 0.000000
H272  H     H_    0.568953 0.332550 0.544189 0.000000
H273  H     H_    0.722213 0.309749 0.567917 0.000000
H274  H     H_    0.643449 0.153001 0.525787 0.000000
H275  H     H_    0.860307 0.161928 0.579548 0.000000
C276  C     C_3   0.401316 0.326377 0.283046 0.000000
C277  C     C_3   0.375975 0.283874 0.230475 0.000000
C278  C     C_3   0.375301 0.305558 0.187583 0.000000
C279  C     C_R   0.438447 0.238956 0.221245 0.000000
N51   N     N_R   0.530198 0.244582 0.235349 0.000000
C280  C     C_R   0.561837 0.197388 0.199614 0.000000
C281  C     C_R   0.646799 0.185142 0.181422 0.000000
C282  C     C_R   0.656760 0.143129 0.131435 0.000000
C283  C     C_R   0.588714 0.108204 0.105350 0.000000
C284  C     C_R   0.505593 0.118819 0.126420 0.000000
C285  C     C_R   0.492894 0.165010 0.171005 0.000000
N52   N     N_R   0.413382 0.189326 0.184507 0.000000
C286  C     C_2   0.602332 0.063026 0.053129 0.000000
O51   O     O_2   0.670874 0.058273 0.029840 0.000000
O52   O     O_2   0.538415 0.027059 0.030078 0.000000
H276  H     H_    0.468243 0.338788 0.280354 0.000000
H277  H     H_    0.352082 0.359354 0.291053 0.000000
H278  H     H_    0.401715 0.309634 0.313431 0.000000
H279  H     H_    0.310658 0.271150 0.232731 0.000000
H280  H     H_    0.367786 0.274178 0.145721 0.000000
H281  H     H_    0.320377 0.334641 0.193556 0.000000
H282  H     H_    0.436161 0.328154 0.194459 0.000000
H283  H     H_    0.702002 0.210861 0.201191 0.000000
H284  H     H_    0.716317 0.139520 0.110797 0.000000
H285  H     H_    0.449672 0.094860 0.104861 0.000000
H286  H     H_    0.546443 0.998395 0.994878 0.000000
C287  C     C_3   0.078394 0.103571 0.159420 0.000000
C288  C     C_3   0.124334 0.129060 0.216103 0.000000
C289  C     C_3   0.213357 0.107311 0.222896 0.000000
C290  C     C_R   0.135837 0.182035 0.225244 0.000000
N53   N     N_R   0.183091 0.194234 0.190647 0.000000
C291  C     C_R   0.151591 0.243981 0.203139 0.000000
C292  C     C_R   0.169274 0.277702 0.180799 0.000000
C293  C     C_R   0.149504 0.330200 0.211075 0.000000
C294  C     C_R   0.107148 0.347951 0.259919 0.000000
C295  C     C_R   0.074468 0.312000 0.275628 0.000000
C296  C     C_R   0.100028 0.261044 0.247329 0.000000
N54   N     N_R   0.088907 0.222850 0.262662 0.000000
C297  C     C_2   0.105659 0.403575 0.297708 0.000000
O53   O     O_2   0.147214 0.434654 0.288657 0.000000
O54   O     O_2   0.067011 0.419594 0.345631 0.000000
H287  H     H_    0.125142 0.078117 0.130073 0.000000
H288  H     H_    0.021622 0.080889 0.158601 0.000000
H289  H     H_    0.049124 0.134633 0.147552 0.000000
H290  H     H_    0.086619 0.126375 0.246521 0.000000
H291  H     H_    0.235837 0.122241 0.266092 0.000000
H292  H     H_    0.208746 0.064623 0.205186 0.000000
H293  H     H_    0.261218 0.124211 0.207115 0.000000
H294  H     H_    0.206848 0.265436 0.144966 0.000000
H295  H     H_    0.174785 0.357553 0.198597 0.000000
H296  H     H_    0.039586 0.323546 0.312581 0.000000
H297  H     H_    0.069440 0.455833 0.371393 0.000000
C298  C     C_3   0.391152 0.043575 0.245998 0.000000
C299  C     C_3   0.410240 0.059045 0.200896 0.000000
C300  C     C_3   0.507460 0.046215 0.187629 0.000000
C301  C     C_R   0.346023 0.034854 0.151312 0.000000
N55   N     N_R   0.311372 0.984067 0.132229 0.000000
C302  C     C_R   0.257160 0.983374 0.088597 0.000000
C303  C     C_R   0.201136 0.944320 0.054355 0.000000
C304  C     C_R   0.155084 0.949518 0.009876 0.000000
C305  C     C_R   0.166069 0.993179 0.999544 0.000000
C306  C     C_R   0.220066 0.033232 0.035676 0.000000
C307  C     C_R   0.260725 0.028766 0.081522 0.000000
N56   N     N_R   0.308791 0.065041 0.123503 0.000000
C308  C     C_2   0.118982 0.997258 0.951070 0.000000
O55   O     O_2   0.073104 0.961560 0.918669 0.000000
O56   O     O_2   0.124651 0.040824 0.942638 0.000000
H298  H     H_    0.409346 0.002336 0.234477 0.000000
H299  H     H_    0.429338 0.069296 0.284028 0.000000
H300  H     H_    0.319686 0.047549 0.253489 0.000000
H301  H     H_    0.403078 0.102039 0.216714 0.000000
H302  H     H_    0.512049 0.026126 0.142619 0.000000
H303  H     H_    0.545266 0.082868 0.204511 0.000000
H304  H     H_    0.539051 0.022516 0.208549 0.000000
H305  H     H_    0.193601 0.909951 0.061092 0.000000
H306  H     H_    0.111924 0.918441 0.982647 0.000000
H307  H     H_    0.233053 0.066123 0.027166 0.000000
H308  H     H_    0.091283 0.043735 0.911515 0.000000
C309  C     C_3   0.535850 0.636759 0.973462 0.000000
C310  C     C_3   0.503071 0.683624 0.016437 0.000000
C311  C     C_3   0.472273 0.721374 0.992337 0.000000
C312  C     C_R   0.439588 0.667425 0.043008 0.000000
N57   N     N_R   0.348964 0.658887 0.027021 0.000000
C313  C     C_R   0.320792 0.652839 0.070736 0.000000
C314  C     C_R   0.233798 0.650131 0.082060 0.000000
C315  C     C_R   0.217675 0.659103 0.135385 0.000000
C316  C     C_R   0.287656 0.669256 0.175975 0.000000
C317  C     C_R   0.375308 0.669727 0.163125 0.000000
C318  C     C_R   0.390773 0.659144 0.109929 0.000000
N58   N     N_R   0.468931 0.664978 0.091976 0.000000
C319  C     C_2   0.268768 0.680080 0.232529 0.000000
O57   O     O_2   0.191911 0.679372 0.244034 0.000000
O58   O     O_2   0.336280 0.690559 0.271976 0.000000
H309  H     H_    0.563457 0.610103 0.991045 0.000000
H310  H     H_    0.477222 0.618958 0.946174 0.000000
H311  H     H_    0.586220 0.649258 0.954507 0.000000
H312  H     H_    0.553986 0.700555 0.049051 0.000000
H313  H     H_    0.453745 0.758783 0.025751 0.000000
H314  H     H_    0.527103 0.729499 0.972097 0.000000
H315  H     H_    0.419635 0.702272 0.959756 0.000000
H316  H     H_    0.178721 0.645278 0.051685 0.000000
H317  H     H_    0.149228 0.661013 0.145981 0.000000
H318  H     H_    0.429737 0.680503 0.194226 0.000000
H319  H     H_    0.323617 0.697556 0.309098 0.000000
C320  C     C_3   0.335678 0.777159 0.125086 0.000000
C321  C     C_3   0.255763 0.770085 0.084916 0.000000
C322  C     C_3   0.178055 0.803251 0.109932 0.000000
C323  C     C_R   0.280983 0.789077 0.047023 0.000000
N59   N     N_R   0.305567 0.841008 0.064464 0.000000
C324  C     C_R   0.328136 0.839140 0.015566 0.000000
C325  C     C_R   0.363385 0.878250 0.005609 0.000000
C326  C     C_R   0.387628 0.867862 0.953641 0.000000
C327  C     C_R   0.386617 0.817370 0.913380 0.000000
C328  C     C_R   0.354539 0.777768 0.924172 0.000000
C329  C     C_R   0.318320 0.789514 0.973522 0.000000
N60   N     N_R   0.287390 0.755542 0.991845 0.000000
C330  C     C_2   0.423803 0.805600 0.860502 0.000000
O59   O     O_2   0.452266 0.840599 0.851234 0.000000
O60   O     O_2   0.427043 0.756160 0.822008 0.000000
H320  H     H_    0.346277 0.819110 0.150750 0.000000
H321  H     H_    0.324455 0.756038 0.150157 0.000000
H322  H     H_    0.397420 0.762623 0.103638 0.000000
H323  H     H_    0.233781 0.730183 0.061930 0.000000
H324  H     H_    0.141779 0.813017 0.078095 0.000000
H325  H     H_    0.137177 0.784714 0.129076 0.000000
H326  H     H_    0.203694 0.840216 0.138029 0.000000
H327  H     H_    0.373604 0.916667 0.036763 0.000000
H328  H     H_    0.413271 0.899199 0.946142 0.000000
H329  H     H_    0.366353 0.738449 0.896638 0.000000
H330  H     H_    0.451683 0.748655 0.787361 0.000000
C331  C     C_3   0.341824 0.545286 0.950280 0.000000
C332  C     C_3   0.342494 0.521030 0.888926 0.000000
C333  C     C_3   0.247815 0.503090 0.868935 0.000000
C334  C     C_R   0.369318 0.557933 0.865276 0.000000
N61   N     N_R   0.335566 0.609940 0.883893 0.000000
C335  C     C_R   0.341307 0.619041 0.838711 0.000000
C336  C     C_R   0.297907 0.658439 0.828022 0.000000
C337  C     C_R   0.301229 0.658279 0.776710 0.000000
C338  C     C_R   0.344298 0.617482 0.735776 0.000000
C339  C     C_R   0.382802 0.576135 0.746166 0.000000
C340  C     C_R   0.381091 0.577489 0.797777 0.000000
N62   N     N_R   0.406249 0.538449 0.813591 0.000000
C341  C     C_2   0.344576 0.616784 0.680757 0.000000
O61   O     O_2   0.308961 0.652569 0.671285 0.000000
O62   O     O_2   0.384631 0.576860 0.640536 0.000000
H331  H     H_    0.289903 0.576684 0.962891 0.000000
H332  H     H_    0.322075 0.514725 0.962616 0.000000
H333  H     H_    0.408057 0.560088 0.969764 0.000000
H334  H     H_    0.387370 0.485967 0.875974 0.000000
H335  H     H_    0.239760 0.464549 0.869788 0.000000
H336  H     H_    0.199352 0.530817 0.896040 0.000000
H337  H     H_    0.232544 0.500839 0.827231 0.000000
H338  H     H_    0.256853 0.687278 0.857904 0.000000
H339  H     H_    0.266841 0.689413 0.768454 0.000000
H340  H     H_    0.407023 0.542072 0.713683 0.000000
H341  H     H_    0.385358 0.576837 0.604580 0.000000
C342  C     C_3   0.270949 0.437948 0.667510 0.000000
C343  C     C_3   0.338684 0.392714 0.652309 0.000000
C344  C     C_3   0.300186 0.344531 0.609248 0.000000
C345  C     C_R   0.416768 0.409244 0.635985 0.000000
N63   N     N_R   0.431695 0.397380 0.581622 0.000000
C346  C     C_R   0.492563 0.434601 0.589244 0.000000
C347  C     C_R   0.546453 0.439308 0.552617 0.000000
C348  C     C_R   0.598083 0.483238 0.569424 0.000000
C349  C     C_R   0.599174 0.521039 0.623050 0.000000
C350  C     C_R   0.556134 0.511715 0.661459 0.000000
C351  C     C_R   0.507344 0.467041 0.643797 0.000000
N64   N     N_R   0.466502 0.449670 0.675275 0.000000
C352  C     C_2   0.651300 0.568536 0.640017 0.000000
O63   O     O_2   0.691220 0.576298 0.606547 0.000000
O64   O     O_2   0.654736 0.604022 0.692593 0.000000
H342  H     H_    0.276559 0.458278 0.640435 0.000000
H343  H     H_    0.202111 0.423600 0.661999 0.000000
H344  H     H_    0.285782 0.467215 0.709902 0.000000
H345  H     H_    0.363793 0.382188 0.684783 0.000000
H346  H     H_    0.348333 0.311897 0.604065 0.000000
H347  H     H_    0.235624 0.335956 0.620834 0.000000
H348  H     H_    0.291079 0.350665 0.571735 0.000000
H349  H     H_    0.556464 0.408515 0.513505 0.000000
H350  H     H_    0.639112 0.487027 0.540241 0.000000
H351  H     H_    0.562150 0.537991 0.704415 0.000000
H352  H     H_    0.688881 0.635282 0.703578 0.000000

loop_
_geom_bond_atom_site_label_1
_geom_bond_atom_site_label_2
_geom_bond_distance
_geom_bond_site_symmetry_2
_ccdc_geom_bond_type
Zn1   N1    2.198 .      S
Zn1   N3    2.233 .      S
Zn1   N36   2.123 .      S
Zn1   N51   2.211 .      S
Zn2   N5    2.280 .      S
Zn2   N37   2.354 .      S
Zn2   N43   2.398 .      S
Zn2   N58   2.164 .      S
Zn3   N2    2.123 1_455  S
Zn3   N8    2.115 .      S
Zn3   N9    2.210 .      S
Zn3   N54   2.053 .      S
Zn4   N11   2.269 .      S
Zn4   N14   2.177 .      S
Zn4   N55   2.251 .      S
Zn4   N59   2.304 .      S
Zn5   N7    2.117 .      S
Zn5   N12   2.016 1_545  S
Zn5   N15   2.264 1_445  S
Zn5   N45   2.335 .      S
Zn6   N6    2.247 .      S
Zn6   N13   2.079 .      S
Zn6   N16   2.133 .      S
Zn6   N47   2.245 .      S
Zn7   N4    2.073 .      S
Zn7   N10   2.230 .      S
Zn7   N49   2.147 .      S
Zn7   N63   2.208 .      S
Zn8   N18   2.257 .      S
Zn8   N19   2.193 1_655  S
Zn8   N21   2.148 1_556  S
Zn8   N24   2.142 .      S
Zn9   N17   2.291 .      S
Zn9   N25   2.176 .      S
Zn9   N27   2.263 .      S
Zn9   N29   2.193 .      S
Zn10  N20   2.123 .      S
Zn10  N30   2.189 .      S
Zn10  N32   2.225 1_556  S
Zn10  N33   2.160 1_556  S
Zn11  N22   2.177 .      S
Zn11  N31   2.165 .      S
Zn11  N35   2.120 .      S
Zn11  N38   2.234 .      S
Zn12  N23   2.110 .      S
Zn12  N40   2.206 .      S
Zn12  N42   2.254 .      S
Zn12  N44   2.091 .      S
Zn13  N28   2.194 .      S
Zn13  N46   2.299 .      S
Zn13  N48   2.267 .      S
Zn13  N50   2.268 .      S
Zn14  N34   2.063 .      S
Zn14  N52   2.093 .      S
Zn14  N53   2.185 .      S
Zn14  N56   2.269 .      S
Zn15  N39   2.242 .      S
Zn15  N57   2.172 1_556  S
Zn15  N60   2.275 .      S
Zn15  N61   2.221 .      S
Zn16  N26   2.147 .      S
Zn16  N41   2.264 .      S
Zn16  N62   2.268 .      S
Zn16  N64   2.161 .      S
C1    C2    1.505 .      S
C1    H1    1.100 .      S
C1    H2    1.105 .      S
C1    H3    1.101 .      S
C2    C3    1.518 .      S
C2    C4    1.500 .      S
C2    H4    1.108 .      S
C3    H5    1.107 .      S
C3    H6    1.109 .      S
C3    H7    1.104 .      S
C6    H8    1.061 .      S
C7    H9    1.073 .      S
C8    C11   1.453 .      S
C9    H10   1.077 .      S
N2    Zn3   2.123 1_655  S
C11   O2    1.339 .      S
O2    H11   0.963 .      S
C12   C13   1.482 .      S
C12   H12   1.081 .      S
C12   H13   1.105 .      S
C12   H14   1.093 .      S
C13   C14   1.502 .      S
C13   C15   1.440 .      S
C13   H15   1.082 .      S
C14   H16   1.106 .      S
C14   H17   1.098 .      S
C14   H18   1.088 .      S
C17   H19   1.066 .      S
C18   H20   1.080 .      S
C19   C22   1.468 .      S
C20   H21   1.080 .      S
C22   O4    1.346 .      S
O4    H22   0.966 .      S
C23   C24   1.491 .      S
C23   H23   1.102 .      S
C23   H24   1.107 .      S
C23   H25   1.101 .      S
C24   C25   1.487 .      S
C24   C26   1.451 .      S
C24   H26   1.094 .      S
C25   H27   1.095 .      S
C25   H28   1.073 .      S
C25   H29   1.105 .      S
C28   H30   1.070 .      S
C29   H31   1.081 .      S
C30   C33   1.469 .      S
C31   H32   1.070 .      S
C33   O6    1.346 .      S
O6    H33   0.966 .      S
C34   C35   1.507 .      S
C34   H34   1.101 .      S
C34   H35   1.097 .      S
C34   H36   1.105 .      S
C35   C36   1.485 .      S
C35   C37   1.419 .      S
C35   H37   1.097 .      S
C36   H38   1.081 .      S
C36   H39   1.071 .      S
C36   H40   1.091 .      S
C39   H41   1.076 .      S
C40   H42   1.073 .      S
C41   C44   1.471 .      S
C42   H43   1.075 .      S
C44   O8    1.350 .      S
O8    H44   0.962 .      S
C45   C46   1.506 .      S
C45   H45   1.099 .      S
C45   H46   1.094 .      S
C45   H47   1.098 .      S
C46   C47   1.510 .      S
C46   C48   1.462 .      S
C46   H48   1.088 .      S
C47   H49   1.097 .      S
C47   H50   1.088 .      S
C47   H51   1.103 .      S
C50   H52   1.071 1_455  S
C51   H53   1.081 .      S
C52   C55   1.461 .      S
C53   H54   1.073 .      S
C55   O10   1.346 .      S
O10   H55   0.966 .      S
H52   C50   1.071 1_655  S
C56   C57   1.473 .      S
C56   H56   1.108 .      S
C56   H57   1.099 1_565  S
C56   H58   1.094 .      S
C57   C58   1.501 .      S
C57   C59   1.485 .      S
C57   H59   1.090 .      S
C58   H60   1.096 .      S
C58   H61   1.104 .      S
C58   H62   1.109 1_455  S
C61   H63   1.042 .      S
C62   H64   1.080 .      S
C63   C66   1.469 .      S
C64   H65   1.075 .      S
N12   Zn5   2.016 1_565  S
C66   O12   1.346 .      S
O12   H66   0.966 .      S
H57   C56   1.099 1_545  S
H62   C58   1.109 1_655  S
C67   C68   1.526 .      S
C67   H67   1.093 .      S
C67   H68   1.086 .      S
C67   H69   1.091 .      S
C68   C69   1.487 .      S
C68   C70   1.506 .      S
C68   H70   1.062 .      S
C69   H71   1.086 .      S
C69   H72   1.109 .      S
C69   H73   1.082 .      S
C72   H74   1.079 .      S
C73   H75   1.077 .      S
C74   C77   1.468 .      S
C75   H76   1.063 .      S
C77   O14   1.343 .      S
O14   H77   0.966 1_554  S
H77   O14   0.966 1_556  S
C78   C79   1.505 .      S
C78   H78   1.103 .      S
C78   H79   1.105 .      S
C78   H80   1.108 .      S
C79   C80   1.485 .      S
C79   C81   1.461 1_545  S
C79   H81   1.097 .      S
C80   H82   1.103 .      S
C80   H83   1.078 .      S
C80   H84   1.089 .      S
C81   C79   1.461 1_565  S
N15   Zn5   2.264 1_665  S
C83   H85   1.063 1_655  S
C84   H86   1.080 1_655  S
C85   C88   1.466 .      S
C86   H87   1.073 .      S
C88   O16   1.346 .      S
O16   H88   0.965 .      S
H85   C83   1.063 1_455  S
H86   C84   1.080 1_455  S
C89   C90   1.491 .      S
C89   H89   1.069 .      S
C89   H90   1.099 .      S
C89   H91   1.060 .      S
C90   C91   1.523 .      S
C90   C92   1.400 .      S
C90   H92   1.078 .      S
C91   H93   1.109 .      S
C91   H94   1.096 .      S
C91   H95   1.100 .      S
C94   H96   1.077 .      S
C95   H97   1.080 .      S
C96   C99   1.454 1_655  S
C97   H98   1.080 .      S
C99   C96   1.454 1_455  S
C99   O18   1.340 .      S
O18   H99   0.962 .      S
C100  C101  1.513 .      S
C100  H100  1.107 .      S
C100  H101  1.101 .      S
C100  H102  1.102 .      S
C101  C102  1.469 1_556  S
C101  C103  1.451 .      S
C101  H103  1.104 1_556  S
C102  C101  1.469 1_554  S
C102  H104  1.093 .      S
C102  H105  1.105 .      S
C102  H106  1.091 .      S
N19   Zn8   2.193 1_455  S
C105  H107  1.075 .      S
C106  H108  1.079 .      S
C107  C110  1.476 .      S
C108  H109  1.079 .      S
C110  O20   1.350 .      S
O20   H110  0.964 1_455  S
H103  C101  1.104 1_554  S
H110  O20   0.964 1_655  S
C111  C112  1.476 .      S
C111  H111  1.095 .      S
C111  H112  1.062 .      S
C111  H113  1.066 .      S
C112  C113  1.515 1_554  S
C112  C114  1.438 .      S
C112  H114  1.091 .      S
C113  C112  1.515 1_556  S
C113  H115  1.104 .      S
C113  H116  1.092 .      S
C113  H117  1.100 .      S
N21   Zn8   2.148 1_554  S
C116  H118  1.065 .      S
C117  H119  1.075 1_655  S
C118  C121  1.438 .      S
C119  H120  1.078 .      S
C121  O22   1.345 .      S
O22   H121  0.965 .      S
H119  C117  1.075 1_455  S
C122  C123  1.477 .      S
C122  H122  1.098 .      S
C122  H123  1.092 .      S
C122  H124  1.101 .      S
C123  C124  1.517 .      S
C123  C125  1.451 .      S
C123  H125  1.096 .      S
C124  H126  1.109 .      S
C124  H127  1.108 .      S
C124  H128  1.101 .      S
C127  H129  1.049 1_554  S
C128  H130  1.072 .      S
C129  C132  1.469 .      S
C130  H131  1.066 .      S
C132  O24   1.346 1_455  S
O24   C132  1.346 1_655  S
O24   H132  0.962 .      S
H129  C127  1.049 1_556  S
C133  C134  1.493 .      S
C133  H133  1.082 .      S
C133  H134  1.103 .      S
C133  H135  1.087 .      S
C134  C135  1.502 .      S
C134  C136  1.493 .      S
C134  H136  1.081 .      S
C135  H137  1.093 .      S
C135  H138  1.108 .      S
C135  H139  1.083 .      S
C138  H140  1.078 .      S
C139  H141  1.073 .      S
C140  C143  1.466 .      S
C141  H142  1.064 .      S
C143  O26   1.339 .      S
O26   H143  0.964 .      S
C144  C145  1.503 .      S
C144  H144  1.089 .      S
C144  H145  1.108 .      S
C144  H146  1.067 .      S
C145  C146  1.480 .      S
C145  C147  1.384 .      S
C145  H147  1.069 .      S
C146  H148  1.105 .      S
C146  H149  1.091 .      S
C146  H150  1.098 .      S
C149  H151  1.066 .      S
C150  H152  1.081 .      S
C151  C154  1.469 1_545  S
C152  H153  1.081 .      S
C154  C151  1.469 1_565  S
C154  O28   1.346 .      S
O28   H154  0.966 .      S
C155  C156  1.515 .      S
C155  H155  1.091 .      S
C155  H156  1.102 .      S
C155  H157  1.104 .      S
C156  C157  1.515 .      S
C156  C158  1.495 .      S
C156  H158  1.099 .      S
C157  H159  1.092 .      S
C157  H160  1.108 .      S
C157  H161  1.098 .      S
C160  H162  1.080 .      S
C161  H163  1.081 .      S
C162  C165  1.470 .      S
C163  H164  1.074 .      S
C165  O30   1.346 .      S
O30   H165  0.966 .      S
C166  C167  1.515 .      S
C166  H166  1.089 .      S
C166  H167  1.067 1_554  S
C166  H168  1.097 1_554  S
C167  C168  1.509 .      S
C167  C169  1.408 .      S
C167  H169  1.088 1_554  S
C168  H170  1.095 .      S
C168  H171  1.079 .      S
C168  H172  1.094 .      S
C171  H173  1.075 .      S
C172  H174  1.081 .      S
C173  C176  1.470 .      S
C174  H175  1.068 .      S
N32   Zn10  2.225 1_554  S
C176  O32   1.344 .      S
O32   H176  0.965 .      S
H167  C166  1.067 1_556  S
H168  C166  1.097 1_556  S
H169  C167  1.088 1_556  S
C177  C178  1.517 .      S
C177  H177  1.108 1_554  S
C177  H178  1.102 .      S
C177  H179  1.102 1_554  S
C178  C179  1.484 .      S
C178  C180  1.471 .      S
C178  H180  1.093 .      S
C179  H181  1.094 .      S
C179  H182  1.108 .      S
C179  H183  1.073 1_554  S
N33   Zn10  2.160 1_554  S
C182  H184  1.058 .      S
C183  H185  1.079 1_454  S
C184  C187  1.466 1_455  S
C185  H186  1.062 .      S
C187  C184  1.466 1_655  S
C187  O34   1.346 .      S
O34   H187  0.966 .      S
H177  C177  1.108 1_556  S
H179  C177  1.102 1_556  S
H183  C179  1.073 1_556  S
H185  C183  1.079 1_656  S
C188  C189  1.477 .      S
C188  H188  1.100 .      S
C188  H189  1.092 .      S
C188  H190  1.093 .      S
C189  C190  1.488 .      S
C189  C191  1.494 .      S
C189  H191  1.078 .      S
C190  H192  1.089 .      S
C190  H193  1.105 .      S
C190  H194  1.097 .      S
C193  H195  1.066 .      S
C194  H196  1.081 .      S
C195  C198  1.467 .      S
C196  H197  1.074 .      S
C198  O36   1.344 .      S
O36   H198  0.965 .      S
C199  C200  1.508 .      S
C199  H199  1.104 .      S
C199  H200  1.105 .      S
C199  H201  1.102 .      S
C200  C201  1.500 .      S
C200  C202  1.488 .      S
C200  H202  1.101 .      S
C201  H203  1.107 .      S
C201  H204  1.104 .      S
C201  H205  1.096 .      S
C204  H206  1.076 .      S
C205  H207  1.077 .      S
C206  C209  1.469 .      S
C207  H208  1.079 .      S
C209  O38   1.346 .      S
O38   H209  0.966 .      S
C210  C211  1.489 .      S
C210  H210  1.086 .      S
C210  H211  1.108 .      S
C210  H212  1.103 .      S
C211  C212  1.507 .      S
C211  C213  1.482 .      S
C211  H213  1.100 1_455  S
C212  H214  1.101 1_455  S
C212  H215  1.105 .      S
C212  H216  1.096 .      S
C215  H217  1.077 1_554  S
C216  H218  1.079 .      S
C217  C220  1.449 .      S
C218  H219  1.070 .      S
C220  O40   1.346 .      S
O40   H220  0.964 .      S
H213  C211  1.100 1_655  S
H214  C212  1.101 1_655  S
H217  C215  1.077 1_556  S
C221  C222  1.545 .      S
C221  H221  1.102 .      S
C221  H222  1.089 .      S
C221  H223  1.109 .      S
C222  C223  1.515 .      S
C222  C224  1.409 .      S
C222  H224  1.088 .      S
C223  H225  1.105 .      S
C223  H226  1.089 .      S
C223  H227  1.089 .      S
C226  H228  1.071 .      S
C227  H229  1.081 .      S
C228  C231  1.469 .      S
C229  H230  1.066 .      S
C231  O42   1.346 .      S
O42   H231  0.966 .      S
C232  C233  1.519 .      S
C232  H232  1.098 .      S
C232  H233  1.097 .      S
C232  H234  1.104 .      S
C233  C234  1.504 .      S
C233  C235  1.392 .      S
C233  H235  1.092 .      S
C234  H236  1.101 1_554  S
C234  H237  1.063 .      S
C234  H238  1.091 .      S
C237  H239  1.033 .      S
C238  H240  1.081 .      S
C239  C242  1.468 .      S
C240  H241  1.079 .      S
C242  O44   1.346 .      S
O44   H242  0.966 .      S
H236  C234  1.101 1_556  S
C243  C244  1.503 1_565  S
C243  H243  1.088 .      S
C243  H244  1.107 .      S
C243  H245  1.107 .      S
C244  C243  1.503 1_545  S
C244  C245  1.504 .      S
C244  C246  1.436 .      S
C244  H246  1.080 .      S
C245  H247  1.100 .      S
C245  H248  1.100 1_545  S
C245  H249  1.064 .      S
C248  H250  1.075 .      S
C249  H251  1.081 .      S
C250  C253  1.466 .      S
C251  H252  1.075 .      S
C253  O46   1.343 .      S
O46   H253  0.966 .      S
H248  C245  1.100 1_565  S
C254  C255  1.469 .      S
C254  H254  1.106 .      S
C254  H255  1.069 .      S
C254  H256  1.101 .      S
C255  C256  1.491 .      S
C255  C257  1.490 .      S
C255  H257  1.082 .      S
C256  H258  1.089 .      S
C256  H259  1.107 .      S
C256  H260  1.098 1_545  S
C259  H261  1.080 .      S
C260  H262  1.081 .      S
C261  C264  1.469 .      S
C262  H263  1.069 .      S
C264  O48   1.346 1_565  S
O48   C264  1.346 1_545  S
O48   H264  0.966 .      S
H260  C256  1.098 1_565  S
C265  C266  1.499 .      S
C265  H265  1.066 .      S
C265  H266  1.092 .      S
C265  H267  1.109 .      S
C266  C267  1.498 .      S
C266  C268  1.424 .      S
C266  H268  1.092 .      S
C267  H269  1.109 .      S
C267  H270  1.078 .      S
C267  H271  1.096 .      S
C270  H272  1.075 .      S
C271  H273  1.081 .      S
C272  C275  1.469 .      S
C273  H274  1.080 .      S
C275  O50   1.346 .      S
O50   H275  0.966 .      S
C276  C277  1.456 .      S
C276  H276  1.097 .      S
C276  H277  1.109 .      S
C276  H278  1.098 .      S
C277  C278  1.510 .      S
C277  C279  1.473 .      S
C277  H279  1.075 .      S
C278  H280  1.104 .      S
C278  H281  1.097 .      S
C278  H282  1.099 .      S
C281  H283  1.078 .      S
C282  H284  1.067 .      S
C283  C286  1.470 .      S
C284  H285  1.070 .      S
C286  O52   1.346 .      S
O52   H286  0.966 1_544  S
H286  O52   0.966 1_566  S
C287  C288  1.506 .      S
C287  H287  1.091 .      S
C287  H288  1.086 .      S
C287  H289  1.104 .      S
C288  C289  1.459 .      S
C288  C290  1.425 .      S
C288  H290  1.062 .      S
C289  H291  1.085 .      S
C289  H292  1.097 .      S
C289  H293  1.086 .      S
C292  H294  1.075 .      S
C293  H295  1.058 .      S
C294  C297  1.469 .      S
C295  H296  1.079 .      S
C297  O54   1.345 .      S
O54   H297  0.966 .      S
C298  C299  1.500 .      S
C298  H298  1.093 .      S
C298  H299  1.106 .      S
C298  H300  1.095 .      S
C299  C300  1.513 .      S
C299  C301  1.501 .      S
C299  H301  1.105 .      S
C300  H302  1.107 .      S
C300  H303  1.107 .      S
C300  H304  1.100 .      S
C303  H305  1.069 .      S
C304  H306  1.081 1_554  S
C305  C308  1.467 .      S
C306  H307  1.073 .      S
C308  O56   1.345 1_565  S
O56   C308  1.345 1_545  S
O56   H308  0.965 .      S
H306  C304  1.081 1_556  S
C309  C310  1.438 1_556  S
C309  H309  1.085 .      S
C309  H310  1.090 .      S
C309  H311  1.095 .      S
C310  C309  1.438 1_554  S
C310  C311  1.490 1_554  S
C310  C312  1.435 .      S
C310  H312  1.073 .      S
C311  C310  1.490 1_556  S
C311  H313  1.101 1_556  S
C311  H314  1.106 .      S
C311  H315  1.100 .      S
N57   Zn15  2.172 1_554  S
C314  H316  1.078 .      S
C315  H317  1.078 .      S
C316  C319  1.469 .      S
C317  H318  1.072 .      S
C319  O58   1.346 .      S
O58   H319  0.966 .      S
H313  C311  1.101 1_554  S
C320  C321  1.500 .      S
C320  H320  1.105 .      S
C320  H321  1.095 .      S
C320  H322  1.097 .      S
C321  C322  1.469 .      S
C321  C323  1.417 .      S
C321  H323  1.087 .      S
C322  H324  1.093 .      S
C322  H325  1.108 .      S
C322  H326  1.069 .      S
C325  H327  1.066 .      S
C326  H328  1.080 .      S
C327  C330  1.470 .      S
C328  H329  1.059 .      S
C330  O60   1.346 .      S
O60   H330  0.966 .      S
C331  C332  1.498 .      S
C331  H331  1.101 .      S
C331  H332  1.105 .      S
C331  H333  1.097 .      S
C332  C333  1.507 .      S
C332  C334  1.512 .      S
C332  H334  1.105 .      S
C333  H335  1.108 .      S
C333  H336  1.103 .      S
C333  H337  1.098 .      S
C336  H338  1.079 .      S
C337  H339  1.081 .      S
C338  C341  1.469 .      S
C339  H340  1.063 .      S
C341  O62   1.346 .      S
O62   H341  0.966 .      S
C342  C343  1.516 .      S
C342  H342  1.107 .      S
C342  H343  1.103 .      S
C342  H344  1.105 .      S
C343  C344  1.476 .      S
C343  C345  1.448 .      S
C343  H345  1.064 .      S
C344  H346  1.101 .      S
C344  H347  1.109 .      S
C344  H348  1.086 .      S
C347  H349  1.064 .      S
C348  H350  1.079 .      S
C349  C352  1.469 .      S
C350  H351  1.079 .      S
C352  O64   1.346 .      S
O64   H352  0.966 .      S
C4    N1    1.413 .      A
C4    N2    1.392 .      A
N1    C5    1.360 .      A
C5    C6    1.370 .      A
C5    C10   1.343 .      A
C6    C7    1.379 .      A
C7    C8    1.386 .      A
C8    C9    1.355 .      A
C9    C10   1.359 .      A
C10   N2    1.316 .      A
C15   N3    1.394 .      A
C15   N4    1.368 .      A
N3    C16   1.379 .      A
C16   C17   1.383 .      A
C16   C21   1.371 .      A
C17   C18   1.385 .      A
C18   C19   1.387 .      A
C19   C20   1.381 .      A
C20   C21   1.375 .      A
C21   N4    1.335 .      A
C26   N5    1.407 .      A
C26   N6    1.396 .      A
N5    C27   1.362 .      A
C27   C28   1.374 .      A
C27   C32   1.387 .      A
C28   C29   1.383 .      A
C29   C30   1.390 .      A
C30   C31   1.386 .      A
C31   C32   1.375 .      A
C32   N6    1.352 .      A
C37   N7    1.379 .      A
C37   N8    1.364 .      A
N7    C38   1.348 1_455  A
C38   N7    1.348 1_655  A
C38   C39   1.365 .      A
C38   C43   1.361 .      A
C39   C40   1.377 .      A
C40   C41   1.388 .      A
C41   C42   1.389 .      A
C42   C43   1.372 .      A
C43   N8    1.353 1_655  A
N8    C43   1.353 1_455  A
C48   N9    1.403 .      A
C48   N10   1.390 .      A
N9    C49   1.348 .      A
C49   C50   1.370 .      A
C49   C54   1.379 .      A
C50   C51   1.380 1_455  A
C51   C50   1.380 1_655  A
C51   C52   1.389 1_655  A
C52   C51   1.389 1_455  A
C52   C53   1.386 .      A
C53   C54   1.373 .      A
C54   N10   1.356 .      A
C59   N11   1.386 .      A
C59   N12   1.386 .      A
N11   C60   1.379 .      A
C60   C61   1.382 .      A
C60   C65   1.352 .      A
C61   C62   1.385 .      A
C62   C63   1.378 .      A
C63   C64   1.377 .      A
C64   C65   1.383 .      A
C65   N12   1.323 .      A
C70   N13   1.384 .      A
C70   N14   1.406 .      A
N13   C71   1.344 .      A
C71   C72   1.371 .      A
C71   C76   1.369 .      A
C72   C73   1.379 .      A
C73   C74   1.389 .      A
C74   C75   1.391 .      A
C75   C76   1.370 .      A
C76   N14   1.356 .      A
C81   N15   1.405 .      A
C81   N16   1.388 .      A
N15   C82   1.374 .      A
C82   C83   1.369 .      A
C82   C87   1.358 .      A
C83   C84   1.386 .      A
C84   C85   1.385 .      A
C85   C86   1.377 .      A
C86   C87   1.369 .      A
C87   N16   1.326 .      A
C92   N17   1.395 .      A
C92   N18   1.388 .      A
N17   C93   1.350 .      A
C93   C94   1.365 .      A
C93   C98   1.390 .      A
C94   C95   1.378 .      A
C95   C96   1.390 .      A
C96   C97   1.388 .      A
C97   C98   1.370 .      A
C98   N18   1.356 .      A
C103  N19   1.405 .      A
C103  N20   1.368 .      A
N19   C104  1.355 .      A
C104  C105  1.372 1_455  A
C104  C109  1.370 .      A
C105  C104  1.372 1_655  A
C105  C106  1.386 .      A
C106  C107  1.398 1_655  A
C107  C106  1.398 1_455  A
C107  C108  1.389 .      A
C108  C109  1.372 .      A
C109  N20   1.350 .      A
C114  N21   1.394 .      A
C114  N22   1.382 .      A
N21   C115  1.337 .      A
C115  C116  1.355 .      A
C115  C120  1.369 .      A
C116  C117  1.370 .      A
C117  C118  1.373 .      A
C118  C119  1.385 .      A
C119  C120  1.367 .      A
C120  N22   1.348 .      A
C125  N23   1.385 .      A
C125  N24   1.370 .      A
N23   C126  1.338 .      A
C126  C127  1.365 1_656  A
C126  C131  1.356 .      A
C127  C126  1.365 1_454  A
C127  C128  1.364 .      A
C128  C129  1.369 .      A
C129  C130  1.388 1_455  A
C130  C129  1.388 1_655  A
C130  C131  1.393 1_554  A
C131  C130  1.393 1_556  A
C131  N24   1.374 .      A
C136  N25   1.404 .      A
C136  N26   1.384 .      A
N25   C137  1.336 .      A
C137  C138  1.361 .      A
C137  C142  1.362 .      A
C138  C139  1.373 .      A
C139  C140  1.381 .      A
C140  C141  1.393 .      A
C141  C142  1.372 .      A
C142  N26   1.353 .      A
C147  N27   1.380 .      A
C147  N28   1.380 .      A
N27   C148  1.372 .      A
C148  C149  1.374 .      A
C148  C153  1.384 .      A
C149  C150  1.386 .      A
C150  C151  1.391 .      A
C151  C152  1.383 .      A
C152  C153  1.374 .      A
C153  N28   1.340 .      A
C158  N29   1.415 .      A
C158  N30   1.384 .      A
N29   C159  1.349 .      A
C159  C160  1.376 .      A
C159  C164  1.367 .      A
C160  C161  1.381 .      A
C161  C162  1.391 .      A
C162  C163  1.390 .      A
C163  C164  1.379 .      A
C164  N30   1.357 .      A
C169  N31   1.376 .      A
C169  N32   1.388 .      A
N31   C170  1.331 .      A
C170  C171  1.362 .      A
C170  C175  1.377 .      A
C171  C172  1.371 .      A
C172  C173  1.388 .      A
C173  C174  1.402 .      A
C174  C175  1.371 .      A
C175  N32   1.368 .      A
C180  N33   1.392 .      A
C180  N34   1.378 .      A
N33   C181  1.360 .      A
C181  C182  1.363 .      A
C181  C186  1.352 .      A
C182  C183  1.383 .      A
C183  C184  1.380 .      A
C184  C185  1.379 .      A
C185  C186  1.367 .      A
C186  N34   1.334 .      A
C191  N35   1.403 .      A
C191  N36   1.377 .      A
N35   C192  1.353 .      A
C192  C193  1.372 .      A
C192  C197  1.362 .      A
C193  C194  1.380 .      A
C194  C195  1.387 .      A
C195  C196  1.387 .      A
C196  C197  1.378 .      A
C197  N36   1.351 .      A
C202  N37   1.433 .      A
C202  N38   1.396 .      A
N37   C203  1.366 .      A
C203  C204  1.379 .      A
C203  C208  1.382 .      A
C204  C205  1.385 .      A
C205  C206  1.390 .      A
C206  C207  1.384 .      A
C207  C208  1.375 .      A
C208  N38   1.349 .      A
C213  N39   1.418 .      A
C213  N40   1.393 1_455  A
N39   C214  1.335 .      A
C214  C215  1.360 1_556  A
C214  C219  1.352 1_455  A
C215  C214  1.360 1_554  A
C215  C216  1.383 .      A
C216  C217  1.378 1_455  A
C217  C216  1.378 1_655  A
C217  C218  1.369 .      A
C218  C219  1.361 1_554  A
C219  C214  1.352 1_655  A
C219  C218  1.361 1_556  A
C219  N40   1.348 .      A
N40   C213  1.393 1_655  A
C224  N41   1.386 .      A
C224  N42   1.394 .      A
N41   C225  1.358 .      A
C225  C226  1.372 .      A
C225  C230  1.382 .      A
C226  C227  1.382 .      A
C227  C228  1.389 .      A
C228  C229  1.384 .      A
C229  C230  1.367 .      A
C230  N42   1.351 .      A
C235  N43   1.386 .      A
C235  N44   1.374 1_554  A
N43   C236  1.400 .      A
C236  C237  1.384 .      A
C236  C241  1.375 1_554  A
C237  C238  1.385 1_554  A
C238  C237  1.385 1_556  A
C238  C239  1.378 .      A
C239  C240  1.372 .      A
C240  C241  1.376 .      A
C241  C236  1.375 1_556  A
C241  N44   1.321 .      A
N44   C235  1.374 1_556  A
C246  N45   1.419 .      A
C246  N46   1.390 .      A
N45   C247  1.348 .      A
C247  C248  1.363 .      A
C247  C252  1.390 .      A
C248  C249  1.379 .      A
C249  C250  1.392 .      A
C250  C251  1.394 .      A
C251  C252  1.374 .      A
C252  N46   1.360 .      A
C257  N47   1.411 1_545  A
C257  N48   1.405 .      A
N47   C257  1.411 1_565  A
N47   C258  1.347 .      A
C258  C259  1.370 .      A
C258  C263  1.381 1_565  A
C259  C260  1.383 .      A
C260  C261  1.393 .      A
C261  C262  1.389 1_565  A
C262  C261  1.389 1_545  A
C262  C263  1.372 .      A
C263  C258  1.381 1_545  A
C263  N48   1.355 .      A
C268  N49   1.393 .      A
C268  N50   1.373 .      A
N49   C269  1.338 .      A
C269  C270  1.369 .      A
C269  C274  1.367 .      A
C270  C271  1.378 .      A
C271  C272  1.387 .      A
C272  C273  1.392 .      A
C273  C274  1.389 .      A
C274  N50   1.381 .      A
C279  N51   1.390 .      A
C279  N52   1.384 .      A
N51   C280  1.361 .      A
C280  C281  1.374 .      A
C280  C285  1.368 .      A
C281  C282  1.384 .      A
C282  C283  1.383 .      A
C283  C284  1.376 .      A
C284  C285  1.369 .      A
C285  N52   1.336 .      A
C290  N53   1.375 .      A
C290  N54   1.374 .      A
N53   C291  1.361 .      A
C291  C292  1.365 .      A
C291  C296  1.369 .      A
C292  C293  1.386 .      A
C293  C294  1.391 .      A
C294  C295  1.375 .      A
C295  C296  1.363 .      A
C296  N54   1.325 .      A
C301  N55   1.417 1_545  A
C301  N56   1.409 .      A
N55   C301  1.417 1_565  A
N55   C302  1.357 .      A
C302  C303  1.374 .      A
C302  C307  1.372 1_565  A
C303  C304  1.381 .      A
C304  C305  1.389 1_554  A
C305  C304  1.389 1_556  A
C305  C306  1.387 1_566  A
C306  C305  1.387 1_544  A
C306  C307  1.373 .      A
C307  C302  1.372 1_545  A
C307  N56   1.348 .      A
C312  N57   1.388 .      A
C312  N58   1.376 .      A
N57   C313  1.359 .      A
C313  C314  1.375 .      A
C313  C318  1.380 .      A
C314  C315  1.387 .      A
C315  C316  1.392 .      A
C316  C317  1.386 .      A
C317  C318  1.370 .      A
C318  N58   1.346 .      A
C323  N59   1.398 .      A
C323  N60   1.395 1_554  A
N59   C324  1.363 .      A
C324  C325  1.379 .      A
C324  C329  1.389 1_554  A
C325  C326  1.379 1_554  A
C326  C325  1.379 1_556  A
C326  C327  1.382 .      A
C327  C328  1.383 .      A
C328  C329  1.378 .      A
C329  C324  1.389 1_556  A
C329  N60   1.362 .      A
N60   C323  1.395 1_556  A
C334  N61   1.412 .      A
C334  N62   1.413 .      A
N61   C335  1.350 .      A
C335  C336  1.370 .      A
C335  C340  1.375 .      A
C336  C337  1.381 .      A
C337  C338  1.388 .      A
C338  C339  1.387 .      A
C339  C340  1.372 .      A
C340  N62   1.356 .      A
C345  N63   1.391 .      A
C345  N64   1.387 .      A
N63   C346  1.368 .      A
C346  C347  1.377 .      A
C346  C351  1.372 .      A
C347  C348  1.385 .      A
C348  C349  1.389 .      A
C349  C350  1.382 .      A
C350  C351  1.375 .      A
C351  N64   1.340 .      A
C11   O1    1.209 .      D
C22   O3    1.219 .      D
C33   O5    1.219 .      D
C44   O7    1.219 .      D
C55   O9    1.218 1_455  D
O9    C55   1.218 1_655  D
C66   O11   1.219 .      D
C77   O13   1.219 .      D
C88   O15   1.219 .      D
C99   O17   1.219 .      D
C110  O19   1.219 .      D
C121  O21   1.211 .      D
C132  O23   1.219 .      D
C143  O25   1.219 .      D
C154  O27   1.219 .      D
C165  O29   1.219 .      D
C176  O31   1.219 .      D
C187  O33   1.219 .      D
C198  O35   1.219 .      D
C209  O37   1.219 .      D
C220  O39   1.217 .      D
C231  O41   1.219 .      D
C242  O43   1.219 .      D
C253  O45   1.219 .      D
C264  O47   1.219 .      D
C275  O49   1.219 .      D
C286  O51   1.219 .      D
C297  O53   1.216 .      D
C308  O55   1.219 .      D
C319  O57   1.219 .      D
C330  O59   1.219 .      D
C341  O61   1.219 .      D
C352  O63   1.219 .      D
