data_str_m1_o12271_SOF
_audit_creation_date              2015-10-01T06:29:21-0700
_symmetry_space_group_name_H-M    P1
_symmetry_Int_Tables_number       1
_space_group_crystal_system       triclinic
loop_
_symmetry_equiv_pos_as_xyz
  x,y,z
_cell_length_a                    25.9560722
_cell_length_b                    25.5781637
_cell_length_c                    22.5883718
_cell_angle_alpha                 89.5195581
_cell_angle_beta                  108.609881
_cell_angle_gamma                 62.1502769
_cell_volume                      12342.4722046

loop_
_atom_site_label
_atom_site_type_symbol
_atom_site_description
_atom_site_fract_x
_atom_site_fract_y
_atom_site_fract_z
_atom_type_partial_charge
Zn1   Zn    Zn3+2 0.953482 0.788808 0.580414 0.000000
Zn2   Zn    Zn3+2 0.735634 0.387858 0.260776 0.000000
Zn3   Zn    Zn3+2 0.655284 0.004429 0.480501 0.000000
Zn4   Zn    Zn3+2 0.654802 0.711458 0.991428 0.000000
Zn5   Zn    Zn3+2 0.261360 0.082311 0.026487 0.000000
Zn6   Zn    Zn3+2 0.041700 0.309755 0.361239 0.000000
Zn7   Zn    Zn3+2 0.047109 0.344570 0.072865 0.000000
Zn8   Zn    Zn3+2 0.639550 0.057665 0.760493 0.000000
Zn9   Zn    Zn3+2 0.441022 0.987376 0.828120 0.000000
Zn10  Zn    Zn3+2 0.442957 0.928570 0.333435 0.000000
Zn11  Zn    Zn3+2 0.643572 0.672526 0.270865 0.000000
Zn12  Zn    Zn3+2 0.260505 0.022743 0.521462 0.000000
Zn13  Zn    Zn3+2 0.027766 0.032727 0.860542 0.000000
Zn14  Zn    Zn3+2 0.040355 0.988352 0.588922 0.000000
Zn15  Zn    Zn3+2 0.944817 0.836655 0.879675 0.000000
Zn16  Zn    Zn3+2 0.958326 0.626160 0.077760 0.000000
Zn17  Zn    Zn3+2 0.735499 0.210690 0.475077 0.000000
Zn18  Zn    Zn3+2 0.742694 0.425882 0.973484 0.000000
Zn19  Zn    Zn3+2 0.719928 0.250604 0.758334 0.000000
Zn20  Zn    Zn3+2 0.953887 0.589534 0.381868 0.000000
Br1   Br    Br    0.910935 0.808357 0.438165 0.000000
C1    C     C_R   0.832868 0.869339 0.390858 0.000000
C2    C     C_R   0.820957 0.881567 0.326968 0.000000
C3    C     C_R   0.761225 0.912105 0.285045 0.000000
C4    C     C_R   0.714944 0.928112 0.308423 0.000000
C5    C     C_R   0.727455 0.923273 0.373396 0.000000
C6    C     C_R   0.787598 0.897293 0.416854 0.000000
C7    C     C_R   0.797579 0.893282 0.486703 0.000000
N1    N     N_R   0.850173 0.845821 0.535314 0.000000
C8    C     C_R   0.821145 0.835061 0.569924 0.000000
C9    C     C_R   0.845875 0.787046 0.617374 0.000000
C10   C     C_R   0.805253 0.777745 0.637431 0.000000
C11   C     C_R   0.741722 0.819146 0.613685 0.000000
C12   C     C_R   0.718925 0.871759 0.572592 0.000000
C13   C     C_R   0.759236 0.876770 0.549423 0.000000
N2    N     N_R   0.743568 0.918898 0.501579 0.000000
H1    H     H_    0.858973 0.862648 0.309508 0.000000
H2    H     H_    0.750762 0.919182 0.234484 0.000000
H3    H     H_    0.668581 0.945006 0.274958 0.000000
H4    H     H_    0.688809 0.939089 0.389051 0.000000
H5    H     H_    0.893983 0.753945 0.633560 0.000000
H6    H     H_    0.823078 0.737168 0.670491 0.000000
H7    H     H_    0.709962 0.809822 0.626717 0.000000
H8    H     H_    0.670492 0.906135 0.555504 0.000000
Br2   Br    Br    0.801106 0.451135 0.237026 0.000000
C14   C     C_R   0.810079 0.480350 0.315668 0.000000
C15   C     C_R   0.866346 0.469848 0.360125 0.000000
C16   C     C_R   0.868181 0.489491 0.417094 0.000000
C17   C     C_R   0.815090 0.518268 0.430510 0.000000
C18   C     C_R   0.759150 0.531325 0.385078 0.000000
C19   C     C_R   0.757196 0.513201 0.327888 0.000000
C20   C     C_R   0.697986 0.527664 0.281486 0.000000
N3    N     N_R   0.646676 0.583181 0.275990 0.000000
C21   C     C_R   0.602291 0.566755 0.265928 0.000000
C22   C     C_R   0.553660 0.589542 0.287514 0.000000
C23   C     C_R   0.515527 0.564020 0.276490 0.000000
C24   C     C_R   0.530284 0.512461 0.250337 0.000000
C25   C     C_R   0.587012 0.482466 0.242357 0.000000
C26   C     C_R   0.623568 0.509134 0.253969 0.000000
N4    N     N_R   0.684939 0.481951 0.264137 0.000000
H9    H     H_    0.909058 0.444705 0.351402 0.000000
H10   H     H_    0.911167 0.478015 0.454447 0.000000
H11   H     H_    0.818057 0.528554 0.477325 0.000000
H12   H     H_    0.716864 0.554020 0.395138 0.000000
H13   H     H_    0.548458 0.622892 0.317330 0.000000
H14   H     H_    0.475449 0.582914 0.290823 0.000000
H15   H     H_    0.500606 0.492478 0.242479 0.000000
H16   H     H_    0.602428 0.438971 0.228937 0.000000
Br3   Br    Br    0.831203 0.242671 0.344918 0.000000
C27   C     C_R   0.878304 0.224300 0.293093 0.000000
C28   C     C_R   0.886973 0.172466 0.270153 0.000000
C29   C     C_R   0.934597 0.142854 0.249429 0.000000
C30   C     C_R   0.970847 0.167596 0.249158 0.000000
C31   C     C_R   0.955513 0.225185 0.261536 0.000000
C32   C     C_R   0.908194 0.255055 0.283447 0.000000
C33   C     C_R   0.895643 0.313453 0.303915 0.000000
N5    N     N_R   0.838622 0.346077 0.313038 0.000000
C34   C     C_R   0.858295 0.356786 0.371281 0.000000
C35   C     C_R   0.822395 0.382377 0.406639 0.000000
C36   C     C_R   0.850613 0.390138 0.466739 0.000000
C37   C     C_R   0.915236 0.364062 0.492115 0.000000
C38   C     C_R   0.949936 0.335692 0.455149 0.000000
C39   C     C_R   0.920214 0.339323 0.392331 0.000000
N6    N     N_R   0.945746 0.318145 0.347743 0.000000
H17   H     H_    0.858306 0.153159 0.272338 0.000000
H18   H     H_    0.944333 0.100194 0.234655 0.000000
H19   H     H_    0.007129 0.142927 0.232124 0.000000
H20   H     H_    0.978230 0.248208 0.251814 0.000000
H21   H     H_    0.774149 0.394749 0.386666 0.000000
H22   H     H_    0.823765 0.411057 0.496101 0.000000
H23   H     H_    0.938544 0.362345 0.541786 0.000000
H24   H     H_    0.997963 0.303970 0.476627 0.000000
Br4   Br    Br    0.420300 0.055048 0.410787 0.000000
C40   C     C_R   0.474688 0.992915 0.482722 0.000000
C41   C     C_R   0.455227 0.987057 0.530981 0.000000
C42   C     C_R   0.490707 0.935260 0.576067 0.000000
C43   C     C_R   0.546560 0.890873 0.574160 0.000000
C44   C     C_R   0.567109 0.898988 0.527603 0.000000
C45   C     C_R   0.532137 0.951325 0.482865 0.000000
C46   C     C_R   0.546670 0.959283 0.427179 0.000000
N7    N     N_R   0.513212 0.952842 0.368649 0.000000
C47   C     C_R   0.530477 0.974943 0.329124 0.000000
C48   C     C_R   0.521233 0.971457 0.266478 0.000000
C49   C     C_R   0.545648 0.997137 0.237059 0.000000
C50   C     C_R   0.567408 0.033946 0.266430 0.000000
C51   C     C_R   0.576767 0.035167 0.329577 0.000000
C52   C     C_R   0.566047 0.998559 0.360810 0.000000
N8    N     N_R   0.581909 0.986650 0.423674 0.000000
H25   H     H_    0.410174 0.020702 0.530842 0.000000
H26   H     H_    0.473369 0.928731 0.611317 0.000000
H27   H     H_    0.573857 0.849257 0.608490 0.000000
H28   H     H_    0.609193 0.863138 0.525289 0.000000
H29   H     H_    0.498970 0.947084 0.242021 0.000000
H30   H     H_    0.543147 0.993594 0.189021 0.000000
H31   H     H_    0.579678 0.059328 0.240601 0.000000
H32   H     H_    0.592514 0.063025 0.354942 0.000000
Br5   Br    Br    0.669230 0.155624 0.642186 0.000000
C53   C     C_R   0.732477 0.085208 0.642369 0.000000
C54   C     C_R   0.781650 0.087692 0.634794 0.000000
C55   C     C_R   0.819408 0.044247 0.609754 0.000000
C56   C     C_R   0.802770 0.002839 0.587300 0.000000
C57   C     C_R   0.751836 0.004653 0.593408 0.000000
C58   C     C_R   0.720645 0.039511 0.627681 0.000000
C59   C     C_R   0.663022 0.038262 0.620828 0.000000
N9    N     N_R   0.628951 0.053215 0.661606 0.000000
C60   C     C_R   0.572887 0.063481 0.621044 0.000000
C61   C     C_R   0.518103 0.090408 0.631340 0.000000
C62   C     C_R   0.463002 0.115440 0.580164 0.000000
C63   C     C_R   0.463993 0.117258 0.519546 0.000000
C64   C     C_R   0.519678 0.084369 0.509669 0.000000
C65   C     C_R   0.573671 0.054425 0.561860 0.000000
N10   N     N_R   0.631552 0.032315 0.561482 0.000000
H33   H     H_    0.788117 0.125517 0.645995 0.000000
H34   H     H_    0.860190 0.043497 0.606984 0.000000
H35   H     H_    0.829678 0.966188 0.568036 0.000000
H36   H     H_    0.739288 0.973140 0.578185 0.000000
H37   H     H_    0.517098 0.099974 0.676178 0.000000
H38   H     H_    0.419791 0.139419 0.588236 0.000000
H39   H     H_    0.420981 0.145105 0.479899 0.000000
H40   H     H_    0.521077 0.087004 0.462536 0.000000
Br6   Br    Br    0.499644 0.795464 0.986771 0.000000
C66   C     C_R   0.517578 0.855530 0.015485 0.000000
C67   C     C_R   0.515530 0.872415 0.072271 0.000000
C68   C     C_R   0.524232 0.919899 0.088014 0.000000
C69   C     C_R   0.531946 0.952332 0.045725 0.000000
C70   C     C_R   0.535374 0.933815 0.989515 0.000000
C71   C     C_R   0.533589 0.881919 0.977662 0.000000
C72   C     C_R   0.542609 0.856455 0.922504 0.000000
N11   N     N_R   0.579926 0.794567 0.923759 0.000000
C73   C     C_R   0.562161 0.793413 0.861314 0.000000
C74   C     C_R   0.579656 0.743910 0.832790 0.000000
C75   C     C_R   0.572823 0.753010 0.770100 0.000000
C76   C     C_R   0.544939 0.810959 0.737506 0.000000
C77   C     C_R   0.515026 0.859981 0.764123 0.000000
C78   C     C_R   0.523530 0.850242 0.826145 0.000000
N12   N     N_R   0.507458 0.892165 0.862575 0.000000
H41   H     H_    0.507908 0.848481 0.105048 0.000000
H42   H     H_    0.525525 0.930435 0.134152 0.000000
H43   H     H_    0.537241 0.990875 0.057406 0.000000
H44   H     H_    0.540700 0.959215 0.956150 0.000000
H45   H     H_    0.606379 0.698931 0.859805 0.000000
H46   H     H_    0.592083 0.715043 0.747592 0.000000
H47   H     H_    0.542585 0.817629 0.689241 0.000000
H48   H     H_    0.487238 0.905272 0.737735 0.000000
Br7   Br    Br    0.658591 0.554901 0.125990 0.000000
C79   C     C_R   0.576958 0.618440 0.107049 0.000000
C80   C     C_R   0.531097 0.606321 0.109788 0.000000
C81   C     C_R   0.470731 0.651640 0.095712 0.000000
C82   C     C_R   0.458392 0.709864 0.087997 0.000000
C83   C     C_R   0.506992 0.720924 0.095934 0.000000
C84   C     C_R   0.565200 0.676499 0.097821 0.000000
C85   C     C_R   0.617050 0.689925 0.118544 0.000000
N13   N     N_R   0.625705 0.707984 0.176531 0.000000
C86   C     C_R   0.638853 0.751005 0.167308 0.000000
C87   C     C_R   0.648700 0.785315 0.209518 0.000000
C88   C     C_R   0.656593 0.831483 0.189954 0.000000
C89   C     C_R   0.659470 0.837964 0.130346 0.000000
C90   C     C_R   0.656044 0.797676 0.090537 0.000000
C91   C     C_R   0.645128 0.754634 0.110407 0.000000
N14   N     N_R   0.635572 0.714286 0.078060 0.000000
H49   H     H_    0.542622 0.560759 0.123955 0.000000
H50   H     H_    0.434755 0.641516 0.095967 0.000000
H51   H     H_    0.412761 0.746114 0.083482 0.000000
H52   H     H_    0.499151 0.765215 0.102689 0.000000
H53   H     H_    0.652552 0.773252 0.256663 0.000000
H54   H     H_    0.662387 0.861414 0.221480 0.000000
H55   H     H_    0.664061 0.875027 0.114773 0.000000
H56   H     H_    0.659429 0.801609 0.044496 0.000000
Br8   Br    Br    0.156500 0.306331 0.374881 0.000000
C92   C     C_R   0.185608 0.266364 0.314625 0.000000
C93   C     C_R   0.248155 0.244673 0.329788 0.000000
C94   C     C_R   0.276285 0.215238 0.289972 0.000000
C95   C     C_R   0.242345 0.204559 0.236457 0.000000
C96   C     C_R   0.178877 0.226904 0.220178 0.000000
C97   C     C_R   0.148986 0.260640 0.257640 0.000000
C98   C     C_R   0.080221 0.298170 0.230399 0.000000
N15   N     N_R   0.044647 0.322110 0.268423 0.000000
C99   C     C_R   0.997777 0.373268 0.230112 0.000000
C100  C     C_R   0.976561 0.424966 0.252477 0.000000
C101  C     C_R   0.967396 0.475159 0.217819 0.000000
C102  C     C_R   0.957073 0.478810 0.154913 0.000000
C103  C     C_R   0.968286 0.428455 0.129866 0.000000
C104  C     C_R   0.999196 0.375401 0.170673 0.000000
N16   N     N_R   0.049802 0.328143 0.167070 0.000000
H57   H     H_    0.274805 0.252824 0.372608 0.000000
H58   H     H_    0.324572 0.201169 0.301443 0.000000
H59   H     H_    0.265732 0.179325 0.206461 0.000000
H60   H     H_    0.152161 0.219319 0.177062 0.000000
H61   H     H_    0.975619 0.424610 0.298972 0.000000
H62   H     H_    0.962106 0.514264 0.237532 0.000000
H63   H     H_    0.943217 0.520058 0.125912 0.000000
H64   H     H_    0.964122 0.430961 0.081998 0.000000
Br9   Br    Br    0.210830 0.298546 0.968473 0.000000
C105  C     C_R   0.145540 0.284769 0.918499 0.000000
C106  C     C_R   0.120131 0.313610 0.856167 0.000000
C107  C     C_R   0.062747 0.323838 0.817203 0.000000
C108  C     C_R   0.031871 0.303109 0.840450 0.000000
C109  C     C_R   0.060580 0.266743 0.899727 0.000000
C110  C     C_R   0.117270 0.257436 0.940960 0.000000
C111  C     C_R   0.140716 0.227710 0.008678 0.000000
N17   N     N_R   0.203717 0.180528 0.033755 0.000000
C112  C     C_R   0.227571 0.204703 0.080071 0.000000
C113  C     C_R   0.286584 0.196579 0.097943 0.000000
C114  C     C_R   0.299342 0.239558 0.125073 0.000000
C115  C     C_R   0.252893 0.290376 0.134221 0.000000
C116  C     C_R   0.193178 0.299023 0.114265 0.000000
C117  C     C_R   0.181294 0.256125 0.088313 0.000000
N18   N     N_R   0.124160 0.268158 0.050280 0.000000
H65   H     H_    0.142702 0.334028 0.840014 0.000000
H66   H     H_    0.040357 0.351405 0.770323 0.000000
H67   H     H_    0.983668 0.318389 0.812781 0.000000
H68   H     H_    0.036907 0.248541 0.915349 0.000000
H69   H     H_    0.318716 0.163471 0.080697 0.000000
H70   H     H_    0.343590 0.237208 0.132730 0.000000
H71   H     H_    0.262019 0.325865 0.150445 0.000000
H72   H     H_    0.154921 0.342040 0.108901 0.000000
Br10  Br    Br    0.566149 0.934990 0.717950 0.000000
C118  C     C_R   0.610889 0.911652 0.807100 0.000000
C119  C     C_R   0.647818 0.853677 0.839296 0.000000
C120  C     C_R   0.667509 0.843602 0.904723 0.000000
C121  C     C_R   0.655953 0.889692 0.937961 0.000000
C122  C     C_R   0.622230 0.947025 0.905218 0.000000
C123  C     C_R   0.598955 0.956476 0.840421 0.000000
C124  C     C_R   0.550207 0.013897 0.807375 0.000000
N19   N     N_R   0.562687 0.056830 0.786891 0.000000
C125  C     C_R   0.508938 0.107417 0.781794 0.000000
C126  C     C_R   0.495213 0.165843 0.768843 0.000000
C127  C     C_R   0.437491 0.212025 0.764612 0.000000
C128  C     C_R   0.394143 0.199306 0.773654 0.000000
C129  C     C_R   0.408792 0.140393 0.788279 0.000000
C130  C     C_R   0.466549 0.094554 0.792898 0.000000
N20   N     N_R   0.490926 0.034521 0.810283 0.000000
H73   H     H_    0.656442 0.817093 0.813570 0.000000
H74   H     H_    0.690978 0.799690 0.931130 0.000000
H75   H     H_    0.670513 0.881054 0.989069 0.000000
H76   H     H_    0.609590 0.984525 0.929843 0.000000
H77   H     H_    0.529003 0.175777 0.764014 0.000000
H78   H     H_    0.426445 0.258261 0.755229 0.000000
H79   H     H_    0.349366 0.235591 0.771406 0.000000
H80   H     H_    0.376658 0.131995 0.800012 0.000000
Br11  Br    Br    0.375547 0.937023 0.046130 0.000000
C131  C     C_R   0.352097 0.923241 0.963662 0.000000
C132  C     C_R   0.356724 0.868088 0.956349 0.000000
C133  C     C_R   0.362678 0.846450 0.901897 0.000000
C134  C     C_R   0.363720 0.880575 0.855528 0.000000
C135  C     C_R   0.353752 0.937785 0.861038 0.000000
C136  C     C_R   0.347236 0.960056 0.915188 0.000000
C137  C     C_R   0.352672 0.014155 0.925497 0.000000
N21   N     N_R   0.323283 0.058200 0.960495 0.000000
C138  C     C_R   0.343655 0.096563 0.950792 0.000000
C139  C     C_R   0.325737 0.152224 0.966449 0.000000
C140  C     C_R   0.359341 0.180396 0.962943 0.000000
C141  C     C_R   0.410382 0.152136 0.944322 0.000000
C142  C     C_R   0.424476 0.098243 0.923336 0.000000
C143  C     C_R   0.387030 0.073921 0.921843 0.000000
N22   N     N_R   0.390958 0.024089 0.899484 0.000000
H81   H     H_    0.361513 0.839482 0.995518 0.000000
H82   H     H_    0.369677 0.801806 0.897150 0.000000
H83   H     H_    0.372836 0.862044 0.815040 0.000000
H84   H     H_    0.354515 0.963715 0.823920 0.000000
H85   H     H_    0.285852 0.173311 0.979989 0.000000
H86   H     H_    0.347237 0.223663 0.976885 0.000000
H87   H     H_    0.438349 0.172986 0.944778 0.000000
H88   H     H_    0.464751 0.075290 0.910063 0.000000
Br12  Br    Br    0.419369 0.044941 0.092159 0.000000
C144  C     C_R   0.411919 0.082787 0.160802 0.000000
C145  C     C_R   0.434922 0.121945 0.173459 0.000000
C146  C     C_R   0.436497 0.145235 0.228005 0.000000
C147  C     C_R   0.416617 0.127803 0.269820 0.000000
C148  C     C_R   0.388352 0.093020 0.253492 0.000000
C149  C     C_R   0.384671 0.070994 0.198161 0.000000
C150  C     C_R   0.361327 0.028059 0.186716 0.000000
N23   N     N_R   0.318111 0.029631 0.128056 0.000000
C151  C     C_R   0.311723 0.982882 0.146287 0.000000
C152  C     C_R   0.283564 0.954292 0.109791 0.000000
C153  C     C_R   0.289879 0.902897 0.139666 0.000000
C154  C     C_R   0.310911 0.888875 0.204374 0.000000
C155  C     C_R   0.341894 0.915525 0.239869 0.000000
C156  C     C_R   0.346034 0.957877 0.209000 0.000000
N24   N     N_R   0.380208 0.982364 0.237035 0.000000
H89   H     H_    0.453765 0.132484 0.141746 0.000000
H90   H     H_    0.454954 0.175400 0.238702 0.000000
H91   H     H_    0.422589 0.142349 0.315036 0.000000
H92   H     H_    0.368276 0.082969 0.283450 0.000000
H93   H     H_    0.263799 0.966653 0.059002 0.000000
H94   H     H_    0.276545 0.873607 0.113935 0.000000
H95   H     H_    0.304853 0.855633 0.226291 0.000000
H96   H     H_    0.360567 0.905923 0.290831 0.000000
Br13  Br    Br    0.604089 0.736575 0.461127 0.000000
C157  C     C_R   0.627125 0.786359 0.425320 0.000000
C158  C     C_R   0.673445 0.795973 0.462773 0.000000
C159  C     C_R   0.699636 0.819458 0.434671 0.000000
C160  C     C_R   0.677431 0.835362 0.370035 0.000000
C161  C     C_R   0.623425 0.837730 0.334856 0.000000
C162  C     C_R   0.601928 0.808724 0.361416 0.000000
C163  C     C_R   0.554125 0.799288 0.321339 0.000000
N25   N     N_R   0.567261 0.747776 0.293856 0.000000
C164  C     C_R   0.510972 0.751234 0.276650 0.000000
C165  C     C_R   0.490880 0.718502 0.238694 0.000000
C166  C     C_R   0.436684 0.719933 0.237763 0.000000
C167  C     C_R   0.407678 0.750681 0.278241 0.000000
C168  C     C_R   0.424670 0.789815 0.309372 0.000000
C169  C     C_R   0.471051 0.796081 0.298908 0.000000
N26   N     N_R   0.493779 0.832884 0.321401 0.000000
H97   H     H_    0.692989 0.779506 0.513160 0.000000
H98   H     H_    0.741908 0.818760 0.462229 0.000000
H99   H     H_    0.703337 0.842435 0.345828 0.000000
H100  H     H_    0.601774 0.856005 0.284852 0.000000
H101  H     H_    0.519335 0.689078 0.214612 0.000000
H102  H     H_    0.420745 0.692268 0.210567 0.000000
H103  H     H_    0.369555 0.746478 0.282956 0.000000
H104  H     H_    0.401762 0.814238 0.340476 0.000000
Br14  Br    Br    0.245335 0.987420 0.698384 0.000000
C170  C     C_R   0.312546 0.916962 0.689694 0.000000
C171  C     C_R   0.311782 0.863196 0.689820 0.000000
C172  C     C_R   0.361901 0.811282 0.688187 0.000000
C173  C     C_R   0.410042 0.814409 0.679319 0.000000
C174  C     C_R   0.406366 0.869612 0.670712 0.000000
C175  C     C_R   0.361534 0.919907 0.681592 0.000000
C176  C     C_R   0.359762 0.978131 0.675385 0.000000
N27   N     N_R   0.313736 0.021436 0.621040 0.000000
C177  C     C_R   0.293626 0.070991 0.647408 0.000000
C178  C     C_R   0.235327 0.119582 0.623798 0.000000
C179  C     C_R   0.210599 0.156706 0.663117 0.000000
C180  C     C_R   0.245729 0.145608 0.726236 0.000000
C181  C     C_R   0.303832 0.095532 0.750116 0.000000
C182  C     C_R   0.328073 0.059463 0.710624 0.000000
N28   N     N_R   0.374499 0.002244 0.730454 0.000000
H105  H     H_    0.272360 0.860569 0.691398 0.000000
H106  H     H_    0.361915 0.769055 0.690698 0.000000
H107  H     H_    0.448598 0.774287 0.675197 0.000000
H108  H     H_    0.437554 0.874550 0.652594 0.000000
H109  H     H_    0.207003 0.124805 0.576797 0.000000
H110  H     H_    0.162481 0.192535 0.645546 0.000000
H111  H     H_    0.226127 0.173316 0.757619 0.000000
H112  H     H_    0.326866 0.082842 0.799790 0.000000
Br15  Br    Br    0.271395 0.908551 0.363247 0.000000
C183  C     C_R   0.256349 0.981330 0.319282 0.000000
C184  C     C_R   0.221059 0.996667 0.255848 0.000000
C185  C     C_R   0.213842 0.044075 0.218978 0.000000
C186  C     C_R   0.240422 0.077058 0.245841 0.000000
C187  C     C_R   0.273277 0.064324 0.310105 0.000000
C188  C     C_R   0.281530 0.016263 0.347549 0.000000
C189  C     C_R   0.334069 0.988115 0.407092 0.000000
N29   N     N_R   0.325840 0.976265 0.464219 0.000000
C190  C     C_R   0.375573 0.919984 0.487355 0.000000
C191  C     C_R   0.383202 0.878364 0.531596 0.000000
C192  C     C_R   0.428729 0.818852 0.539762 0.000000
C193  C     C_R   0.468109 0.802542 0.505924 0.000000
C194  C     C_R   0.460004 0.845198 0.460949 0.000000
C195  C     C_R   0.412683 0.902653 0.451224 0.000000
N30   N     N_R   0.390316 0.945306 0.400902 0.000000
H113  H     H_    0.204040 0.967546 0.235467 0.000000
H114  H     H_    0.192428 0.053094 0.168312 0.000000
H115  H     H_    0.239075 0.109335 0.214339 0.000000
H116  H     H_    0.296530 0.089053 0.329596 0.000000
H117  H     H_    0.350652 0.891975 0.555289 0.000000
H118  H     H_    0.432642 0.784091 0.570990 0.000000
H119  H     H_    0.502930 0.755875 0.512597 0.000000
H120  H     H_    0.486468 0.833586 0.430625 0.000000
Br16  Br    Br    0.071667 0.019773 0.405270 0.000000
C196  C     C_R   0.067165 0.083363 0.450920 0.000000
C197  C     C_R   0.030848 0.140914 0.418953 0.000000
C198  C     C_R   0.037172 0.185673 0.446997 0.000000
C199  C     C_R   0.077679 0.174187 0.508070 0.000000
C200  C     C_R   0.109355 0.117397 0.542191 0.000000
C201  C     C_R   0.104549 0.072791 0.513167 0.000000
C202  C     C_R   0.145412 0.013123 0.545268 0.000000
N31   N     N_R   0.123099 0.977395 0.563482 0.000000
C203  C     C_R   0.168143 0.922522 0.561444 0.000000
C204  C     C_R   0.172489 0.867724 0.574735 0.000000
C205  C     C_R   0.216808 0.817827 0.561041 0.000000
C206  C     C_R   0.253971 0.823808 0.532098 0.000000
C207  C     C_R   0.250902 0.878681 0.521440 0.000000
C208  C     C_R   0.211562 0.926562 0.541434 0.000000
N32   N     N_R   0.201560 0.983567 0.534880 0.000000
H121  H     H_    0.001482 0.149749 0.370705 0.000000
H122  H     H_    0.013633 0.228911 0.419528 0.000000
H123  H     H_    0.082229 0.209847 0.529959 0.000000
H124  H     H_    0.137179 0.107131 0.591840 0.000000
H125  H     H_    0.142912 0.863066 0.595875 0.000000
H126  H     H_    0.220482 0.774444 0.570276 0.000000
H127  H     H_    0.285161 0.785446 0.517209 0.000000
H128  H     H_    0.274491 0.884524 0.493015 0.000000
Br17  Br    Br    0.295670 0.138016 0.445150 0.000000
C209  C     C_R   0.265282 0.193126 0.496399 0.000000
C210  C     C_R   0.296882 0.222515 0.524799 0.000000
C211  C     C_R   0.278918 0.257628 0.567894 0.000000
C212  C     C_R   0.227939 0.264683 0.580565 0.000000
C213  C     C_R   0.193888 0.238835 0.547974 0.000000
C214  C     C_R   0.211286 0.203750 0.504628 0.000000
C215  C     C_R   0.173125 0.179156 0.465259 0.000000
N33   N     N_R   0.121244 0.214879 0.409157 0.000000
C216  C     C_R   0.122816 0.170762 0.375733 0.000000
C217  C     C_R   0.099929 0.175636 0.311612 0.000000
C218  C     C_R   0.112232 0.124090 0.286932 0.000000
C219  C     C_R   0.135601 0.070612 0.326334 0.000000
C220  C     C_R   0.167357 0.063991 0.389872 0.000000
C221  C     C_R   0.163071 0.114703 0.412044 0.000000
N34   N     N_R   0.196431 0.116240 0.469716 0.000000
H129  H     H_    0.336124 0.217618 0.513631 0.000000
H130  H     H_    0.305192 0.278728 0.592205 0.000000
H131  H     H_    0.214229 0.290859 0.615626 0.000000
H132  H     H_    0.156645 0.241744 0.560654 0.000000
H133  H     H_    0.075116 0.217137 0.280399 0.000000
H134  H     H_    0.097435 0.126875 0.236027 0.000000
H135  H     H_    0.134702 0.032614 0.306671 0.000000
H136  H     H_    0.194868 0.020335 0.420449 0.000000
Br18  Br    Br    0.776118 0.095714 0.804430 0.000000
C222  C     C_R   0.810831 0.115059 0.882870 0.000000
C223  C     C_R   0.797034 0.110576 0.935909 0.000000
C224  C     C_R   0.833589 0.111960 0.994346 0.000000
C225  C     C_R   0.885597 0.115829 0.000216 0.000000
C226  C     C_R   0.901406 0.116119 0.947712 0.000000
C227  C     C_R   0.863668 0.115809 0.889742 0.000000
C228  C     C_R   0.870852 0.130111 0.832888 0.000000
N35   N     N_R   0.930906 0.112880 0.833561 0.000000
C229  C     C_R   0.918251 0.164081 0.800939 0.000000
C230  C     C_R   0.958025 0.185788 0.809736 0.000000
C231  C     C_R   0.938188 0.239019 0.772347 0.000000
C232  C     C_R   0.875349 0.276148 0.737753 0.000000
C233  C     C_R   0.833331 0.258641 0.741168 0.000000
C234  C     C_R   0.855709 0.203375 0.773946 0.000000
N36   N     N_R   0.822195 0.184707 0.792494 0.000000
H137  H     H_    0.760592 0.100999 0.933046 0.000000
H138  H     H_    0.822716 0.107576 0.035840 0.000000
H139  H     H_    0.913800 0.118394 0.045705 0.000000
H140  H     H_    0.941983 0.119437 0.951226 0.000000
H141  H     H_    0.000411 0.165663 0.850385 0.000000
H142  H     H_    0.971727 0.251208 0.770050 0.000000
H143  H     H_    0.859353 0.319165 0.710135 0.000000
H144  H     H_    0.784171 0.288178 0.722567 0.000000
Br19  Br    Br    0.194131 0.898043 0.998578 0.000000
C235  C     C_R   0.156694 0.956688 0.044518 0.000000
C236  C     C_R   0.149944 0.936657 0.096893 0.000000
C237  C     C_R   0.122462 0.976663 0.131997 0.000000
C238  C     C_R   0.100184 0.036999 0.113752 0.000000
C239  C     C_R   0.109759 0.056757 0.063267 0.000000
C240  C     C_R   0.139835 0.016671 0.029646 0.000000
C241  C     C_R   0.145976 0.040897 0.974865 0.000000
N37   N     N_R   0.187255 0.063630 0.979907 0.000000
C242  C     C_R   0.166036 0.091727 0.920404 0.000000
C243  C     C_R   0.183645 0.129469 0.900197 0.000000
C244  C     C_R   0.152105 0.161157 0.839202 0.000000
C245  C     C_R   0.103726 0.154629 0.800236 0.000000
C246  C     C_R   0.090378 0.112596 0.820416 0.000000
C247  C     C_R   0.118666 0.084738 0.882009 0.000000
N38   N     N_R   0.102152 0.053593 0.913875 0.000000
H145  H     H_    0.165132 0.889526 0.109538 0.000000
H146  H     H_    0.115437 0.961169 0.171897 0.000000
H147  H     H_    0.076949 0.068207 0.140614 0.000000
H148  H     H_    0.093529 0.103786 0.049081 0.000000
H149  H     H_    0.216308 0.140053 0.931862 0.000000
H150  H     H_    0.162593 0.193685 0.823280 0.000000
H151  H     H_    0.075658 0.183833 0.754253 0.000000
H152  H     H_    0.052838 0.107198 0.791675 0.000000
Br20  Br    Br    0.098944 0.765195 0.008632 0.000000
C248  C     C_R   0.131399 0.787583 0.954609 0.000000
C249  C     C_R   0.193432 0.744895 0.970779 0.000000
C250  C     C_R   0.230504 0.752602 0.945052 0.000000
C251  C     C_R   0.204383 0.802362 0.900124 0.000000
C252  C     C_R   0.140358 0.843066 0.877934 0.000000
C253  C     C_R   0.102473 0.839206 0.905982 0.000000
C254  C     C_R   0.037509 0.892581 0.889925 0.000000
N39   N     N_R   0.035045 0.948149 0.901974 0.000000
C255  C     C_R   0.024759 0.950247 0.956414 0.000000
C256  C     C_R   0.017541 0.994399 0.991298 0.000000
C257  C     C_R   0.004277 0.989735 0.045132 0.000000
C258  C     C_R   0.006342 0.938107 0.066645 0.000000
C259  C     C_R   0.012187 0.894909 0.029590 0.000000
C260  C     C_R   0.014345 0.905018 0.970468 0.000000
N40   N     N_R   0.005321 0.878117 0.918997 0.000000
H153  H     H_    0.213915 0.706103 0.007538 0.000000
H154  H     H_    0.279956 0.720412 0.960736 0.000000
H155  H     H_    0.235834 0.808203 0.883001 0.000000
H156  H     H_    0.118978 0.879629 0.839339 0.000000
H157  H     H_    0.023224 0.030949 0.977165 0.000000
H158  H     H_    0.998146 0.023683 0.074202 0.000000
H159  H     H_    0.002825 0.931795 0.112286 0.000000
H160  H     H_    0.018969 0.853513 0.049864 0.000000
Br21  Br    Br    0.113677 0.718507 0.590746 0.000000
C261  C     C_R   0.123959 0.759835 0.657603 0.000000
C262  C     C_R   0.180990 0.724931 0.705570 0.000000
C263  C     C_R   0.203071 0.749679 0.752875 0.000000
C264  C     C_R   0.166391 0.808990 0.751964 0.000000
C265  C     C_R   0.107101 0.843038 0.708115 0.000000
C266  C     C_R   0.084229 0.820268 0.659263 0.000000
C267  C     C_R   0.026206 0.863643 0.606022 0.000000
N41   N     N_R   0.027732 0.911571 0.577100 0.000000
C268  C     C_R   0.021506 0.899767 0.518713 0.000000
C269  C     C_R   0.033876 0.924287 0.474662 0.000000
C270  C     C_R   0.042098 0.896081 0.424030 0.000000
C271  C     C_R   0.039824 0.843349 0.420660 0.000000
C272  C     C_R   0.024576 0.821559 0.464883 0.000000
C273  C     C_R   0.009686 0.853423 0.511031 0.000000
N42   N     N_R   0.000596 0.836694 0.562679 0.000000
H161  H     H_    0.210297 0.678711 0.703026 0.000000
H162  H     H_    0.249427 0.723715 0.788798 0.000000
H163  H     H_    0.184812 0.829730 0.785269 0.000000
H164  H     H_    0.078194 0.888566 0.710858 0.000000
H165  H     H_    0.038846 0.963373 0.481010 0.000000
H166  H     H_    0.053606 0.912982 0.389070 0.000000
H167  H     H_    0.051445 0.818517 0.384081 0.000000
H168  H     H_    0.029782 0.777903 0.466740 0.000000
Br22  Br    Br    0.086688 0.094964 0.683282 0.000000
C274  C     C_R   0.000987 0.125580 0.676199 0.000000
C275  C     C_R   0.961293 0.186233 0.658868 0.000000
C276  C     C_R   0.898322 0.207683 0.640459 0.000000
C277  C     C_R   0.875540 0.170262 0.648052 0.000000
C278  C     C_R   0.915981 0.111202 0.674916 0.000000
C279  C     C_R   0.977622 0.088708 0.685589 0.000000
C280  C     C_R   0.020204 0.027215 0.713525 0.000000
N43   N     N_R   0.058972 0.993185 0.682859 0.000000
C281  C     C_R   0.114391 0.964029 0.730636 0.000000
C282  C     C_R   0.171229 0.927082 0.727626 0.000000
C283  C     C_R   0.222128 0.902402 0.784360 0.000000
C284  C     C_R   0.214016 0.916277 0.840792 0.000000
C285  C     C_R   0.156617 0.954283 0.841603 0.000000
C286  C     C_R   0.107662 0.976429 0.786439 0.000000
N44   N     N_R   0.048172 0.013398 0.778733 0.000000
H169  H     H_    0.978719 0.216423 0.654149 0.000000
H170  H     H_    0.867338 0.254734 0.623004 0.000000
H171  H     H_    0.826667 0.187143 0.635527 0.000000
H172  H     H_    0.899909 0.082261 0.686891 0.000000
H173  H     H_    0.174970 0.915349 0.683315 0.000000
H174  H     H_    0.266935 0.867715 0.785896 0.000000
H175  H     H_    0.249998 0.892924 0.885710 0.000000
H176  H     H_    0.149449 0.960780 0.884816 0.000000
Br23  Br    Br    0.920777 0.095317 0.399404 0.000000
C287  C     C_R   0.893946 0.043558 0.418607 0.000000
C288  C     C_R   0.895069 0.002856 0.379695 0.000000
C289  C     C_R   0.886903 0.957249 0.397243 0.000000
C290  C     C_R   0.879752 0.952268 0.454562 0.000000
C291  C     C_R   0.880407 0.992091 0.493141 0.000000
C292  C     C_R   0.880188 0.041430 0.472743 0.000000
C293  C     C_R   0.886606 0.079434 0.517393 0.000000
N45   N     N_R   0.947656 0.068319 0.544283 0.000000
C294  C     C_R   0.937130 0.124353 0.536345 0.000000
C295  C     C_R   0.980153 0.140501 0.542070 0.000000
C296  C     C_R   0.960023 0.200909 0.529996 0.000000
C297  C     C_R   0.897860 0.240018 0.499735 0.000000
C298  C     C_R   0.855052 0.221564 0.488827 0.000000
C299  C     C_R   0.875273 0.165275 0.513103 0.000000
N46   N     N_R   0.839352 0.140678 0.505448 0.000000
H177  H     H_    0.906737 0.004403 0.338098 0.000000
H178  H     H_    0.895875 0.921684 0.370535 0.000000
H179  H     H_    0.884795 0.912535 0.476309 0.000000
H180  H     H_    0.892434 0.979586 0.542762 0.000000
H181  H     H_    0.026903 0.105940 0.562885 0.000000
H182  H     H_    0.990818 0.219039 0.546195 0.000000
H183  H     H_    0.882183 0.285245 0.486629 0.000000
H184  H     H_    0.807128 0.249553 0.460668 0.000000
Br24  Br    Br    0.810312 0.894858 0.690705 0.000000
C300  C     C_R   0.866610 0.921682 0.717222 0.000000
C301  C     C_R   0.855326 0.971678 0.743690 0.000000
C302  C     C_R   0.900035 0.988636 0.761130 0.000000
C303  C     C_R   0.955757 0.953187 0.753952 0.000000
C304  C     C_R   0.967622 0.900524 0.732584 0.000000
C305  C     C_R   0.921988 0.885415 0.712839 0.000000
C306  C     C_R   0.942058 0.822996 0.725726 0.000000
N47   N     N_R   0.966597 0.799309 0.791176 0.000000
C307  C     C_R   0.018175 0.748072 0.793232 0.000000
C308  C     C_R   0.071519 0.716757 0.845564 0.000000
C309  C     C_R   0.124740 0.672396 0.837716 0.000000
C310  C     C_R   0.123205 0.658451 0.778188 0.000000
C311  C     C_R   0.069969 0.692120 0.724928 0.000000
C312  C     C_R   0.019022 0.738401 0.733083 0.000000
N48   N     N_R   0.970066 0.784398 0.687211 0.000000
H185  H     H_    0.811478 0.996689 0.749843 0.000000
H186  H     H_    0.892967 0.027720 0.782345 0.000000
H187  H     H_    0.993463 0.961374 0.774330 0.000000
H188  H     H_    0.014919 0.866540 0.741735 0.000000
H189  H     H_    0.072093 0.728055 0.891199 0.000000
H190  H     H_    0.167628 0.647511 0.878542 0.000000
H191  H     H_    0.164740 0.622863 0.773086 0.000000
H192  H     H_    0.069607 0.684059 0.678100 0.000000
Br25  Br    Br    0.884088 0.982346 0.918746 0.000000
C313  C     C_R   0.831499 0.981089 0.956222 0.000000
C314  C     C_R   0.832097 0.993674 0.015519 0.000000
C315  C     C_R   0.779645 0.009094 0.029716 0.000000
C316  C     C_R   0.728320 0.010362 0.984869 0.000000
C317  C     C_R   0.730310 0.995111 0.926769 0.000000
C318  C     C_R   0.783665 0.978945 0.913586 0.000000
C319  C     C_R   0.789343 0.960991 0.853423 0.000000
N49   N     N_R   0.731892 0.977762 0.806212 0.000000
C320  C     C_R   0.743627 0.924763 0.788638 0.000000
C321  C     C_R   0.702877 0.912705 0.745158 0.000000
C322  C     C_R   0.721511 0.853159 0.740581 0.000000
C323  C     C_R   0.783376 0.808771 0.771814 0.000000
C324  C     C_R   0.826584 0.823962 0.808329 0.000000
C325  C     C_R   0.804912 0.881597 0.818070 0.000000
N50   N     N_R   0.839365 0.903890 0.853033 0.000000
H193  H     H_    0.871417 0.995544 0.048836 0.000000
H194  H     H_    0.778271 0.021236 0.075129 0.000000
H195  H     H_    0.686668 0.022914 0.995343 0.000000
H196  H     H_    0.689894 0.996183 0.892461 0.000000
H197  H     H_    0.658270 0.949210 0.715904 0.000000
H198  H     H_    0.688215 0.841482 0.710824 0.000000
H199  H     H_    0.798271 0.763339 0.764038 0.000000
H200  H     H_    0.875799 0.793500 0.827924 0.000000
Br26  Br    Br    0.839956 0.616515 0.135566 0.000000
C326  C     C_R   0.838925 0.669571 0.192472 0.000000
C327  C     C_R   0.792250 0.701120 0.214430 0.000000
C328  C     C_R   0.797378 0.738717 0.256236 0.000000
C329  C     C_R   0.845500 0.750449 0.268677 0.000000
C330  C     C_R   0.889440 0.721760 0.242523 0.000000
C331  C     C_R   0.888223 0.677293 0.210356 0.000000
C332  C     C_R   0.945421 0.624329 0.226421 0.000000
N51   N     N_R   0.977917 0.604831 0.292871 0.000000
C333  C     C_R   0.034593 0.594632 0.295190 0.000000
C334  C     C_R   0.086567 0.577955 0.348754 0.000000
C335  C     C_R   0.139375 0.573372 0.341169 0.000000
C336  C     C_R   0.138152 0.588880 0.281554 0.000000
C337  C     C_R   0.085671 0.605010 0.227824 0.000000
C338  C     C_R   0.035772 0.603616 0.234750 0.000000
N52   N     N_R   0.980597 0.618042 0.188026 0.000000
H201  H     H_    0.753147 0.695010 0.198882 0.000000
H202  H     H_    0.763987 0.759390 0.278925 0.000000
H203  H     H_    0.851308 0.778349 0.301855 0.000000
H204  H     H_    0.929301 0.728045 0.253842 0.000000
H205  H     H_    0.086566 0.567658 0.395232 0.000000
H206  H     H_    0.181591 0.559139 0.382224 0.000000
H207  H     H_    0.178547 0.588539 0.277105 0.000000
H208  H     H_    0.082827 0.621787 0.182567 0.000000
Br27  Br    Br    0.813618 0.793364 0.935700 0.000000
C339  C     C_R   0.802611 0.806868 0.013294 0.000000
C340  C     C_R   0.798789 0.859840 0.029567 0.000000
C341  C     C_R   0.789947 0.876943 0.084322 0.000000
C342  C     C_R   0.780629 0.842210 0.120592 0.000000
C343  C     C_R   0.779775 0.791925 0.101188 0.000000
C344  C     C_R   0.792710 0.771042 0.049766 0.000000
C345  C     C_R   0.800041 0.710837 0.037928 0.000000
N53   N     N_R   0.748318 0.704556 0.001292 0.000000
C346  C     C_R   0.769271 0.681045 0.955007 0.000000
C347  C     C_R   0.731816 0.700209 0.892147 0.000000
C348  C     C_R   0.756454 0.697487 0.845758 0.000000
C349  C     C_R   0.819770 0.675001 0.863219 0.000000
C350  C     C_R   0.856562 0.659927 0.926885 0.000000
C351  C     C_R   0.831951 0.660979 0.972097 0.000000
N54   N     N_R   0.855668 0.670532 0.029975 0.000000
H209  H     H_    0.805492 0.886700 0.999417 0.000000
H210  H     H_    0.789909 0.916952 0.098796 0.000000
H211  H     H_    0.771892 0.855138 0.163177 0.000000
H212  H     H_    0.767135 0.769027 0.125885 0.000000
H213  H     H_    0.683457 0.724710 0.880408 0.000000
H214  H     H_    0.726165 0.713962 0.796229 0.000000
H215  H     H_    0.839322 0.673590 0.827390 0.000000
H216  H     H_    0.897978 0.662777 0.941357 0.000000
Br28  Br    Br    0.138092 0.623369 0.997614 0.000000
C352  C     C_R   0.067976 0.625795 0.933080 0.000000
C353  C     C_R   0.082543 0.591981 0.887475 0.000000
C354  C     C_R   0.037390 0.603008 0.829163 0.000000
C355  C     C_R   0.976363 0.645511 0.817701 0.000000
C356  C     C_R   0.960723 0.674711 0.865407 0.000000
C357  C     C_R   0.005292 0.665852 0.923828 0.000000
C358  C     C_R   0.983975 0.704471 0.969377 0.000000
N55   N     N_R   0.977045 0.686791 0.025534 0.000000
C359  C     C_R   0.962195 0.737343 0.049329 0.000000
C360  C     C_R   0.955797 0.745271 0.107018 0.000000
C361  C     C_R   0.942671 0.800085 0.124695 0.000000
C362  C     C_R   0.929282 0.847322 0.081496 0.000000
C363  C     C_R   0.929732 0.839354 0.020939 0.000000
C364  C     C_R   0.952603 0.783095 0.008321 0.000000
N56   N     N_R   0.964705 0.765804 0.955745 0.000000
H217  H     H_    0.130999 0.560768 0.895266 0.000000
H218  H     H_    0.049861 0.578605 0.792568 0.000000
H219  H     H_    0.940222 0.653739 0.772466 0.000000
H220  H     H_    0.912481 0.702687 0.858054 0.000000
H221  H     H_    0.963482 0.709563 0.139146 0.000000
H222  H     H_    0.940366 0.806797 0.171169 0.000000
H223  H     H_    0.917650 0.890417 0.095330 0.000000
H224  H     H_    0.918820 0.874436 0.985845 0.000000
Br29  Br    Br    0.104732 0.560428 0.089171 0.000000
C365  C     C_R   0.135341 0.493801 0.151561 0.000000
C366  C     C_R   0.194800 0.474513 0.194936 0.000000
C367  C     C_R   0.227266 0.420378 0.235657 0.000000
C368  C     C_R   0.200080 0.385244 0.232193 0.000000
C369  C     C_R   0.139890 0.405106 0.189969 0.000000
C370  C     C_R   0.105011 0.460818 0.150371 0.000000
C371  C     C_R   0.045600 0.474087 0.098607 0.000000
N57   N     N_R   0.006901 0.531183 0.059093 0.000000
C372  C     C_R   0.005694 0.514005 0.001753 0.000000
C373  C     C_R   0.990164 0.546828 0.945286 0.000000
C374  C     C_R   0.997467 0.518909 0.893926 0.000000
C375  C     C_R   0.028946 0.457222 0.901915 0.000000
C376  C     C_R   0.048744 0.423836 0.960459 0.000000
C377  C     C_R   0.032122 0.453424 0.006854 0.000000
N58   N     N_R   0.050472 0.426995 0.065780 0.000000
H225  H     H_    0.217117 0.501107 0.194692 0.000000
H226  H     H_    0.274378 0.404761 0.268726 0.000000
H227  H     H_    0.226063 0.342079 0.262976 0.000000
H228  H     H_    0.119631 0.376728 0.189167 0.000000
H229  H     H_    0.975846 0.592046 0.942264 0.000000
H230  H     H_    0.980181 0.544756 0.847421 0.000000
H231  H     H_    0.037721 0.435716 0.862589 0.000000
H232  H     H_    0.075363 0.375511 0.969662 0.000000
Br30  Br    Br    0.771891 0.335436 0.523880 0.000000
C378  C     C_R   0.737448 0.367881 0.582403 0.000000
C379  C     C_R   0.729739 0.424438 0.588688 0.000000
C380  C     C_R   0.690458 0.460983 0.617000 0.000000
C381  C     C_R   0.658943 0.440241 0.638962 0.000000
C382  C     C_R   0.670521 0.382003 0.637089 0.000000
C383  C     C_R   0.711819 0.342517 0.609960 0.000000
C384  C     C_R   0.723208 0.278075 0.612201 0.000000
N59   N     N_R   0.706374 0.260401 0.552486 0.000000
C385  C     C_R   0.649206 0.271430 0.547425 0.000000
C386  C     C_R   0.600171 0.286943 0.491453 0.000000
C387  C     C_R   0.540532 0.314996 0.492996 0.000000
C388  C     C_R   0.531679 0.322846 0.550353 0.000000
C389  C     C_R   0.582280 0.304249 0.606748 0.000000
C390  C     C_R   0.640973 0.279026 0.604486 0.000000
N60   N     N_R   0.694134 0.269882 0.651147 0.000000
H233  H     H_    0.751979 0.441574 0.567391 0.000000
H234  H     H_    0.682575 0.506153 0.619641 0.000000
H235  H     H_    0.626038 0.469276 0.659550 0.000000
H236  H     H_    0.643871 0.370373 0.656050 0.000000
H237  H     H_    0.607501 0.281868 0.447001 0.000000
H238  H     H_    0.500466 0.331475 0.449152 0.000000
H239  H     H_    0.484735 0.345276 0.550736 0.000000
H240  H     H_    0.575255 0.314279 0.650106 0.000000
Br31  Br    Br    0.684123 0.468640 0.423640 0.000000
C391  C     C_R   0.630127 0.436496 0.406131 0.000000
C392  C     C_R   0.575799 0.473034 0.416802 0.000000
C393  C     C_R   0.527359 0.461276 0.401321 0.000000
C394  C     C_R   0.532799 0.412600 0.373866 0.000000
C395  C     C_R   0.587364 0.374572 0.364849 0.000000
C396  C     C_R   0.639022 0.383578 0.382225 0.000000
C397  C     C_R   0.697023 0.335631 0.372555 0.000000
N61   N     N_R   0.699965 0.345965 0.312197 0.000000
C398  C     C_R   0.684859 0.306778 0.283760 0.000000
C399  C     C_R   0.655751 0.313343 0.219629 0.000000
C400  C     C_R   0.630257 0.277135 0.198628 0.000000
C401  C     C_R   0.630695 0.238669 0.241911 0.000000
C402  C     C_R   0.656274 0.236534 0.306328 0.000000
C403  C     C_R   0.687787 0.266956 0.326986 0.000000
N62   N     N_R   0.704630 0.278067 0.386757 0.000000
H241  H     H_    0.570705 0.512977 0.436066 0.000000
H242  H     H_    0.484778 0.491045 0.408944 0.000000
H243  H     H_    0.494291 0.403557 0.359622 0.000000
H244  H     H_    0.587108 0.337708 0.342788 0.000000
H245  H     H_    0.649545 0.348428 0.186967 0.000000
H246  H     H_    0.605452 0.281684 0.148828 0.000000
H247  H     H_    0.607071 0.213571 0.224433 0.000000
H248  H     H_    0.647443 0.216221 0.340364 0.000000
Br32  Br    Br    0.566482 0.176953 0.309894 0.000000
C404  C     C_R   0.545596 0.200138 0.381978 0.000000
C405  C     C_R   0.482557 0.237880 0.368012 0.000000
C406  C     C_R   0.458524 0.247716 0.415091 0.000000
C407  C     C_R   0.497859 0.218025 0.475910 0.000000
C408  C     C_R   0.561156 0.181449 0.490462 0.000000
C409  C     C_R   0.587289 0.174910 0.445007 0.000000
C410  C     C_R   0.655023 0.131614 0.461298 0.000000
N63   N     N_R   0.668723 0.075721 0.444632 0.000000
C411  C     C_R   0.708355 0.069050 0.414343 0.000000
C412  C     C_R   0.708190 0.046387 0.359487 0.000000
C413  C     C_R   0.733652 0.058970 0.320275 0.000000
C414  C     C_R   0.757470 0.097000 0.334293 0.000000
C415  C     C_R   0.754676 0.122836 0.387081 0.000000
C416  C     C_R   0.726002 0.111735 0.423325 0.000000
N64   N     N_R   0.695844 0.151511 0.455226 0.000000
H249  H     H_    0.451351 0.257110 0.319042 0.000000
H250  H     H_    0.408829 0.275972 0.403976 0.000000
H251  H     H_    0.478739 0.222457 0.512147 0.000000
H252  H     H_    0.589320 0.155236 0.536956 0.000000
H253  H     H_    0.677700 0.030098 0.339211 0.000000
H254  H     H_    0.730604 0.042596 0.276036 0.000000
H255  H     H_    0.775272 0.109024 0.302389 0.000000
H256  H     H_    0.768584 0.156456 0.394698 0.000000
Br33  Br    Br    0.774359 0.381438 0.780298 0.000000
C417  C     C_R   0.830565 0.321175 0.856207 0.000000
C418  C     C_R   0.894210 0.298183 0.878644 0.000000
C419  C     C_R   0.931353 0.253147 0.931536 0.000000
C420  C     C_R   0.905191 0.231468 0.960984 0.000000
C421  C     C_R   0.842095 0.254621 0.939419 0.000000
C422  C     C_R   0.805475 0.300162 0.888161 0.000000
C423  C     C_R   0.739352 0.332447 0.869257 0.000000
N65   N     N_R   0.711789 0.388036 0.888008 0.000000
C424  C     C_R   0.657615 0.417618 0.837236 0.000000
C425  C     C_R   0.621759 0.478670 0.816317 0.000000
C426  C     C_R   0.568271 0.500987 0.762273 0.000000
C427  C     C_R   0.554152 0.461873 0.727737 0.000000
C428  C     C_R   0.596979 0.400977 0.743105 0.000000
C429  C     C_R   0.650338 0.380082 0.796030 0.000000
N66   N     N_R   0.702801 0.325558 0.812517 0.000000
H257  H     H_    0.914748 0.314901 0.854720 0.000000
H258  H     H_    0.981177 0.232947 0.950918 0.000000
H259  H     H_    0.935038 0.194566 0.000015 0.000000
H260  H     H_    0.821762 0.236173 0.961631 0.000000
H261  H     H_    0.637050 0.508382 0.838870 0.000000
H262  H     H_    0.538061 0.549055 0.746256 0.000000
H263  H     H_    0.512137 0.479444 0.685660 0.000000
H264  H     H_    0.588821 0.371058 0.713817 0.000000
Br34  Br    Br    0.633223 0.321844 0.053977 0.000000
C430  C     C_R   0.593742 0.404023 0.059699 0.000000
C431  C     C_R   0.529884 0.427755 0.041184 0.000000
C432  C     C_R   0.489820 0.487956 0.019937 0.000000
C433  C     C_R   0.514306 0.523873 0.014728 0.000000
C434  C     C_R   0.578354 0.500861 0.037869 0.000000
C435  C     C_R   0.620542 0.441579 0.066018 0.000000
C436  C     C_R   0.690466 0.419829 0.096434 0.000000
N67   N     N_R   0.720359 0.381270 0.156491 0.000000
C437  C     C_R   0.754906 0.328978 0.140280 0.000000
C438  C     C_R   0.769834 0.273078 0.166849 0.000000
C439  C     C_R   0.783294 0.227648 0.131667 0.000000
C440  C     C_R   0.781128 0.239086 0.070656 0.000000
C441  C     C_R   0.767565 0.295052 0.044926 0.000000
C442  C     C_R   0.755205 0.338816 0.080403 0.000000
N68   N     N_R   0.723760 0.397435 0.055304 0.000000
H265  H     H_    0.510995 0.397666 0.037923 0.000000
H266  H     H_    0.439739 0.505954 0.002783 0.000000
H267  H     H_    0.483126 0.571031 0.993893 0.000000
H268  H     H_    0.594485 0.530653 0.031520 0.000000
H269  H     H_    0.763870 0.266204 0.210397 0.000000
H270  H     H_    0.791260 0.184291 0.150019 0.000000
H271  H     H_    0.785839 0.205758 0.041557 0.000000
H272  H     H_    0.757239 0.307325 0.995446 0.000000
Br35  Br    Br    0.820787 0.503349 0.071997 0.000000
C443  C     C_R   0.812056 0.537689 0.993117 0.000000
C444  C     C_R   0.860295 0.530610 0.975284 0.000000
C445  C     C_R   0.848500 0.547460 0.912198 0.000000
C446  C     C_R   0.788607 0.572870 0.867781 0.000000
C447  C     C_R   0.740543 0.581635 0.886752 0.000000
C448  C     C_R   0.753444 0.564884 0.949872 0.000000
C449  C     C_R   0.704917 0.569940 0.969590 0.000000
N69   N     N_R   0.687977 0.525521 0.959436 0.000000
C450  C     C_R   0.625037 0.559543 0.941315 0.000000
C451  C     C_R   0.581202 0.541798 0.917004 0.000000
C452  C     C_R   0.518613 0.585533 0.892153 0.000000
C453  C     C_R   0.500650 0.645599 0.893697 0.000000
C454  C     C_R   0.545041 0.662650 0.920205 0.000000
C455  C     C_R   0.606934 0.619051 0.944316 0.000000
N70   N     N_R   0.656791 0.627599 0.965135 0.000000
H273  H     H_    0.906917 0.510287 0.009267 0.000000
H274  H     H_    0.886035 0.539644 0.896615 0.000000
H275  H     H_    0.779722 0.584778 0.818082 0.000000
H276  H     H_    0.693428 0.600607 0.852332 0.000000
H277  H     H_    0.594971 0.494809 0.918134 0.000000
H278  H     H_    0.483417 0.572695 0.871819 0.000000
H279  H     H_    0.451685 0.679427 0.873176 0.000000
H280  H     H_    0.531567 0.709288 0.916762 0.000000
Br36  Br    Br    0.863032 0.362078 0.146049 0.000000
C456  C     C_R   0.901518 0.298929 0.105929 0.000000
C457  C     C_R   0.912353 0.242032 0.120930 0.000000
C458  C     C_R   0.964622 0.193487 0.117251 0.000000
C459  C     C_R   0.008563 0.202638 0.105319 0.000000
C460  C     C_R   0.992152 0.259342 0.080587 0.000000
C461  C     C_R   0.934858 0.306943 0.076016 0.000000
C462  C     C_R   0.908686 0.362805 0.034031 0.000000
N71   N     N_R   0.844975 0.396294 0.992275 0.000000
C463  C     C_R   0.853343 0.415955 0.942136 0.000000
C464  C     C_R   0.808752 0.447521 0.883785 0.000000
C465  C     C_R   0.828368 0.457357 0.836138 0.000000
C466  C     C_R   0.891159 0.433820 0.846767 0.000000
C467  C     C_R   0.935014 0.403328 0.906381 0.000000
C468  C     C_R   0.915117 0.397800 0.953921 0.000000
N72   N     N_R   0.951300 0.367429 0.013438 0.000000
H281  H     H_    0.884101 0.234961 0.141853 0.000000
H282  H     H_    0.973515 0.148284 0.128610 0.000000
H283  H     H_    0.052960 0.165647 0.109037 0.000000
H284  H     H_    0.023407 0.263865 0.061728 0.000000
H285  H     H_    0.759857 0.463624 0.874659 0.000000
H286  H     H_    0.794168 0.482872 0.789610 0.000000
H287  H     H_    0.905774 0.438828 0.808322 0.000000
H288  H     H_    0.983402 0.379086 0.913626 0.000000
Br37  Br    Br    0.543867 0.322035 0.793765 0.000000
C469  C     C_R   0.522369 0.289839 0.719956 0.000000
C470  C     C_R   0.459933 0.324577 0.682224 0.000000
C471  C     C_R   0.431716 0.304047 0.633884 0.000000
C472  C     C_R   0.466489 0.248332 0.622605 0.000000
C473  C     C_R   0.530297 0.215387 0.655608 0.000000
C474  C     C_R   0.560642 0.234851 0.704666 0.000000
C475  C     C_R   0.628188 0.191529 0.744390 0.000000
N73   N     N_R   0.663327 0.216017 0.779170 0.000000
C476  C     C_R   0.668111 0.198437 0.838293 0.000000
C477  C     C_R   0.677955 0.224613 0.890712 0.000000
C478  C     C_R   0.666620 0.207900 0.941774 0.000000
C479  C     C_R   0.646424 0.166019 0.940029 0.000000
C480  C     C_R   0.638975 0.138560 0.887803 0.000000
C481  C     C_R   0.651372 0.154737 0.838130 0.000000
N74   N     N_R   0.637188 0.141350 0.779779 0.000000
H289  H     H_    0.431759 0.366914 0.694051 0.000000
H290  H     H_    0.381968 0.330208 0.607084 0.000000
H291  H     H_    0.442932 0.230425 0.587989 0.000000
H292  H     H_    0.556102 0.172240 0.644928 0.000000
H293  H     H_    0.690648 0.259153 0.891269 0.000000
H294  H     H_    0.673109 0.227875 0.983276 0.000000
H295  H     H_    0.636536 0.154771 0.979817 0.000000
H296  H     H_    0.620409 0.108292 0.884771 0.000000
Br38  Br    Br    0.012962 0.724022 0.364291 0.000000
C482  C     C_R   0.074473 0.671837 0.442171 0.000000
C483  C     C_R   0.136473 0.650993 0.450987 0.000000
C484  C     C_R   0.183510 0.606227 0.501743 0.000000
C485  C     C_R   0.168497 0.582220 0.543966 0.000000
C486  C     C_R   0.106777 0.605705 0.537580 0.000000
C487  C     C_R   0.059198 0.652825 0.488424 0.000000
C488  C     C_R   0.994838 0.675248 0.486044 0.000000
N75   N     N_R   0.981158 0.699081 0.539828 0.000000
C489  C     C_R   0.964822 0.660749 0.558696 0.000000
C490  C     C_R   0.965524 0.647567 0.618211 0.000000
C491  C     C_R   0.951822 0.603198 0.629761 0.000000
C492  C     C_R   0.934949 0.574785 0.581321 0.000000
C493  C     C_R   0.934857 0.588313 0.521795 0.000000
C494  C     C_R   0.956114 0.626906 0.513592 0.000000
N76   N     N_R   0.971343 0.636491 0.464088 0.000000
H297  H     H_    0.148129 0.667824 0.416043 0.000000
H298  H     H_    0.231910 0.588770 0.507250 0.000000
H299  H     H_    0.205120 0.546065 0.583074 0.000000
H300  H     H_    0.095874 0.587556 0.572265 0.000000
H301  H     H_    0.979773 0.668342 0.656367 0.000000
H302  H     H_    0.952733 0.591686 0.676369 0.000000
H303  H     H_    0.921620 0.542081 0.589974 0.000000
H304  H     H_    0.921105 0.566959 0.483670 0.000000
Br39  Br    Br    0.833269 0.737144 0.413391 0.000000
C495  C     C_R   0.810933 0.694316 0.458159 0.000000
C496  C     C_R   0.815665 0.697547 0.519897 0.000000
C497  C     C_R   0.793108 0.670393 0.549525 0.000000
C498  C     C_R   0.757974 0.647369 0.513618 0.000000
C499  C     C_R   0.750035 0.648390 0.450312 0.000000
C500  C     C_R   0.784489 0.663822 0.425879 0.000000
C501  C     C_R   0.791458 0.648994 0.365876 0.000000
N77   N     N_R   0.740778 0.650406 0.317915 0.000000
C502  C     C_R   0.770568 0.617390 0.282579 0.000000
C503  C     C_R   0.743456 0.603445 0.229027 0.000000
C504  C     C_R   0.779400 0.571573 0.197194 0.000000
C505  C     C_R   0.842327 0.539866 0.228919 0.000000
C506  C     C_R   0.871202 0.556254 0.281573 0.000000
C507  C     C_R   0.832764 0.598379 0.305423 0.000000
N78   N     N_R   0.850214 0.619380 0.356853 0.000000
H305  H     H_    0.839971 0.718969 0.544786 0.000000
H306  H     H_    0.799234 0.670765 0.599074 0.000000
H307  H     H_    0.735612 0.629964 0.534428 0.000000
H308  H     H_    0.718636 0.634765 0.421216 0.000000
H309  H     H_    0.697971 0.610430 0.216006 0.000000
H310  H     H_    0.760154 0.561845 0.152356 0.000000
H311  H     H_    0.864950 0.503930 0.207544 0.000000
H312  H     H_    0.920707 0.533897 0.306985 0.000000
Br40  Br    Br    0.093699 0.459755 0.289850 0.000000
C508  C     C_R   0.140234 0.438912 0.374981 0.000000
C509  C     C_R   0.200261 0.430071 0.395447 0.000000
C510  C     C_R   0.236202 0.413291 0.458962 0.000000
C511  C     C_R   0.212377 0.403163 0.501079 0.000000
C512  C     C_R   0.153342 0.409459 0.479699 0.000000
C513  C     C_R   0.114664 0.429492 0.415460 0.000000
C514  C     C_R   0.048213 0.440819 0.391745 0.000000
N79   N     N_R   0.011917 0.489961 0.414628 0.000000
C515  C     C_R   0.015408 0.460214 0.466330 0.000000
C516  C     C_R   0.033586 0.472244 0.526506 0.000000
C517  C     C_R   0.051188 0.431121 0.578954 0.000000
C518  C     C_R   0.060621 0.374336 0.571595 0.000000
C519  C     C_R   0.055406 0.359072 0.512466 0.000000
C520  C     C_R   0.031285 0.401715 0.460180 0.000000
N80   N     N_R   0.044642 0.389215 0.407276 0.000000
H313  H     H_    0.218685 0.437307 0.361478 0.000000
H314  H     H_    0.282870 0.407363 0.475506 0.000000
H315  H     H_    0.240407 0.389286 0.551298 0.000000
H316  H     H_    0.139570 0.397648 0.515253 0.000000
H317  H     H_    0.042311 0.509364 0.533438 0.000000
H318  H     H_    0.064029 0.441069 0.626127 0.000000
H319  H     H_    0.079734 0.340089 0.612890 0.000000
H320  H     H_    0.074269 0.313724 0.506607 0.000000

loop_
_geom_bond_atom_site_label_1
_geom_bond_atom_site_label_2
_geom_bond_distance
_geom_bond_site_symmetry_2
_ccdc_geom_bond_type
Zn1   N1    2.221 .      S
Zn1   N42   2.205 1_655  S
Zn1   N48   2.303 .      S
Zn1   N75   2.353 .      S
Zn2   N4    2.153 .      S
Zn2   N5    2.231 .      S
Zn2   N61   2.224 .      S
Zn2   N67   2.282 .      S
Zn3   N2    2.206 1_545  S
Zn3   N8    2.177 1_545  S
Zn3   N10   2.137 .      S
Zn3   N63   2.203 .      S
Zn4   N11   2.196 .      S
Zn4   N14   2.162 1_556  S
Zn4   N53   2.286 1_556  S
Zn4   N70   2.212 .      S
Zn5   N17   2.287 .      S
Zn5   N21   2.409 1_554  S
Zn5   N23   2.277 .      S
Zn5   N37   2.147 1_554  S
Zn6   N6    2.315 1_455  S
Zn6   N15   2.148 .      S
Zn6   N33   2.274 .      S
Zn6   N80   2.313 .      S
Zn7   N16   2.138 .      S
Zn7   N18   2.257 .      S
Zn7   N58   2.157 .      S
Zn7   N72   2.197 1_455  S
Zn8   N9    2.172 .      S
Zn8   N19   2.266 .      S
Zn8   N49   2.190 1_545  S
Zn8   N74   2.165 .      S
Zn9   N12   2.168 .      S
Zn9   N20   2.254 1_565  S
Zn9   N22   2.322 1_565  S
Zn9   N28   2.221 1_565  S
Zn10  N7    2.117 .      S
Zn10  N24   2.209 .      S
Zn10  N26   2.242 .      S
Zn10  N30   2.273 .      S
Zn11  N3    2.249 .      S
Zn11  N13   2.127 .      S
Zn11  N25   2.238 .      S
Zn11  N77   2.182 .      S
Zn12  N27   2.223 .      S
Zn12  N29   2.346 1_545  S
Zn12  N32   2.272 1_545  S
Zn12  N34   2.202 .      S
Zn13  N35   2.254 1_455  S
Zn13  N38   2.226 .      S
Zn13  N39   2.250 1_545  S
Zn13  N44   2.082 .      S
Zn14  N31   2.291 .      S
Zn14  N41   2.142 .      S
Zn14  N43   2.039 .      S
Zn14  N45   2.193 1_465  S
Zn15  N40   2.250 1_655  S
Zn15  N47   2.340 .      S
Zn15  N50   2.312 .      S
Zn15  N56   2.238 .      S
Zn16  N52   2.354 .      S
Zn16  N54   2.207 .      S
Zn16  N55   2.252 .      S
Zn16  N57   2.272 1_655  S
Zn17  N46   2.288 .      S
Zn17  N59   2.287 .      S
Zn17  N62   2.286 .      S
Zn17  N64   2.174 .      S
Zn18  N65   2.253 .      S
Zn18  N68   2.253 1_556  S
Zn18  N69   2.220 .      S
Zn18  N71   2.280 .      S
Zn19  N36   2.230 .      S
Zn19  N60   2.278 .      S
Zn19  N66   2.227 .      S
Zn19  N73   2.193 .      S
Zn20  N51   2.366 .      S
Zn20  N76   2.260 .      S
Zn20  N78   2.290 .      S
Zn20  N79   2.231 1_655  S
Br1   C1    1.821 .      S
C2    H1    1.081 .      S
C3    H2    1.079 .      S
C4    H3    1.065 .      S
C5    H4    1.070 .      S
C6    C7    1.509 .      S
C9    H5    1.061 .      S
C10   H6    1.080 .      S
C11   H7    1.077 .      S
C12   H8    1.074 .      S
N2    Zn3   2.206 1_565  S
Br2   C14   1.921 .      S
C15   H9    1.076 .      S
C16   H10   1.064 .      S
C17   H11   1.079 .      S
C18   H12   1.077 .      S
C19   C20   1.425 .      S
C22   H13   1.077 .      S
C23   H14   1.081 .      S
C24   H15   1.081 .      S
C25   H16   1.076 .      S
Br3   C27   1.863 .      S
C28   H17   1.080 .      S
C29   H18   1.081 .      S
C30   H19   1.055 1_655  S
C31   H20   1.071 .      S
C32   C33   1.485 .      S
C35   H21   1.067 .      S
C36   H22   1.079 .      S
C37   H23   1.081 .      S
C38   H24   1.054 .      S
N6    Zn6   2.315 1_655  S
H19   C30   1.055 1_455  S
Br4   C40   1.886 1_545  S
C40   Br4   1.886 1_565  S
C41   H25   1.080 1_565  S
C42   H26   1.078 .      S
C43   H27   1.080 .      S
C44   H28   1.067 .      S
C45   C46   1.462 .      S
C48   H29   1.080 .      S
C49   H30   1.073 .      S
C50   H31   1.081 .      S
C51   H32   1.064 .      S
N8    Zn3   2.177 1_565  S
H25   C41   1.080 1_545  S
Br5   C53   1.781 .      S
C54   H33   1.076 .      S
C55   H34   1.072 .      S
C56   H35   1.070 1_545  S
C57   H36   1.026 1_545  S
C58   C59   1.469 .      S
C61   H37   1.049 .      S
C62   H38   1.076 .      S
C63   H39   1.079 .      S
C64   H40   1.079 .      S
H35   C56   1.070 1_565  S
H36   C57   1.026 1_565  S
Br6   C66   1.868 1_556  S
C66   Br6   1.868 1_554  S
C67   H41   1.078 .      S
C68   H42   1.073 .      S
C69   H43   1.081 .      S
C70   H44   1.073 .      S
C71   C72   1.445 .      S
C74   H45   1.072 .      S
C75   H46   1.081 .      S
C76   H47   1.080 .      S
C77   H48   1.073 .      S
Br7   C79   1.873 .      S
C80   H49   1.076 .      S
C81   H50   1.081 .      S
C82   H51   1.081 .      S
C83   H52   1.075 .      S
C84   C85   1.477 .      S
C87   H53   1.066 .      S
C88   H54   1.079 .      S
C89   H55   1.079 .      S
C90   H56   1.079 .      S
N14   Zn4   2.162 1_554  S
Br8   C92   1.851 .      S
C93   H57   1.081 .      S
C94   H58   1.066 .      S
C95   H59   1.071 .      S
C96   H60   1.079 .      S
C97   C98   1.475 .      S
C100  H61   1.058 .      S
C101  H62   1.066 .      S
C102  H63   1.075 .      S
C103  H64   1.050 .      S
Br9   C105  1.901 .      S
C106  H65   1.081 .      S
C107  H66   1.081 .      S
C108  H67   1.072 1_455  S
C109  H68   1.059 .      S
C110  C111  1.497 1_556  S
C111  C110  1.497 1_554  S
C113  H69   1.057 .      S
C114  H70   1.078 .      S
C115  H71   1.080 .      S
C116  H72   1.054 .      S
H67   C108  1.072 1_655  S
Br10  C118  1.897 .      S
C119  H73   1.077 .      S
C120  H74   1.052 .      S
C121  H75   1.079 .      S
C122  H76   1.081 .      S
C123  C124  1.399 1_565  S
C124  C123  1.399 1_545  S
C126  H77   1.056 .      S
C127  H78   1.080 .      S
C128  H79   1.081 .      S
C129  H80   1.058 .      S
N20   Zn9   2.254 1_545  S
Br11  C131  1.858 1_554  S
C131  Br11  1.858 1_556  S
C132  H81   1.081 .      S
C133  H82   1.081 .      S
C134  H83   1.076 .      S
C135  H84   1.076 .      S
C136  C137  1.468 1_565  S
C137  C136  1.468 1_545  S
N21   Zn5   2.409 1_556  S
C139  H85   1.067 .      S
C140  H86   1.080 .      S
C141  H87   1.081 .      S
C142  H88   1.076 .      S
N22   Zn9   2.322 1_545  S
Br12  C144  1.849 .      S
C145  H89   1.081 .      S
C146  H90   1.076 .      S
C147  H91   1.079 .      S
C148  H92   1.069 .      S
C149  C150  1.472 .      S
C152  H93   1.071 .      S
C153  H94   1.068 .      S
C154  H95   1.077 .      S
C155  H96   1.072 .      S
Br13  C157  1.907 .      S
C158  H97   1.074 .      S
C159  H98   1.066 .      S
C160  H99   1.063 .      S
C161  H100  1.073 .      S
C162  C163  1.409 .      S
C165  H101  1.073 .      S
C166  H102  1.081 .      S
C167  H103  1.081 .      S
C168  H104  1.079 .      S
Br14  C170  1.902 .      S
C171  H105  1.068 .      S
C172  H106  1.081 .      S
C173  H107  1.079 .      S
C174  H108  1.070 .      S
C175  C176  1.472 .      S
C178  H109  1.046 .      S
C179  H110  1.080 .      S
C180  H111  1.080 .      S
C181  H112  1.052 .      S
N28   Zn9   2.221 1_545  S
Br15  C183  1.910 .      S
C184  H113  1.070 .      S
C185  H114  1.069 .      S
C186  H115  1.066 .      S
C187  H116  1.072 .      S
C188  C189  1.443 1_545  S
C189  C188  1.443 1_565  S
N29   Zn12  2.346 1_565  S
C191  H117  1.067 .      S
C192  H118  1.076 .      S
C193  H119  1.080 .      S
C194  H120  1.069 .      S
Br16  C196  1.910 .      S
C197  H121  1.060 .      S
C198  H122  1.047 .      S
C199  H123  1.078 .      S
C200  H124  1.072 .      S
C201  C202  1.399 .      S
C204  H125  1.072 .      S
C205  H126  1.081 .      S
C206  H127  1.081 .      S
C207  H128  1.070 .      S
N32   Zn12  2.272 1_565  S
Br17  C209  1.876 .      S
C210  H129  1.078 .      S
C211  H130  1.081 .      S
C212  H131  1.081 .      S
C213  H132  1.064 .      S
C214  C215  1.482 .      S
C217  H133  1.048 .      S
C218  H134  1.080 .      S
C219  H135  1.079 .      S
C220  H136  1.078 .      S
Br18  C222  1.900 .      S
C223  H137  1.066 .      S
C224  H138  1.080 1_556  S
C225  H139  1.078 .      S
C226  H140  1.074 .      S
C227  C228  1.424 .      S
N35   Zn13  2.254 1_655  S
C230  H141  1.066 1_655  S
C231  H142  1.068 .      S
C232  H143  1.081 .      S
C233  H144  1.062 .      S
H138  C224  1.080 1_554  S
H141  C230  1.066 1_455  S
Br19  C235  1.892 1_556  S
C235  Br19  1.892 1_554  S
C236  H145  1.081 .      S
C237  H146  1.081 .      S
C238  H147  1.077 .      S
C239  H148  1.078 .      S
C240  C241  1.465 1_554  S
C241  C240  1.465 1_556  S
N37   Zn5   2.147 1_556  S
C243  H149  1.065 .      S
C244  H150  1.079 .      S
C245  H151  1.079 .      S
C246  H152  1.055 .      S
Br20  C248  1.903 1_554  S
C248  Br20  1.903 1_556  S
C249  H153  1.081 1_556  S
C250  H154  1.081 .      S
C251  H155  1.074 .      S
C252  H156  1.065 .      S
C253  C254  1.513 .      S
N39   Zn13  2.250 1_565  S
C256  H157  1.073 1_565  S
C257  H158  1.076 1_465  S
C258  H159  1.081 .      S
C259  H160  1.062 .      S
N40   Zn15  2.250 1_455  S
H153  C249  1.081 1_554  S
H157  C256  1.073 1_545  S
H158  C257  1.076 1_645  S
Br21  C261  1.871 .      S
C262  H161  1.081 .      S
C263  H162  1.081 .      S
C264  H163  1.044 .      S
C265  H164  1.067 .      S
C266  C267  1.485 .      S
C269  H165  1.071 .      S
C270  H166  1.079 .      S
C271  H167  1.080 .      S
C272  H168  1.059 .      S
N42   Zn1   2.205 1_455  S
Br22  C274  1.931 .      S
C275  H169  1.081 .      S
C276  H170  1.066 .      S
C277  H171  1.064 .      S
C278  H172  1.073 .      S
C279  C280  1.417 1_655  S
C280  C279  1.417 1_455  S
C282  H173  1.068 .      S
C283  H174  1.073 .      S
C284  H175  1.059 .      S
C285  H176  1.051 .      S
Br23  C287  1.863 .      S
C288  H177  1.081 .      S
C289  H178  1.071 .      S
C290  H179  1.057 .      S
C291  H180  1.065 .      S
C292  C293  1.432 .      S
N45   Zn14  2.193 1_645  S
C295  H181  1.050 1_655  S
C296  H182  1.073 .      S
C297  H183  1.034 .      S
C298  H184  1.058 .      S
H181  C295  1.050 1_455  S
Br24  C300  1.830 .      S
C301  H185  1.071 .      S
C302  H186  1.075 1_565  S
C303  H187  1.058 .      S
C304  H188  1.069 1_655  S
C305  C306  1.422 .      S
C308  H189  1.070 .      S
C309  H190  1.081 .      S
C310  H191  1.081 .      S
C311  H192  1.077 .      S
H186  C302  1.075 1_545  S
H188  C304  1.069 1_455  S
Br25  C313  1.833 .      S
C314  H193  1.080 .      S
C315  H194  1.081 .      S
C316  H195  1.081 .      S
C317  H196  1.075 .      S
C318  C319  1.468 .      S
N49   Zn8   2.190 1_565  S
C321  H197  1.068 .      S
C322  H198  1.078 .      S
C323  H199  1.076 .      S
C324  H200  1.067 .      S
Br26  C326  1.874 .      S
C327  H201  1.049 .      S
C328  H202  1.074 .      S
C329  H203  1.063 .      S
C330  H204  1.072 .      S
C331  C332  1.393 .      S
C334  H205  1.080 .      S
C335  H206  1.080 .      S
C336  H207  1.081 .      S
C337  H208  1.072 .      S
Br27  C339  1.874 1_556  S
C339  Br27  1.874 1_554  S
C340  H209  1.070 1_554  S
C341  H210  1.077 .      S
C342  H211  1.077 .      S
C343  H212  1.026 .      S
C344  C345  1.498 .      S
N53   Zn4   2.286 1_554  S
C347  H213  1.043 .      S
C348  H214  1.081 .      S
C349  H215  1.077 .      S
C350  H216  1.057 .      S
H209  C340  1.070 1_556  S
Br28  C352  1.908 .      S
C353  H217  1.081 .      S
C354  H218  1.081 .      S
C355  H219  1.081 .      S
C356  H220  1.066 .      S
C357  C358  1.487 1_455  S
C358  C357  1.487 1_655  S
C360  H221  1.062 .      S
C361  H222  1.081 .      S
C362  H223  1.077 .      S
C363  H224  1.059 1_554  S
H224  C363  1.059 1_556  S
Br29  C365  1.871 .      S
C366  H225  1.081 .      S
C367  H226  1.081 .      S
C368  H227  1.072 .      S
C369  H228  1.074 .      S
C370  C371  1.488 .      S
N57   Zn16  2.272 1_455  S
C373  H229  1.030 .      S
C374  H230  1.073 .      S
C375  H231  1.079 .      S
C376  H232  1.075 .      S
Br30  C378  1.821 .      S
C379  H233  1.080 .      S
C380  H234  1.081 .      S
C381  H235  1.079 .      S
C382  H236  1.063 .      S
C383  C384  1.530 .      S
C386  H237  1.078 .      S
C387  H238  1.080 .      S
C388  H239  1.081 .      S
C389  H240  1.064 .      S
Br31  C391  1.877 .      S
C392  H241  1.081 .      S
C393  H242  1.081 .      S
C394  H243  1.081 .      S
C395  H244  1.072 .      S
C396  C397  1.519 .      S
C399  H245  1.074 .      S
C400  H246  1.077 .      S
C401  H247  1.078 .      S
C402  H248  1.063 .      S
Br32  C404  1.891 .      S
C405  H249  1.081 .      S
C406  H250  1.081 .      S
C407  H251  1.066 .      S
C408  H252  1.062 .      S
C409  C410  1.488 .      S
C412  H253  1.044 .      S
C413  H254  1.081 .      S
C414  H255  1.081 .      S
C415  H256  1.073 .      S
Br33  C417  1.924 .      S
C418  H257  1.073 .      S
C419  H258  1.068 .      S
C420  H259  1.066 1_556  S
C421  H260  1.073 .      S
C422  C423  1.418 .      S
C425  H261  1.074 .      S
C426  H262  1.081 .      S
C427  H263  1.081 .      S
C428  H264  1.067 .      S
H259  C420  1.066 1_554  S
Br34  C430  1.887 .      S
C431  H265  1.081 .      S
C432  H266  1.081 .      S
C433  H267  1.080 1_554  S
C434  H268  1.054 .      S
C435  C436  1.526 .      S
C438  H269  1.069 .      S
C439  H270  1.081 .      S
C440  H271  1.066 .      S
C441  H272  1.070 1_554  S
N68   Zn18  2.253 1_554  S
H267  C433  1.080 1_556  S
H272  C441  1.070 1_556  S
Br35  C443  1.878 1_554  S
C443  Br35  1.878 1_556  S
C444  H273  1.066 1_556  S
C445  H274  1.073 .      S
C446  H275  1.081 .      S
C447  H276  1.081 .      S
C448  C449  1.417 .      S
C451  H277  1.079 .      S
C452  H278  1.081 .      S
C453  H279  1.081 .      S
C454  H280  1.069 .      S
H273  C444  1.066 1_554  S
Br36  C456  1.877 .      S
C457  H281  1.067 .      S
C458  H282  1.079 .      S
C459  H283  1.072 .      S
C460  H284  1.077 1_655  S
C461  C462  1.436 .      S
C464  H285  1.080 .      S
C465  H286  1.082 .      S
C466  H287  1.081 .      S
C467  H288  1.062 .      S
N72   Zn7   2.197 1_655  S
H284  C460  1.077 1_455  S
Br37  C469  1.905 .      S
C470  H289  1.081 .      S
C471  H290  1.081 .      S
C472  H291  1.076 .      S
C473  H292  1.069 .      S
C474  C475  1.507 .      S
C477  H293  1.076 .      S
C478  H294  1.075 .      S
C479  H295  1.081 .      S
C480  H296  1.079 .      S
Br38  C482  1.898 .      S
C483  H297  1.081 .      S
C484  H298  1.081 .      S
C485  H299  1.081 .      S
C486  H300  1.081 .      S
C487  C488  1.473 1_455  S
C488  C487  1.473 1_655  S
C490  H301  1.072 .      S
C491  H302  1.081 .      S
C492  H303  1.081 .      S
C493  H304  1.078 .      S
Br39  C495  1.873 .      S
C496  H305  1.056 .      S
C497  H306  1.080 .      S
C498  H307  1.081 .      S
C499  H308  1.070 .      S
C500  C501  1.454 .      S
C503  H309  1.045 .      S
C504  H310  1.065 .      S
C505  H311  1.052 .      S
C506  H312  1.070 .      S
Br40  C508  1.827 .      S
C509  H313  1.080 .      S
C510  H314  1.081 .      S
C511  H315  1.080 .      S
C512  H316  1.070 .      S
C513  C514  1.512 .      S
N79   Zn20  2.231 1_455  S
C516  H317  1.076 .      S
C517  H318  1.081 .      S
C518  H319  1.081 .      S
C519  H320  1.056 .      S
C1    C2    1.376 .      A
C1    C6    1.378 .      A
C2    C3    1.353 .      A
C3    C4    1.356 .      A
C4    C5    1.389 .      A
C5    C6    1.373 .      A
C7    N1    1.420 .      A
C7    N2    1.398 .      A
N1    C8    1.349 .      A
C8    C9    1.368 .      A
C8    C13   1.360 .      A
C9    C10   1.382 .      A
C10   C11   1.387 .      A
C11   C12   1.381 .      A
C12   C13   1.363 .      A
C13   N2    1.336 .      A
C14   C15   1.381 .      A
C14   C19   1.354 .      A
C15   C16   1.380 .      A
C16   C17   1.362 .      A
C17   C18   1.365 .      A
C18   C19   1.370 .      A
C20   N3    1.389 .      A
C20   N4    1.389 .      A
N3    C21   1.357 .      A
C21   C22   1.371 .      A
C21   C26   1.375 .      A
C22   C23   1.385 .      A
C23   C24   1.386 .      A
C24   C25   1.380 .      A
C25   C26   1.372 .      A
C26   N4    1.343 .      A
C27   C28   1.373 .      A
C27   C32   1.394 .      A
C28   C29   1.350 .      A
C29   C30   1.359 .      A
C30   C31   1.392 .      A
C31   C32   1.362 .      A
C33   N5    1.405 .      A
C33   N6    1.418 .      A
N5    C34   1.332 .      A
C34   C35   1.360 .      A
C34   C39   1.359 .      A
C35   C36   1.387 .      A
C36   C37   1.386 .      A
C37   C38   1.384 .      A
C38   C39   1.360 .      A
C39   N6    1.359 .      A
C40   C41   1.373 .      A
C40   C45   1.367 .      A
C41   C42   1.371 .      A
C42   C43   1.377 .      A
C43   C44   1.375 .      A
C44   C45   1.376 .      A
C46   N7    1.391 .      A
C46   N8    1.406 .      A
N7    C47   1.342 .      A
C47   C48   1.369 .      A
C47   C52   1.355 .      A
C48   C49   1.387 .      A
C49   C50   1.383 1_565  A
C50   C49   1.383 1_545  A
C50   C51   1.372 .      A
C51   C52   1.345 1_545  A
C52   C51   1.345 1_565  A
C52   N8    1.335 .      A
C53   C54   1.370 .      A
C53   C58   1.359 .      A
C54   C55   1.365 .      A
C55   C56   1.365 .      A
C56   C57   1.352 .      A
C57   C58   1.337 .      A
C59   N9    1.409 .      A
C59   N10   1.381 .      A
N9    C60   1.347 .      A
C60   C61   1.360 .      A
C60   C65   1.364 .      A
C61   C62   1.367 .      A
C62   C63   1.378 .      A
C63   C64   1.385 .      A
C64   C65   1.367 .      A
C65   N10   1.338 .      A
C66   C67   1.366 .      A
C66   C71   1.355 1_554  A
C67   C68   1.366 .      A
C68   C69   1.380 .      A
C69   C70   1.374 1_554  A
C70   C69   1.374 1_556  A
C70   C71   1.375 .      A
C71   C66   1.355 1_556  A
C72   N11   1.412 .      A
C72   N12   1.383 .      A
N11   C73   1.342 .      A
C73   C74   1.374 .      A
C73   C78   1.364 .      A
C74   C75   1.374 .      A
C75   C76   1.379 .      A
C76   C77   1.392 .      A
C77   C78   1.349 .      A
C78   N12   1.348 .      A
C79   C80   1.381 .      A
C79   C84   1.368 .      A
C80   C81   1.371 .      A
C81   C82   1.366 .      A
C82   C83   1.376 .      A
C83   C84   1.389 .      A
C85   N13   1.378 .      A
C85   N14   1.417 .      A
N13   C86   1.328 .      A
C86   C87   1.346 .      A
C86   C91   1.354 .      A
C87   C88   1.381 .      A
C88   C89   1.385 .      A
C89   C90   1.389 .      A
C90   C91   1.363 .      A
C91   N14   1.340 .      A
C92   C93   1.364 .      A
C92   C97   1.391 .      A
C93   C94   1.351 .      A
C94   C95   1.365 .      A
C95   C96   1.381 .      A
C96   C97   1.367 .      A
C98   N15   1.397 .      A
C98   N16   1.397 .      A
N15   C99   1.328 1_455  A
C99   N15   1.328 1_655  A
C99   C100  1.347 .      A
C99   C104  1.356 .      A
C100  C101  1.377 .      A
C101  C102  1.353 .      A
C102  C103  1.353 .      A
C103  C104  1.351 .      A
C104  N16   1.334 1_655  A
N16   C104  1.334 1_455  A
C105  C106  1.377 .      A
C105  C110  1.413 .      A
C106  C107  1.363 .      A
C107  C108  1.364 .      A
C108  C109  1.381 .      A
C109  C110  1.372 .      A
C111  N17   1.416 .      A
C111  N18   1.413 .      A
N17   C112  1.347 .      A
C112  C113  1.363 .      A
C112  C117  1.370 .      A
C113  C114  1.384 .      A
C114  C115  1.373 .      A
C115  C116  1.374 .      A
C116  C117  1.362 .      A
C117  N18   1.337 .      A
C118  C119  1.362 .      A
C118  C123  1.345 .      A
C119  C120  1.378 .      A
C120  C121  1.368 .      A
C121  C122  1.354 .      A
C122  C123  1.363 .      A
C124  N19   1.394 .      A
C124  N20   1.399 .      A
N19   C125  1.357 .      A
C125  C126  1.369 .      A
C125  C130  1.376 .      A
C126  C127  1.379 .      A
C127  C128  1.379 .      A
C128  C129  1.379 .      A
C129  C130  1.374 .      A
C130  N20   1.355 .      A
C131  C132  1.375 .      A
C131  C136  1.373 .      A
C132  C133  1.377 .      A
C133  C134  1.373 .      A
C134  C135  1.376 .      A
C135  C136  1.379 .      A
C137  N21   1.440 .      A
C137  N22   1.415 .      A
N21   C138  1.359 .      A
C138  C139  1.365 .      A
C138  C143  1.378 .      A
C139  C140  1.384 .      A
C140  C141  1.386 .      A
C141  C142  1.382 .      A
C142  C143  1.370 .      A
C143  N22   1.346 .      A
C144  C145  1.377 .      A
C144  C149  1.371 .      A
C145  C146  1.370 .      A
C146  C147  1.370 .      A
C147  C148  1.381 .      A
C148  C149  1.369 .      A
C150  N23   1.423 .      A
C150  N24   1.409 1_545  A
N23   C151  1.359 1_545  A
C151  N23   1.359 1_565  A
C151  C152  1.369 .      A
C151  C156  1.362 .      A
C152  C153  1.387 .      A
C153  C154  1.365 .      A
C154  C155  1.365 .      A
C155  C156  1.347 .      A
C156  N24   1.322 .      A
N24   C150  1.409 1_565  A
C157  C158  1.361 .      A
C157  C162  1.368 .      A
C158  C159  1.370 .      A
C159  C160  1.365 .      A
C160  C161  1.345 .      A
C161  C162  1.347 .      A
C163  N25   1.402 .      A
C163  N26   1.391 .      A
N25   C164  1.345 .      A
C164  C165  1.357 .      A
C164  C169  1.369 .      A
C165  C166  1.383 .      A
C166  C167  1.385 .      A
C167  C168  1.385 .      A
C168  C169  1.376 .      A
C169  N26   1.352 .      A
C170  C171  1.385 .      A
C170  C175  1.376 .      A
C171  C172  1.369 .      A
C172  C173  1.364 .      A
C173  C174  1.378 .      A
C174  C175  1.363 .      A
C176  N27   1.402 1_565  A
C176  N28   1.416 1_565  A
N27   C176  1.402 1_545  A
N27   C177  1.352 .      A
C177  C178  1.355 .      A
C177  C182  1.363 .      A
C178  C179  1.382 .      A
C179  C180  1.366 .      A
C180  C181  1.368 .      A
C181  C182  1.368 .      A
C182  N28   1.338 .      A
N28   C176  1.416 1_545  A
C183  C184  1.365 .      A
C183  C188  1.386 1_565  A
C184  C185  1.368 1_565  A
C185  C184  1.368 1_545  A
C185  C186  1.357 .      A
C186  C187  1.372 .      A
C187  C188  1.376 .      A
C188  C183  1.386 1_545  A
C189  N29   1.426 .      A
C189  N30   1.410 .      A
N29   C190  1.354 .      A
C190  C191  1.353 .      A
C190  C195  1.378 .      A
C191  C192  1.387 .      A
C192  C193  1.382 .      A
C193  C194  1.377 .      A
C194  C195  1.361 .      A
C195  N30   1.336 .      A
C196  C197  1.352 .      A
C196  C201  1.367 .      A
C197  C198  1.364 .      A
C198  C199  1.369 .      A
C199  C200  1.357 .      A
C200  C201  1.357 .      A
C202  N31   1.407 1_545  A
C202  N32   1.394 1_545  A
N31   C202  1.407 1_565  A
N31   C203  1.357 .      A
C203  C204  1.375 .      A
C203  C208  1.385 .      A
C204  C205  1.382 .      A
C205  C206  1.386 .      A
C206  C207  1.383 .      A
C207  C208  1.372 .      A
C208  N32   1.354 .      A
N32   C202  1.394 1_565  A
C209  C210  1.378 .      A
C209  C214  1.373 .      A
C210  C211  1.373 .      A
C211  C212  1.373 .      A
C212  C213  1.378 .      A
C213  C214  1.373 .      A
C215  N33   1.413 .      A
C215  N34   1.419 .      A
N33   C216  1.355 .      A
C216  C217  1.358 .      A
C216  C221  1.362 .      A
C217  C218  1.372 .      A
C218  C219  1.375 .      A
C219  C220  1.371 .      A
C220  C221  1.363 .      A
C221  N34   1.327 .      A
C222  C223  1.374 .      A
C222  C227  1.339 .      A
C223  C224  1.370 .      A
C224  C225  1.364 1_556  A
C225  C224  1.364 1_554  A
C225  C226  1.374 1_554  A
C226  C225  1.374 1_556  A
C226  C227  1.365 .      A
C228  N35   1.403 .      A
C228  N36   1.405 .      A
N35   C229  1.339 .      A
C229  C230  1.349 .      A
C229  C234  1.360 .      A
C230  C231  1.371 .      A
C231  C232  1.378 .      A
C232  C233  1.380 .      A
C233  C234  1.351 .      A
C234  N36   1.333 .      A
C235  C236  1.378 .      A
C235  C240  1.389 1_565  A
C236  C237  1.370 .      A
C237  C238  1.375 1_565  A
C238  C237  1.375 1_545  A
C238  C239  1.381 .      A
C239  C240  1.372 .      A
C240  C235  1.389 1_545  A
C241  N37   1.416 .      A
C241  N38   1.394 .      A
N37   C242  1.330 .      A
C242  C243  1.374 .      A
C242  C247  1.350 .      A
C243  C244  1.366 .      A
C244  C245  1.368 .      A
C245  C246  1.387 .      A
C246  C247  1.351 .      A
C247  N38   1.358 .      A
C248  C249  1.376 .      A
C248  C253  1.427 .      A
C249  C250  1.355 .      A
C250  C251  1.357 .      A
C251  C252  1.393 .      A
C252  C253  1.366 .      A
C254  N39   1.425 .      A
C254  N40   1.379 .      A
N39   C255  1.336 .      A
C255  C256  1.358 .      A
C255  C260  1.361 .      A
C256  C257  1.384 1_556  A
C257  C256  1.384 1_554  A
C257  C258  1.375 .      A
C258  C259  1.373 .      A
C259  C260  1.382 1_554  A
C260  C259  1.382 1_556  A
C260  N40   1.368 .      A
C261  C262  1.374 .      A
C261  C266  1.411 .      A
C262  C263  1.353 .      A
C263  C264  1.359 .      A
C264  C265  1.367 .      A
C265  C266  1.351 .      A
C267  N41   1.407 .      A
C267  N42   1.378 .      A
N41   C268  1.332 .      A
C268  C269  1.367 .      A
C268  C273  1.356 .      A
C269  C270  1.378 .      A
C270  C271  1.379 .      A
C271  C272  1.384 .      A
C272  C273  1.370 .      A
C273  N42   1.364 .      A
C274  C275  1.364 1_455  A
C274  C279  1.384 1_455  A
C275  C274  1.364 1_655  A
C275  C276  1.367 .      A
C276  C277  1.373 .      A
C277  C278  1.360 .      A
C278  C279  1.357 .      A
C279  C274  1.384 1_655  A
C280  N43   1.374 1_545  A
C280  N44   1.375 .      A
N43   C280  1.374 1_565  A
N43   C281  1.335 .      A
C281  C282  1.355 .      A
C281  C286  1.347 .      A
C282  C283  1.383 .      A
C283  C284  1.380 .      A
C284  C285  1.353 .      A
C285  C286  1.339 .      A
C286  N44   1.331 1_565  A
N44   C286  1.331 1_545  A
C287  C288  1.364 .      A
C287  C292  1.386 .      A
C288  C289  1.356 1_545  A
C289  C288  1.356 1_565  A
C289  C290  1.378 .      A
C290  C291  1.349 .      A
C291  C292  1.337 1_565  A
C292  C291  1.337 1_545  A
C293  N45   1.387 .      A
C293  N46   1.420 .      A
N45   C294  1.327 .      A
C294  C295  1.332 .      A
C294  C299  1.353 .      A
C295  C296  1.372 .      A
C296  C297  1.359 .      A
C297  C298  1.355 .      A
C298  C299  1.321 .      A
C299  N46   1.320 .      A
C300  C301  1.361 .      A
C300  C305  1.335 .      A
C301  C302  1.368 .      A
C302  C303  1.366 .      A
C303  C304  1.364 .      A
C304  C305  1.358 .      A
C306  N47   1.408 .      A
C306  N48   1.417 .      A
N47   C307  1.354 1_655  A
C307  N47   1.354 1_455  A
C307  C308  1.364 .      A
C307  C312  1.388 .      A
C308  C309  1.387 .      A
C309  C310  1.387 .      A
C310  C311  1.381 .      A
C311  C312  1.371 .      A
C312  N48   1.347 1_455  A
N48   C312  1.347 1_655  A
C313  C314  1.377 1_556  A
C313  C318  1.332 .      A
C314  C313  1.377 1_554  A
C314  C315  1.375 1_565  A
C315  C314  1.375 1_545  A
C315  C316  1.378 1_554  A
C316  C315  1.378 1_556  A
C316  C317  1.382 1_545  A
C317  C316  1.382 1_565  A
C317  C318  1.381 .      A
C319  N49   1.387 .      A
C319  N50   1.433 .      A
N49   C320  1.337 .      A
C320  C321  1.351 .      A
C320  C325  1.365 .      A
C321  C322  1.382 .      A
C322  C323  1.388 .      A
C323  C324  1.382 .      A
C324  C325  1.359 .      A
C325  N50   1.335 .      A
C326  C327  1.357 .      A
C326  C331  1.322 .      A
C327  C328  1.374 .      A
C328  C329  1.363 .      A
C329  C330  1.358 .      A
C330  C331  1.362 .      A
C332  N51   1.414 .      A
C332  N52   1.408 .      A
N51   C333  1.352 1_655  A
C333  N51   1.352 1_455  A
C333  C334  1.370 .      A
C333  C338  1.395 .      A
C334  C335  1.386 .      A
C335  C336  1.387 .      A
C336  C337  1.382 .      A
C337  C338  1.370 .      A
C338  N52   1.355 1_455  A
N52   C338  1.355 1_655  A
C339  C340  1.374 .      A
C339  C344  1.388 .      A
C340  C341  1.368 .      A
C341  C342  1.354 .      A
C342  C343  1.370 .      A
C343  C344  1.356 .      A
C345  N53   1.417 .      A
C345  N54   1.399 .      A
N53   C346  1.348 1_554  A
C346  N53   1.348 1_556  A
C346  C347  1.365 .      A
C346  C351  1.369 .      A
C347  C348  1.378 .      A
C348  C349  1.374 .      A
C349  C350  1.378 .      A
C350  C351  1.361 .      A
C351  N54   1.334 1_556  A
N54   C351  1.334 1_554  A
C352  C353  1.382 .      A
C352  C357  1.401 .      A
C353  C354  1.374 .      A
C354  C355  1.372 1_455  A
C355  C354  1.372 1_655  A
C355  C356  1.376 .      A
C356  C357  1.381 1_655  A
C357  C356  1.381 1_455  A
C358  N55   1.435 1_556  A
C358  N56   1.402 .      A
N55   C358  1.435 1_554  A
N55   C359  1.337 .      A
C359  C360  1.370 .      A
C359  C364  1.361 .      A
C360  C361  1.375 .      A
C361  C362  1.380 .      A
C362  C363  1.388 .      A
C363  C364  1.349 .      A
C364  N56   1.350 1_554  A
N56   C364  1.350 1_556  A
C365  C366  1.379 .      A
C365  C370  1.393 .      A
C366  C367  1.366 .      A
C367  C368  1.368 .      A
C368  C369  1.381 .      A
C369  C370  1.381 .      A
C371  N57   1.405 .      A
C371  N58   1.396 .      A
N57   C372  1.367 .      A
C372  C373  1.353 1_454  A
C372  C377  1.356 .      A
C373  C372  1.353 1_656  A
C373  C374  1.385 .      A
C374  C375  1.373 1_655  A
C375  C374  1.373 1_455  A
C375  C376  1.371 .      A
C376  C377  1.362 1_556  A
C377  C376  1.362 1_554  A
C377  N58   1.317 .      A
C378  C379  1.380 .      A
C378  C383  1.383 .      A
C379  C380  1.363 .      A
C380  C381  1.363 .      A
C381  C382  1.379 .      A
C382  C383  1.401 .      A
C384  N59   1.426 .      A
C384  N60   1.398 .      A
N59   C385  1.340 .      A
C385  C386  1.367 .      A
C385  C390  1.373 .      A
C386  C387  1.382 .      A
C387  C388  1.387 .      A
C388  C389  1.383 .      A
C389  C390  1.368 .      A
C390  N60   1.355 .      A
C391  C392  1.382 .      A
C391  C396  1.406 .      A
C392  C393  1.367 .      A
C393  C394  1.364 .      A
C394  C395  1.376 .      A
C395  C396  1.400 .      A
C397  N61   1.419 .      A
C397  N62   1.411 .      A
N61   C398  1.337 .      A
C398  C399  1.370 .      A
C398  C403  1.364 .      A
C399  C400  1.378 .      A
C400  C401  1.375 .      A
C401  C402  1.382 .      A
C402  C403  1.360 .      A
C403  N62   1.357 .      A
C404  C405  1.378 .      A
C404  C409  1.401 .      A
C405  C406  1.366 .      A
C406  C407  1.367 .      A
C407  C408  1.377 .      A
C408  C409  1.372 .      A
C410  N63   1.390 .      A
C410  N64   1.413 .      A
N63   C411  1.357 .      A
C411  C412  1.372 .      A
C411  C416  1.362 .      A
C412  C413  1.376 .      A
C413  C414  1.368 .      A
C414  C415  1.374 .      A
C415  C416  1.374 .      A
C416  N64   1.340 .      A
C417  C418  1.373 .      A
C417  C422  1.362 .      A
C418  C419  1.374 .      A
C419  C420  1.358 .      A
C420  C421  1.360 .      A
C421  C422  1.357 .      A
C423  N65   1.402 .      A
C423  N66   1.399 .      A
N65   C424  1.352 .      A
C424  C425  1.370 .      A
C424  C429  1.377 .      A
C425  C426  1.382 .      A
C426  C427  1.385 .      A
C427  C428  1.382 .      A
C428  C429  1.369 .      A
C429  N66   1.353 .      A
C430  C431  1.380 .      A
C430  C435  1.411 .      A
C431  C432  1.362 .      A
C432  C433  1.361 .      A
C433  C434  1.382 .      A
C434  C435  1.375 .      A
C436  N67   1.416 .      A
C436  N68   1.413 .      A
N67   C437  1.351 .      A
C437  C438  1.369 .      A
C437  C442  1.377 .      A
C438  C439  1.385 .      A
C439  C440  1.384 .      A
C440  C441  1.377 .      A
C441  C442  1.357 .      A
C442  N68   1.335 .      A
C443  C444  1.369 .      A
C443  C448  1.343 .      A
C444  C445  1.378 .      A
C445  C446  1.377 .      A
C446  C447  1.368 .      A
C447  C448  1.371 .      A
C449  N69   1.394 .      A
C449  N70   1.393 .      A
N69   C450  1.354 .      A
C450  C451  1.375 .      A
C450  C455  1.377 .      A
C451  C452  1.384 .      A
C452  C453  1.386 .      A
C453  C454  1.382 .      A
C454  C455  1.371 .      A
C455  N70   1.350 .      A
C456  C457  1.364 .      A
C456  C461  1.336 .      A
C457  C458  1.374 .      A
C458  C459  1.368 1_655  A
C459  C458  1.368 1_455  A
C459  C460  1.362 1_455  A
C460  C459  1.362 1_655  A
C460  C461  1.383 .      A
C462  N71   1.423 1_554  A
C462  N72   1.380 .      A
N71   C462  1.423 1_556  A
N71   C463  1.354 .      A
C463  C464  1.365 .      A
C463  C468  1.374 .      A
C464  C465  1.395 .      A
C465  C466  1.381 .      A
C466  C467  1.375 .      A
C467  C468  1.364 .      A
C468  N72   1.337 1_556  A
N72   C468  1.337 1_554  A
C469  C470  1.379 .      A
C469  C474  1.416 .      A
C470  C471  1.365 .      A
C471  C472  1.364 .      A
C472  C473  1.381 .      A
C473  C474  1.384 .      A
C475  N73   1.388 .      A
C475  N74   1.387 .      A
N73   C476  1.354 .      A
C476  C477  1.377 .      A
C476  C481  1.375 .      A
C477  C478  1.388 .      A
C478  C479  1.391 .      A
C479  C480  1.385 .      A
C480  C481  1.371 .      A
C481  N74   1.344 .      A
C482  C483  1.380 .      A
C482  C487  1.386 .      A
C483  C484  1.376 .      A
C484  C485  1.375 .      A
C485  C486  1.378 .      A
C486  C487  1.386 .      A
C488  N75   1.435 .      A
C488  N76   1.407 .      A
N75   C489  1.349 .      A
C489  C490  1.376 .      A
C489  C494  1.374 .      A
C490  C491  1.383 .      A
C491  C492  1.386 .      A
C492  C493  1.385 .      A
C493  C494  1.373 .      A
C494  N76   1.355 .      A
C495  C496  1.367 .      A
C495  C500  1.342 .      A
C496  C497  1.377 .      A
C497  C498  1.369 .      A
C498  C499  1.376 .      A
C499  C500  1.379 .      A
C501  N77   1.397 .      A
C501  N78   1.436 .      A
N77   C502  1.320 .      A
C502  C503  1.336 .      A
C502  C507  1.356 .      A
C503  C504  1.334 .      A
C504  C505  1.358 .      A
C505  C506  1.373 .      A
C506  C507  1.340 .      A
C507  N78   1.321 .      A
C508  C509  1.379 .      A
C508  C513  1.367 .      A
C509  C510  1.369 .      A
C510  C511  1.370 .      A
C511  C512  1.379 .      A
C512  C513  1.398 .      A
C514  N79   1.396 .      A
C514  N80   1.415 .      A
N79   C515  1.343 .      A
C515  C516  1.378 .      A
C515  C520  1.375 .      A
C516  C517  1.380 .      A
C517  C518  1.377 .      A
C518  C519  1.377 .      A
C519  C520  1.358 .      A
C520  N80   1.348 .      A
