data_str_m1_o12004_AFY
_audit_creation_date              2015-10-01T06:28:14-0700
_symmetry_space_group_name_H-M    P1
_symmetry_Int_Tables_number       1
_space_group_crystal_system       triclinic
loop_
_symmetry_equiv_pos_as_xyz
  x,y,z
_cell_length_a                    26.7823253
_cell_length_b                    26.0351691
_cell_length_c                    17.9733403
_cell_angle_alpha                 86.5467137
_cell_angle_beta                  95.7920732
_cell_angle_gamma                 117.286250
_cell_volume                      11079.7226013

loop_
_atom_site_label
_atom_site_type_symbol
_atom_site_description
_atom_site_fract_x
_atom_site_fract_y
_atom_site_fract_z
_atom_type_partial_charge
Zn1   Zn    Zn3+2 0.383633 0.783192 0.743990 0.000000
Zn2   Zn    Zn3+2 0.571382 0.166356 0.749837 0.000000
Zn3   Zn    Zn3+2 0.567973 0.963462 0.546745 0.000000
Zn4   Zn    Zn3+2 0.181073 0.978888 0.725954 0.000000
Zn5   Zn    Zn3+2 0.375705 0.169311 0.531672 0.000000
Zn6   Zn    Zn3+2 0.171583 0.779796 0.528066 0.000000
Zn7   Zn    Zn3+2 0.703062 0.629372 0.339551 0.000000
Zn8   Zn    Zn3+2 0.361796 0.965280 0.315489 0.000000
Zn9   Zn    Zn3+2 0.731125 0.649368 0.971912 0.000000
Zn10  Zn    Zn3+2 0.378071 0.974833 0.949499 0.000000
Zn11  Zn    Zn3+2 0.720660 0.829677 0.555357 0.000000
Zn12  Zn    Zn3+2 0.516787 0.446850 0.555206 0.000000
Zn13  Zn    Zn3+2 0.520177 0.642660 0.739189 0.000000
Zn14  Zn    Zn3+2 0.911027 0.635999 0.559069 0.000000
Zn15  Zn    Zn3+2 0.724230 0.450271 0.769638 0.000000
Zn16  Zn    Zn3+2 0.921955 0.837372 0.757416 0.000000
C1    C     C_3   0.585116 0.917957 0.826191 0.000000
N1    N     N_3   0.527388 0.902667 0.797062 0.000000
C2    C     C_3   0.528758 0.927686 0.722853 0.000000
C3    C     C_R   0.490663 0.885783 0.664995 0.000000
N2    N     N_R   0.442504 0.833888 0.673978 0.000000
C4    C     C_R   0.435855 0.807093 0.609101 0.000000
C5    C     C_R   0.401038 0.749484 0.593811 0.000000
C6    C     C_R   0.408384 0.727049 0.530180 0.000000
C7    C     C_R   0.450655 0.761776 0.484618 0.000000
C8    C     C_R   0.486151 0.818808 0.502642 0.000000
C9    C     C_R   0.476542 0.841164 0.563677 0.000000
N3    N     N_R   0.510082 0.892380 0.596004 0.000000
H1    H     H_    0.611622 0.965456 0.822630 0.000000
H2    H     H_    0.585721 0.904645 0.885789 0.000000
H3    H     H_    0.602452 0.895063 0.795323 0.000000
H4    H     H_    0.514258 0.924695 0.830075 0.000000
H5    H     H_    0.520991 0.965465 0.722181 0.000000
H6    H     H_    0.571522 0.942977 0.705131 0.000000
H7    H     H_    0.370423 0.721628 0.631345 0.000000
H8    H     H_    0.381726 0.682189 0.516571 0.000000
H9    H     H_    0.456120 0.744305 0.434912 0.000000
H10   H     H_    0.523404 0.842618 0.474627 0.000000
C10   C     C_3   0.347056 0.803067 0.444169 0.000000
N4    N     N_3   0.303721 0.773810 0.495659 0.000000
C11   C     C_3   0.314211 0.811462 0.557890 0.000000
C12   C     C_R   0.279889 0.776678 0.617511 0.000000
N5    N     N_R   0.222143 0.750031 0.602079 0.000000
C13   C     C_R   0.207297 0.702736 0.646646 0.000000
C14   C     C_R   0.157546 0.652692 0.640256 0.000000
C15   C     C_R   0.153235 0.605421 0.683835 0.000000
C16   C     C_R   0.198711 0.608470 0.731158 0.000000
C17   C     C_R   0.249476 0.658355 0.734071 0.000000
C18   C     C_R   0.253127 0.705257 0.691876 0.000000
N6    N     N_R   0.300670 0.753961 0.678384 0.000000
H11   H     H_    0.338448 0.776045 0.394693 0.000000
H12   H     H_    0.351197 0.846326 0.429274 0.000000
H13   H     H_    0.387623 0.811084 0.470435 0.000000
H14   H     H_    0.305172 0.736071 0.515656 0.000000
H15   H     H_    0.357123 0.828555 0.580633 0.000000
H16   H     H_    0.303518 0.846631 0.539160 0.000000
H17   H     H_    0.124091 0.648735 0.598848 0.000000
H18   H     H_    0.114715 0.565257 0.679274 0.000000
H19   H     H_    0.195331 0.570624 0.763063 0.000000
H20   H     H_    0.286051 0.658710 0.763769 0.000000
C19   C     C_3   0.630070 0.119970 0.502991 0.000000
N7    N     N_3   0.575838 0.119420 0.507263 0.000000
C20   C     C_3   0.541551 0.078800 0.563355 0.000000
C21   C     C_R   0.573343 0.073017 0.630735 0.000000
N8    N     N_R   0.592613 0.107914 0.694473 0.000000
C22   C     C_R   0.633755 0.095046 0.723775 0.000000
C23   C     C_R   0.671999 0.121009 0.783278 0.000000
C24   C     C_R   0.717299 0.108826 0.796008 0.000000
C25   C     C_R   0.724424 0.073632 0.747373 0.000000
C26   C     C_R   0.684271 0.047017 0.688766 0.000000
C27   C     C_R   0.637358 0.054973 0.681189 0.000000
N9    N     N_R   0.596055 0.035940 0.624834 0.000000
H21   H     H_    0.649437 0.145758 0.452985 0.000000
H22   H     H_    0.659209 0.141123 0.552554 0.000000
H23   H     H_    0.624337 0.075676 0.496023 0.000000
H24   H     H_    0.553813 0.106091 0.455135 0.000000
H25   H     H_    0.506295 0.086224 0.576212 0.000000
H26   H     H_    0.527149 0.036517 0.540416 0.000000
H27   H     H_    0.668566 0.152097 0.816652 0.000000
H28   H     H_    0.749166 0.129727 0.841085 0.000000
H29   H     H_    0.762495 0.068617 0.754075 0.000000
H30   H     H_    0.691457 0.026017 0.644785 0.000000
C28   C     C_3   0.422573 0.221672 0.817450 0.000000
N10   N     N_3   0.458115 0.220510 0.762616 0.000000
C29   C     C_3   0.432062 0.164962 0.726935 0.000000
C30   C     C_R   0.464426 0.168195 0.662503 0.000000
N11   N     N_R   0.518335 0.174320 0.669629 0.000000
C31   C     C_R   0.535198 0.191585 0.600426 0.000000
C32   C     C_R   0.588732 0.213585 0.579263 0.000000
C33   C     C_R   0.599617 0.240354 0.509546 0.000000
C34   C     C_R   0.557777 0.247426 0.465145 0.000000
C35   C     C_R   0.503970 0.225047 0.488330 0.000000
C36   C     C_R   0.493448 0.194663 0.554707 0.000000
N12   N     N_R   0.446227 0.174654 0.589944 0.000000
H31   H     H_    0.408126 0.181953 0.852433 0.000000
H32   H     H_    0.447002 0.259212 0.854229 0.000000
H33   H     H_    0.386316 0.226173 0.788123 0.000000
H34   H     H_    0.496667 0.226467 0.788195 0.000000
H35   H     H_    0.431595 0.131186 0.767144 0.000000
H36   H     H_    0.388836 0.156252 0.706089 0.000000
H37   H     H_    0.621311 0.209756 0.615750 0.000000
H38   H     H_    0.641328 0.257212 0.490527 0.000000
H39   H     H_    0.567243 0.270474 0.412265 0.000000
H40   H     H_    0.471514 0.231720 0.455205 0.000000
C37   C     C_3   0.393135 0.047602 0.613670 0.000000
N13   N     N_3   0.355473 0.072187 0.601991 0.000000
C38   C     C_3   0.315048 0.047907 0.656134 0.000000
C39   C     C_R   0.281414 0.077505 0.640739 0.000000
N14   N     N_R   0.301394 0.127957 0.597654 0.000000
C40   C     C_R   0.261025 0.144398 0.604538 0.000000
C41   C     C_R   0.258734 0.193219 0.575141 0.000000
C42   C     C_R   0.214151 0.202610 0.591598 0.000000
C43   C     C_R   0.173645 0.164029 0.637197 0.000000
C44   C     C_R   0.176305 0.114710 0.666151 0.000000
C45   C     C_R   0.219734 0.105091 0.647925 0.000000
N15   N     N_R   0.230276 0.060223 0.670080 0.000000
H41   H     H_    0.412434 0.054082 0.561760 0.000000
H42   H     H_    0.425456 0.066087 0.659742 0.000000
H43   H     H_    0.368998 0.003871 0.630775 0.000000
H44   H     H_    0.333815 0.059132 0.550105 0.000000
H45   H     H_    0.287881 0.001512 0.651600 0.000000
H46   H     H_    0.337102 0.056857 0.711710 0.000000
H47   H     H_    0.290666 0.223573 0.540813 0.000000
H48   H     H_    0.211243 0.240814 0.569657 0.000000
H49   H     H_    0.139905 0.172858 0.650601 0.000000
H50   H     H_    0.146348 0.085870 0.703815 0.000000
C46   C     C_3   0.281291 0.881079 0.676726 0.000000
N16   N     N_3   0.248352 0.878897 0.736063 0.000000
C47   C     C_3   0.190453 0.839467 0.714349 0.000000
C48   C     C_R   0.169771 0.864095 0.649412 0.000000
N17   N     N_R   0.163528 0.913908 0.650964 0.000000
C49   C     C_R   0.138722 0.914492 0.581930 0.000000
C50   C     C_R   0.131845 0.959268 0.546490 0.000000
C51   C     C_R   0.108657 0.951826 0.473112 0.000000
C52   C     C_R   0.091855 0.899997 0.437383 0.000000
C53   C     C_R   0.101933 0.856499 0.472720 0.000000
C54   C     C_R   0.129492 0.867241 0.543006 0.000000
N18   N     N_R   0.154092 0.837643 0.581070 0.000000
H51   H     H_    0.300153 0.924799 0.656321 0.000000
H52   H     H_    0.315573 0.870253 0.697297 0.000000
H53   H     H_    0.255127 0.855427 0.629244 0.000000
H54   H     H_    0.251138 0.919854 0.733622 0.000000
H55   H     H_    0.187153 0.797159 0.700581 0.000000
H56   H     H_    0.163880 0.831828 0.760749 0.000000
H57   H     H_    0.145715 0.999744 0.573735 0.000000
H58   H     H_    0.103277 0.986557 0.443460 0.000000
H59   H     H_    0.073755 0.894873 0.380128 0.000000
H60   H     H_    0.093450 0.818244 0.442965 0.000000
C55   C     C_3   0.413492 0.941156 0.606565 0.000000
N19   N     N_3   0.441780 0.937873 0.545305 0.000000
C56   C     C_3   0.431346 0.971038 0.485587 0.000000
C57   C     C_R   0.466078 0.974472 0.427966 0.000000
N20   N     N_R   0.512846 0.963021 0.441400 0.000000
C58   C     C_R   0.508795 0.937518 0.375257 0.000000
C59   C     C_R   0.536197 0.906990 0.356760 0.000000
C60   C     C_R   0.519101 0.876004 0.291354 0.000000
C61   C     C_R   0.472712 0.872606 0.246610 0.000000
C62   C     C_R   0.443977 0.901446 0.266279 0.000000
C63   C     C_R   0.464230 0.935887 0.327974 0.000000
N21   N     N_R   0.437910 0.961581 0.358374 0.000000
H61   H     H_    0.407232 0.907078 0.648785 0.000000
H62   H     H_    0.440659 0.983009 0.632544 0.000000
H63   H     H_    0.371361 0.934510 0.584341 0.000000
H64   H     H_    0.420957 0.896504 0.525264 0.000000
H65   H     H_    0.386811 0.948497 0.462860 0.000000
H66   H     H_    0.441678 0.014139 0.500885 0.000000
H67   H     H_    0.567967 0.903103 0.393201 0.000000
H68   H     H_    0.540449 0.851797 0.277140 0.000000
H69   H     H_    0.458099 0.846178 0.197308 0.000000
H70   H     H_    0.406467 0.896817 0.233460 0.000000
C64   C     C_3   0.544974 0.062698 0.202055 0.000000
N22   N     N_3   0.486006 0.050646 0.192445 0.000000
C65   C     C_3   0.457621 0.003483 0.140736 0.000000
C66   C     C_R   0.394987 0.980372 0.136136 0.000000
N23   N     N_R   0.361120 0.966146 0.196649 0.000000
C67   C     C_R   0.310460 0.953254 0.160527 0.000000
C68   C     C_R   0.258407 0.929885 0.188269 0.000000
C69   C     C_R   0.214358 0.932659 0.144254 0.000000
C70   C     C_R   0.225094 0.962971 0.077220 0.000000
C71   C     C_R   0.276916 0.981449 0.049616 0.000000
C72   C     C_R   0.315144 0.966338 0.087142 0.000000
N24   N     N_R   0.366025 0.976643 0.066659 0.000000
H71   H     H_    0.570749 0.105741 0.227300 0.000000
H72   H     H_    0.549792 0.029472 0.239324 0.000000
H73   H     H_    0.560535 0.062911 0.147089 0.000000
H74   H     H_    0.484908 0.086511 0.164583 0.000000
H75   H     H_    0.471023 0.020771 0.084373 0.000000
H76   H     H_    0.470584 0.969462 0.155031 0.000000
H77   H     H_    0.251666 0.913037 0.243451 0.000000
H78   H     H_    0.173495 0.916806 0.165705 0.000000
H79   H     H_    0.193026 0.971530 0.046215 0.000000
H80   H     H_    0.288022 0.008106 0.001225 0.000000
C73   C     C_3   0.488300 0.146290 0.292046 0.000000
N25   N     N_3   0.472205 0.157857 0.360998 0.000000
C74   C     C_3   0.450679 0.105501 0.407371 0.000000
C75   C     C_R   0.389356 0.082771 0.407989 0.000000
N26   N     N_R   0.364336 0.113964 0.436702 0.000000
C76   C     C_R   0.316491 0.095977 0.391784 0.000000
C77   C     C_R   0.274187 0.111436 0.395329 0.000000
C78   C     C_R   0.230602 0.092567 0.339498 0.000000
C79   C     C_R   0.231209 0.060340 0.281203 0.000000
C80   C     C_R   0.273119 0.043238 0.280920 0.000000
C81   C     C_R   0.313629 0.058049 0.339592 0.000000
N27   N     N_R   0.356529 0.043434 0.352834 0.000000
H81   H     H_    0.450747 0.111870 0.262132 0.000000
H82   H     H_    0.503735 0.186007 0.256523 0.000000
H83   H     H_    0.522769 0.133979 0.304499 0.000000
H84   H     H_    0.439712 0.169013 0.346200 0.000000
H85   H     H_    0.459097 0.072727 0.382755 0.000000
H86   H     H_    0.470644 0.113767 0.464424 0.000000
H87   H     H_    0.275824 0.139154 0.438812 0.000000
H88   H     H_    0.197416 0.105276 0.339344 0.000000
H89   H     H_    0.199009 0.049011 0.235127 0.000000
H90   H     H_    0.276517 0.023706 0.232922 0.000000
C82   C     C_3   0.261756 0.952937 0.522811 0.000000
N28   N     N_3   0.273037 0.969744 0.447729 0.000000
C83   C     C_3   0.233445 0.922281 0.404078 0.000000
C84   C     C_R   0.253791 0.878882 0.406306 0.000000
N29   N     N_R   0.290482 0.885973 0.353329 0.000000
C85   C     C_R   0.270717 0.830681 0.331873 0.000000
C86   C     C_R   0.285865 0.811115 0.272998 0.000000
C87   C     C_R   0.261801 0.751944 0.263051 0.000000
C88   C     C_R   0.224698 0.713749 0.312620 0.000000
C89   C     C_R   0.209295 0.734063 0.371362 0.000000
C90   C     C_R   0.230992 0.792945 0.378077 0.000000
N30   N     N_R   0.220013 0.821785 0.429182 0.000000
H91   H     H_    0.302431 0.963201 0.551006 0.000000
H92   H     H_    0.240855 0.976594 0.543023 0.000000
H93   H     H_    0.238320 0.906278 0.529385 0.000000
H94   H     H_    0.311587 0.969800 0.444661 0.000000
H95   H     H_    0.192000 0.905053 0.423108 0.000000
H96   H     H_    0.230167 0.937038 0.346000 0.000000
H97   H     H_    0.314393 0.840644 0.234523 0.000000
H98   H     H_    0.272748 0.735249 0.217023 0.000000
H99   H     H_    0.207460 0.667709 0.304977 0.000000
H100  H     H_    0.180623 0.704458 0.410042 0.000000
C91   C     C_3   0.583945 0.453211 0.004043 0.000000
N31   N     N_3   0.629475 0.455888 0.963613 0.000000
C92   C     C_3   0.647180 0.506039 0.913530 0.000000
C93   C     C_R   0.708219 0.528942 0.903029 0.000000
N32   N     N_R   0.744032 0.574989 0.947524 0.000000
C94   C     C_R   0.791282 0.568137 0.953532 0.000000
C95   C     C_R   0.838360 0.595037 0.001851 0.000000
C96   C     C_R   0.881320 0.579479 0.000375 0.000000
C97   C     C_R   0.876803 0.538256 0.950797 0.000000
C98   C     C_R   0.828539 0.510634 0.903293 0.000000
C99   C     C_R   0.785863 0.525507 0.906911 0.000000
N33   N     N_R   0.734578 0.501401 0.868935 0.000000
H101  H     H_    0.600869 0.487619 0.046528 0.000000
H102  H     H_    0.551935 0.458375 0.964426 0.000000
H103  H     H_    0.563767 0.410625 0.032983 0.000000
H104  H     H_    0.663247 0.462598 0.002977 0.000000
H105  H     H_    0.620078 0.498070 0.860962 0.000000
H106  H     H_    0.643087 0.540113 0.942273 0.000000
H107  H     H_    0.841410 0.626438 0.040875 0.000000
H108  H     H_    0.918780 0.599546 0.038282 0.000000
H109  H     H_    0.910861 0.526902 0.950343 0.000000
H110  H     H_    0.824012 0.477359 0.866179 0.000000
C100  C     C_3   0.958880 0.738716 0.030453 0.000000
N34   N     N_3   0.903899 0.734168 0.004209 0.000000
C101  C     C_3   0.895483 0.725396 0.923796 0.000000
C102  C     C_R   0.851104 0.741392 0.891376 0.000000
N35   N     N_R   0.804909 0.729287 0.932517 0.000000
C103  C     C_R   0.806151 0.781930 0.929711 0.000000
C104  C     C_R   0.788725 0.804343 0.982864 0.000000
C105  C     C_R   0.801733 0.862330 0.978392 0.000000
C106  C     C_R   0.833858 0.897763 0.922845 0.000000
C107  C     C_R   0.856482 0.876333 0.874495 0.000000
C108  C     C_R   0.843231 0.818680 0.880346 0.000000
N36   N     N_R   0.870831 0.793598 0.851200 0.000000
H111  H     H_    0.960960 0.732195 0.092014 0.000000
H112  H     H_    0.965812 0.705421 0.003961 0.000000
H113  H     H_    0.992233 0.782345 0.016633 0.000000
H114  H     H_    0.905568 0.774095 0.013857 0.000000
H115  H     H_    0.934778 0.755516 0.898840 0.000000
H116  H     H_    0.885850 0.680905 0.910955 0.000000
H117  H     H_    0.772457 0.779874 0.032346 0.000000
H118  H     H_    0.788596 0.880648 0.020274 0.000000
H119  H     H_    0.844851 0.943265 0.921105 0.000000
H120  H     H_    0.887412 0.905380 0.838078 0.000000
C109  C     C_3   0.523595 0.602562 0.059195 0.000000
N37   N     N_3   0.568588 0.610273 0.013888 0.000000
C110  C     C_3   0.571414 0.651297 0.953861 0.000000
C111  C     C_R   0.603332 0.646958 0.893661 0.000000
N38   N     N_R   0.654891 0.643746 0.903471 0.000000
C112  C     C_R   0.655482 0.627426 0.834623 0.000000
C113  C     C_R   0.693487 0.614531 0.810760 0.000000
C114  C     C_R   0.677424 0.579082 0.750121 0.000000
C115  C     C_R   0.633307 0.575299 0.700999 0.000000
C116  C     C_R   0.603847 0.603299 0.717551 0.000000
C117  C     C_R   0.611144 0.622251 0.788484 0.000000
N39   N     N_R   0.578146 0.637753 0.820979 0.000000
H121  H     H_    0.526405 0.578841 0.111521 0.000000
H122  H     H_    0.527726 0.645246 0.073496 0.000000
H123  H     H_    0.482094 0.577121 0.028120 0.000000
H124  H     H_    0.557070 0.570559 0.989553 0.000000
H125  H     H_    0.528277 0.640434 0.929376 0.000000
H126  H     H_    0.589485 0.695908 0.973843 0.000000
H127  H     H_    0.731342 0.627181 0.844523 0.000000
H128  H     H_    0.700323 0.556208 0.740766 0.000000
H129  H     H_    0.623631 0.554351 0.648185 0.000000
H130  H     H_    0.578612 0.611903 0.673939 0.000000
C118  C     C_3   0.825923 0.565670 0.212806 0.000000
N40   N     N_3   0.800375 0.604247 0.214205 0.000000
C119  C     C_3   0.749522 0.582128 0.163593 0.000000
C120  C     C_R   0.724944 0.623231 0.158136 0.000000
N41   N     N_R   0.704564 0.636395 0.219434 0.000000
C121  C     C_R   0.681959 0.669424 0.186417 0.000000
C122  C     C_R   0.652804 0.692273 0.219769 0.000000
C123  C     C_R   0.636862 0.729374 0.178004 0.000000
C124  C     C_R   0.649142 0.741606 0.104026 0.000000
C125  C     C_R   0.674860 0.714593 0.070120 0.000000
C126  C     C_R   0.690944 0.678397 0.112178 0.000000
N42   N     N_R   0.717419 0.649092 0.090168 0.000000
H131  H     H_    0.852754 0.577697 0.165371 0.000000
H132  H     H_    0.852387 0.569625 0.265759 0.000000
H133  H     H_    0.792996 0.520202 0.207123 0.000000
H134  H     H_    0.828496 0.644183 0.192778 0.000000
H135  H     H_    0.759494 0.576444 0.107478 0.000000
H136  H     H_    0.718033 0.539844 0.184356 0.000000
H137  H     H_    0.642279 0.681608 0.276732 0.000000
H138  H     H_    0.614782 0.748910 0.203069 0.000000
H139  H     H_    0.636707 0.770904 0.071812 0.000000
H140  H     H_    0.682104 0.721911 0.011895 0.000000
C127  C     C_3   0.276503 0.763172 0.960900 0.000000
N43   N     N_3   0.286380 0.762583 0.883050 0.000000
C128  C     C_3   0.296911 0.817505 0.845798 0.000000
C129  C     C_R   0.358409 0.857746 0.854920 0.000000
N44   N     N_R   0.382772 0.897167 0.914071 0.000000
C130  C     C_R   0.425848 0.885963 0.940214 0.000000
C131  C     C_R   0.462045 0.908182 0.002249 0.000000
C132  C     C_R   0.500139 0.886800 0.023649 0.000000
C133  C     C_R   0.501271 0.843869 0.982595 0.000000
C134  C     C_R   0.465906 0.823525 0.917996 0.000000
C135  C     C_R   0.429364 0.846439 0.896997 0.000000
N45   N     N_R   0.390754 0.832209 0.837829 0.000000
H141  H     H_    0.234247 0.760182 0.964329 0.000000
H142  H     H_    0.277546 0.724942 0.990297 0.000000
H143  H     H_    0.309636 0.802555 0.988538 0.000000
H144  H     H_    0.249349 0.730730 0.857016 0.000000
H145  H     H_    0.284839 0.807265 0.786465 0.000000
H146  H     H_    0.270103 0.834334 0.864019 0.000000
H147  H     H_    0.459563 0.940001 0.034121 0.000000
H148  H     H_    0.528500 0.902865 0.073415 0.000000
H149  H     H_    0.530598 0.826844 0.000575 0.000000
H150  H     H_    0.467108 0.790574 0.885911 0.000000
C136  C     C_3   0.398501 0.991927 0.779532 0.000000
N46   N     N_3   0.450579 0.991294 0.767004 0.000000
C137  C     C_3   0.493777 0.019823 0.826509 0.000000
C138  C     C_R   0.486112 0.065396 0.859174 0.000000
N47   N     N_R   0.519934 0.123745 0.844763 0.000000
C139  C     C_R   0.505965 0.147611 0.899811 0.000000
C140  C     C_R   0.526933 0.204914 0.917927 0.000000
C141  C     C_R   0.506012 0.218825 0.976871 0.000000
C142  C     C_R   0.463673 0.176255 0.015954 0.000000
C143  C     C_R   0.441986 0.118949 0.997015 0.000000
C144  C     C_R   0.464445 0.105760 0.940016 0.000000
N48   N     N_R   0.449524 0.052786 0.914886 0.000000
H151  H     H_    0.400652 0.035050 0.772834 0.000000
H152  H     H_    0.366106 0.963611 0.739976 0.000000
H153  H     H_    0.384717 0.972772 0.832919 0.000000
H154  H     H_    0.441425 0.947839 0.770277 0.000000
H155  H     H_    0.491761 0.988607 0.871768 0.000000
H156  H     H_    0.535828 0.038694 0.804868 0.000000
H157  H     H_    0.557376 0.239160 0.886260 0.000000
H158  H     H_    0.521969 0.263611 0.991461 0.000000
H159  H     H_    0.447235 0.188022 0.060997 0.000000
H160  H     H_    0.408656 0.085766 0.026682 0.000000
C145  C     C_3   0.276944 0.129670 0.878288 0.000000
N49   N     N_3   0.293232 0.085320 0.905763 0.000000
C146  C     C_3   0.312472 0.066038 0.844999 0.000000
C147  C     C_R   0.285146 0.001219 0.843577 0.000000
N50   N     N_R   0.304642 0.969853 0.892383 0.000000
C148  C     C_R   0.256831 0.922103 0.905665 0.000000
C149  C     C_R   0.250522 0.881182 0.960906 0.000000
C150  C     C_R   0.196744 0.842790 0.977486 0.000000
C151  C     C_R   0.150922 0.844382 0.936788 0.000000
C152  C     C_R   0.157942 0.882579 0.876940 0.000000
C153  C     C_R   0.211913 0.922949 0.864307 0.000000
N51   N     N_R   0.228873 0.970388 0.819309 0.000000
H161  H     H_    0.262098 0.143541 0.925032 0.000000
H162  H     H_    0.313216 0.167633 0.857240 0.000000
H163  H     H_    0.241959 0.112371 0.833599 0.000000
H164  H     H_    0.256209 0.050851 0.921374 0.000000
H165  H     H_    0.301320 0.083603 0.792505 0.000000
H166  H     H_    0.358613 0.082410 0.853507 0.000000
H167  H     H_    0.286538 0.880567 0.992837 0.000000
H168  H     H_    0.190341 0.812171 0.023343 0.000000
H169  H     H_    0.109575 0.815676 0.953292 0.000000
H170  H     H_    0.121794 0.881185 0.843588 0.000000
C154  C     C_3   0.721505 0.708837 0.666297 0.000000
N52   N     N_3   0.759759 0.749149 0.718941 0.000000
C155  C     C_3   0.808764 0.775570 0.679212 0.000000
C156  C     C_R   0.824789 0.836493 0.668655 0.000000
N53   N     N_R   0.797691 0.861725 0.621811 0.000000
C157  C     C_R   0.836650 0.918048 0.624940 0.000000
C158  C     C_R   0.838358 0.963249 0.579980 0.000000
C159  C     C_R   0.882513 0.017721 0.594345 0.000000
C160  C     C_R   0.924947 0.025634 0.650584 0.000000
C161  C     C_R   0.925685 0.978646 0.690126 0.000000
C162  C     C_R   0.881440 0.925264 0.674957 0.000000
N54   N     N_R   0.875778 0.873553 0.700914 0.000000
H171  H     H_    0.680771 0.689763 0.685438 0.000000
H172  H     H_    0.720960 0.733950 0.615516 0.000000
H173  H     H_    0.733559 0.674594 0.660019 0.000000
H174  H     H_    0.767441 0.726526 0.764603 0.000000
H175  H     H_    0.840782 0.770987 0.715924 0.000000
H176  H     H_    0.806027 0.755218 0.625580 0.000000
H177  H     H_    0.805768 0.957207 0.535931 0.000000
H178  H     H_    0.883858 0.054507 0.561665 0.000000
H179  H     H_    0.958967 0.068458 0.661157 0.000000
H180  H     H_    0.959908 0.983870 0.731311 0.000000
C163  C     C_3   0.760189 0.952754 0.743297 0.000000
N55   N     N_3   0.735578 0.965824 0.673378 0.000000
C164  C     C_3   0.680701 0.917802 0.654801 0.000000
C165  C     C_R   0.665396 0.914461 0.571794 0.000000
N56   N     N_R   0.639108 0.945387 0.533505 0.000000
C166  C     C_R   0.661294 0.954643 0.467120 0.000000
C167  C     C_R   0.659333 0.992123 0.410901 0.000000
C168  C     C_R   0.681029 0.991762 0.344417 0.000000
C169  C     C_R   0.702568 0.953413 0.335059 0.000000
C170  C     C_R   0.706129 0.917805 0.393539 0.000000
C171  C     C_R   0.688794 0.921914 0.461084 0.000000
N57   N     N_R   0.692097 0.894734 0.526702 0.000000
H181  H     H_    0.800451 0.990943 0.760043 0.000000
H182  H     H_    0.730916 0.942620 0.787644 0.000000
H183  H     H_    0.768884 0.915667 0.736734 0.000000
H184  H     H_    0.761032 0.972623 0.630699 0.000000
H185  H     H_    0.682775 0.877753 0.673296 0.000000
H186  H     H_    0.650455 0.924801 0.684483 0.000000
H187  H     H_    0.639480 0.019297 0.416983 0.000000
H188  H     H_    0.678800 0.019555 0.298409 0.000000
H189  H     H_    0.716595 0.951226 0.281550 0.000000
H190  H     H_    0.719806 0.886405 0.384715 0.000000
C172  C     C_3   0.671656 0.800838 0.875532 0.000000
N58   N     N_3   0.640147 0.790922 0.802869 0.000000
C173  C     C_3   0.666350 0.770644 0.752319 0.000000
C174  C     C_R   0.632074 0.748835 0.677780 0.000000
N59   N     N_R   0.577072 0.704714 0.669146 0.000000
C175  C     C_R   0.566507 0.702807 0.593727 0.000000
C176  C     C_R   0.516239 0.673040 0.553096 0.000000
C177  C     C_R   0.512061 0.682143 0.476874 0.000000
C178  C     C_R   0.557101 0.725091 0.442921 0.000000
C179  C     C_R   0.606964 0.756813 0.484850 0.000000
C180  C     C_R   0.610925 0.743300 0.559784 0.000000
N60   N     N_R   0.654079 0.772191 0.609956 0.000000
H191  H     H_    0.648093 0.809085 0.916712 0.000000
H192  H     H_    0.678267 0.763211 0.894701 0.000000
H193  H     H_    0.712838 0.839466 0.871447 0.000000
H194  H     H_    0.647540 0.832473 0.785616 0.000000
H195  H     H_    0.707616 0.807067 0.740815 0.000000
H196  H     H_    0.673638 0.736043 0.781080 0.000000
H197  H     H_    0.479409 0.651084 0.581302 0.000000
H198  H     H_    0.472009 0.659222 0.444854 0.000000
H199  H     H_    0.552608 0.735089 0.384128 0.000000
H200  H     H_    0.640406 0.792763 0.459136 0.000000
C181  C     C_3   0.720866 0.610472 0.534643 0.000000
N61   N     N_3   0.735265 0.671114 0.529035 0.000000
C182  C     C_3   0.686507 0.677119 0.496897 0.000000
C183  C     C_R   0.705751 0.725058 0.445257 0.000000
N62   N     N_R   0.728267 0.783080 0.464152 0.000000
C184  C     C_R   0.760577 0.808546 0.406804 0.000000
C185  C     C_R   0.801280 0.864938 0.401952 0.000000
C186  C     C_R   0.830769 0.882347 0.338668 0.000000
C187  C     C_R   0.820710 0.843053 0.283222 0.000000
C188  C     C_R   0.782880 0.785306 0.291771 0.000000
C189  C     C_R   0.753880 0.768567 0.355009 0.000000
N63   N     N_R   0.720191 0.714218 0.378944 0.000000
H201  H     H_    0.759581 0.606010 0.545368 0.000000
H202  H     H_    0.693882 0.590796 0.580558 0.000000
H203  H     H_    0.699773 0.587132 0.482832 0.000000
H204  H     H_    0.768219 0.692163 0.495035 0.000000
H205  H     H_    0.663093 0.642621 0.459233 0.000000
H206  H     H_    0.658576 0.676964 0.537777 0.000000
H207  H     H_    0.809357 0.895122 0.445528 0.000000
H208  H     H_    0.861975 0.926843 0.332412 0.000000
H209  H     H_    0.844220 0.857249 0.234202 0.000000
H210  H     H_    0.777930 0.754496 0.250714 0.000000
C190  C     C_3   0.656445 0.393611 0.497327 0.000000
N64   N     N_3   0.687651 0.427111 0.562752 0.000000
C191  C     C_3   0.670417 0.471271 0.573225 0.000000
C192  C     C_R   0.635832 0.456629 0.638206 0.000000
N65   N     N_R   0.579798 0.445636 0.633153 0.000000
C193  C     C_R   0.566677 0.430022 0.703995 0.000000
C194  C     C_R   0.513927 0.402429 0.726401 0.000000
C195  C     C_R   0.505530 0.378308 0.797604 0.000000
C196  C     C_R   0.550202 0.377055 0.842097 0.000000
C197  C     C_R   0.603346 0.401761 0.816073 0.000000
C198  C     C_R   0.610877 0.430715 0.748274 0.000000
N66   N     N_R   0.656232 0.449047 0.709482 0.000000
H211  H     H_    0.661499 0.422162 0.447669 0.000000
H212  H     H_    0.673309 0.363324 0.486496 0.000000
H213  H     H_    0.611517 0.368835 0.507607 0.000000
H214  H     H_    0.730056 0.448224 0.551987 0.000000
H215  H     H_    0.709090 0.511085 0.585823 0.000000
H216  H     H_    0.647199 0.477662 0.522552 0.000000
H217  H     H_    0.479662 0.398810 0.686769 0.000000
H218  H     H_    0.463558 0.357281 0.816377 0.000000
H219  H     H_    0.543130 0.354943 0.895763 0.000000
H220  H     H_    0.637826 0.399124 0.849113 0.000000
C199  C     C_3   0.553638 0.313997 0.675021 0.000000
N67   N     N_3   0.521610 0.327658 0.614827 0.000000
C200  C     C_3   0.461600 0.297998 0.623178 0.000000
C201  C     C_R   0.434966 0.306185 0.553418 0.000000
N68   N     N_R   0.452333 0.360753 0.521189 0.000000
C202  C     C_R   0.423489 0.346992 0.452995 0.000000
C203  C     C_R   0.426231 0.384029 0.393869 0.000000
C204  C     C_R   0.397188 0.360446 0.326373 0.000000
C205  C     C_R   0.367829 0.300924 0.318148 0.000000
C206  C     C_R   0.366551 0.264024 0.377490 0.000000
C207  C     C_R   0.393471 0.287816 0.445035 0.000000
N69   N     N_R   0.399966 0.259861 0.508175 0.000000
H221  H     H_    0.553216 0.274005 0.668245 0.000000
H222  H     H_    0.597974 0.344955 0.673396 0.000000
H223  H     H_    0.537671 0.312724 0.728740 0.000000
H224  H     H_    0.529305 0.316006 0.564640 0.000000
H225  H     H_    0.445899 0.253137 0.632839 0.000000
H226  H     H_    0.447144 0.310987 0.669865 0.000000
H227  H     H_    0.451219 0.430175 0.398864 0.000000
H228  H     H_    0.398603 0.388602 0.279037 0.000000
H229  H     H_    0.346702 0.283230 0.264440 0.000000
H230  H     H_    0.346158 0.218192 0.369825 0.000000
C208  C     C_3   0.421763 0.465994 0.842377 0.000000
N70   N     N_3   0.463227 0.514822 0.802164 0.000000
C209  C     C_3   0.485733 0.491370 0.751091 0.000000
C210  C     C_R   0.493604 0.522502 0.677694 0.000000
N71   N     N_R   0.476618 0.564656 0.676292 0.000000
C211  C     C_R   0.437000 0.547811 0.617862 0.000000
C212  C     C_R   0.393982 0.562850 0.601719 0.000000
C213  C     C_R   0.357091 0.538790 0.539401 0.000000
C214  C     C_R   0.362609 0.499333 0.496357 0.000000
C215  C     C_R   0.404414 0.482523 0.515785 0.000000
C216  C     C_R   0.440816 0.507002 0.577329 0.000000
N72   N     N_R   0.480350 0.492744 0.610460 0.000000
H231  H     H_    0.411482 0.481387 0.891990 0.000000
H232  H     H_    0.382340 0.443231 0.805729 0.000000
H233  H     H_    0.439225 0.435956 0.862865 0.000000
H234  H     H_    0.496158 0.537615 0.841954 0.000000
H235  H     H_    0.526382 0.495312 0.777668 0.000000
H236  H     H_    0.451952 0.447413 0.740543 0.000000
H237  H     H_    0.389473 0.592953 0.636032 0.000000
H238  H     H_    0.323405 0.550396 0.524467 0.000000
H239  H     H_    0.332910 0.480263 0.448558 0.000000
H240  H     H_    0.406296 0.449187 0.485762 0.000000
C217  C     C_3   0.495508 0.574263 0.325783 0.000000
N73   N     N_3   0.552912 0.603618 0.359986 0.000000
C218  C     C_3   0.555150 0.580474 0.435307 0.000000
C219  C     C_R   0.588534 0.547957 0.436094 0.000000
N74   N     N_R   0.623016 0.558380 0.377238 0.000000
C220  C     C_R   0.606425 0.504007 0.355455 0.000000
C221  C     C_R   0.613548 0.487423 0.287989 0.000000
C222  C     C_R   0.591742 0.428904 0.275233 0.000000
C223  C     C_R   0.563060 0.388611 0.329414 0.000000
C224  C     C_R   0.552999 0.406201 0.395080 0.000000
C225  C     C_R   0.572643 0.464380 0.405122 0.000000
N75   N     N_R   0.561654 0.490688 0.459374 0.000000
H241  H     H_    0.494069 0.591149 0.267894 0.000000
H242  H     H_    0.481839 0.527163 0.323482 0.000000
H243  H     H_    0.466668 0.582486 0.357807 0.000000
H244  H     H_    0.564042 0.647335 0.363155 0.000000
H245  H     H_    0.572841 0.615275 0.476658 0.000000
H246  H     H_    0.512101 0.549975 0.449801 0.000000
H247  H     H_    0.635387 0.519067 0.245993 0.000000
H248  H     H_    0.597670 0.414509 0.223154 0.000000
H249  H     H_    0.547325 0.343058 0.319491 0.000000
H250  H     H_    0.530663 0.374785 0.436702 0.000000
C226  C     C_3   0.564887 0.817490 0.648464 0.000000
N76   N     N_3   0.510570 0.772939 0.663722 0.000000
C227  C     C_3   0.506539 0.766352 0.742096 0.000000
C228  C     C_R   0.455182 0.714896 0.753062 0.000000
N77   N     N_R   0.409168 0.718332 0.775955 0.000000
C229  C     C_R   0.389293 0.672713 0.823678 0.000000
C230  C     C_R   0.351786 0.661782 0.876524 0.000000
C231  C     C_R   0.341426 0.615508 0.925362 0.000000
C232  C     C_R   0.370622 0.583281 0.923249 0.000000
C233  C     C_R   0.410787 0.597188 0.872652 0.000000
C234  C     C_R   0.419075 0.641578 0.822705 0.000000
N78   N     N_R   0.460484 0.666430 0.775762 0.000000
H251  H     H_    0.572588 0.816599 0.589593 0.000000
H252  H     H_    0.568490 0.858594 0.662967 0.000000
H253  H     H_    0.595776 0.814509 0.687158 0.000000
H254  H     H_    0.500376 0.733485 0.641993 0.000000
H255  H     H_    0.540557 0.758314 0.770583 0.000000
H256  H     H_    0.505628 0.803518 0.766144 0.000000
H257  H     H_    0.331760 0.689056 0.881048 0.000000
H258  H     H_    0.311734 0.605534 0.967048 0.000000
H259  H     H_    0.363710 0.548665 0.963625 0.000000
H260  H     H_    0.437406 0.576533 0.876003 0.000000
C235  C     C_3   0.818747 0.651936 0.772200 0.000000
N79   N     N_3   0.839828 0.615737 0.745766 0.000000
C236  C     C_3   0.809314 0.592951 0.675441 0.000000
C237  C     C_R   0.820828 0.546093 0.661892 0.000000
N80   N     N_R   0.869373 0.559346 0.628296 0.000000
C238  C     C_R   0.876895 0.512243 0.647298 0.000000
C239  C     C_R   0.919410 0.501041 0.628835 0.000000
C240  C     C_R   0.919827 0.450382 0.656480 0.000000
C241  C     C_R   0.878673 0.412626 0.701886 0.000000
C242  C     C_R   0.835820 0.424348 0.719769 0.000000
C243  C     C_R   0.835102 0.473960 0.690785 0.000000
N81   N     N_R   0.797710 0.493698 0.701796 0.000000
H261  H     H_    0.849061 0.697229 0.767481 0.000000
H262  H     H_    0.781930 0.648007 0.737342 0.000000
H263  H     H_    0.811049 0.639654 0.830665 0.000000
H264  H     H_    0.830756 0.581581 0.783635 0.000000
H265  H     H_    0.763882 0.575313 0.675146 0.000000
H266  H     H_    0.826491 0.626784 0.632010 0.000000
H267  H     H_    0.951577 0.530715 0.594144 0.000000
H268  H     H_    0.952812 0.440314 0.643200 0.000000
H269  H     H_    0.880211 0.373698 0.723600 0.000000
H270  H     H_    0.804417 0.395620 0.755890 0.000000
C244  C     C_3   0.029981 0.746404 0.846018 0.000000
N82   N     N_3   0.006343 0.764749 0.779778 0.000000
C245  C     C_3   0.955975 0.714746 0.751599 0.000000
C246  C     C_R   0.930131 0.731858 0.683381 0.000000
N83   N     N_R   0.925942 0.782900 0.679517 0.000000
C247  C     C_R   0.926843 0.794858 0.604916 0.000000
C248  C     C_R   0.924782 0.840603 0.564236 0.000000
C249  C     C_R   0.942048 0.850934 0.492716 0.000000
C250  C     C_R   0.961750 0.816394 0.463951 0.000000
C251  C     C_R   0.955448 0.766311 0.501582 0.000000
C252  C     C_R   0.932222 0.754038 0.568629 0.000000
N84   N     N_R   0.926801 0.709707 0.614133 0.000000
H271  H     H_    0.025724 0.767074 0.895195 0.000000
H272  H     H_    0.007506 0.698981 0.854706 0.000000
H273  H     H_    0.074905 0.759357 0.839955 0.000000
H274  H     H_    0.035792 0.779331 0.739950 0.000000
H275  H     H_    0.966143 0.680363 0.736621 0.000000
H276  H     H_    0.928142 0.698098 0.796941 0.000000
H277  H     H_    0.912448 0.869835 0.585453 0.000000
H278  H     H_    0.942810 0.887760 0.460728 0.000000
H279  H     H_    0.978037 0.826118 0.409621 0.000000
H280  H     H_    0.969354 0.738407 0.479262 0.000000
C253  C     C_3   0.056309 0.646874 0.752998 0.000000
N85   N     N_3   0.036596 0.640780 0.674060 0.000000
C254  C     C_3   0.056438 0.697508 0.637731 0.000000
C255  C     C_R   0.045082 0.689739 0.555976 0.000000
N86   N     N_R   0.087442 0.714571 0.507369 0.000000
C256  C     C_R   0.058314 0.694943 0.440807 0.000000
C257  C     C_R   0.076746 0.713111 0.370951 0.000000
C258  C     C_R   0.039233 0.689383 0.309280 0.000000
C259  C     C_R   0.983709 0.649988 0.318244 0.000000
C260  C     C_R   0.964421 0.635926 0.388856 0.000000
C261  C     C_R   0.002353 0.659363 0.449661 0.000000
N87   N     N_R   0.991469 0.656864 0.522046 0.000000
H281  H     H_    0.079061 0.620785 0.767201 0.000000
H282  H     H_    0.084867 0.692564 0.766665 0.000000
H283  H     H_    0.019574 0.630065 0.786956 0.000000
H284  H     H_    0.992686 0.621629 0.670566 0.000000
H285  H     H_    0.034176 0.720520 0.655236 0.000000
H286  H     H_    0.102354 0.723436 0.650316 0.000000
H287  H     H_    0.118162 0.747064 0.363678 0.000000
H288  H     H_    0.052978 0.702517 0.253687 0.000000
H289  H     H_    0.954822 0.632081 0.269459 0.000000
H290  H     H_    0.920882 0.607420 0.394958 0.000000
C262  C     C_3   0.897471 0.756786 0.284853 0.000000
N88   N     N_3   0.887130 0.709643 0.338458 0.000000
C263  C     C_3   0.846427 0.706885 0.388665 0.000000
C264  C     C_R   0.819878 0.649110 0.423853 0.000000
N89   N     N_R   0.769762 0.611112 0.387651 0.000000
C265  C     C_R   0.772167 0.560546 0.399260 0.000000
C266  C     C_R   0.742186 0.510634 0.359892 0.000000
C267  C     C_R   0.756695 0.466056 0.372948 0.000000
C268  C     C_R   0.801248 0.472185 0.424215 0.000000
C269  C     C_R   0.832953 0.523774 0.460872 0.000000
C270  C     C_R   0.817820 0.567473 0.447062 0.000000
N90   N     N_R   0.848617 0.623033 0.467460 0.000000
H291  H     H_    0.937421 0.768342 0.259496 0.000000
H292  H     H_    0.862645 0.743108 0.239910 0.000000
H293  H     H_    0.900916 0.795042 0.313093 0.000000
H294  H     H_    0.925113 0.717755 0.368248 0.000000
H295  H     H_    0.861946 0.741772 0.428908 0.000000
H296  H     H_    0.812030 0.709442 0.353064 0.000000
H297  H     H_    0.712753 0.508368 0.314229 0.000000
H298  H     H_    0.734234 0.426828 0.341181 0.000000
H299  H     H_    0.813166 0.437674 0.432405 0.000000
H300  H     H_    0.871407 0.530977 0.493711 0.000000
C271  C     C_3   0.737573 0.265719 0.699282 0.000000
N91   N     N_3   0.728579 0.305380 0.645549 0.000000
C272  C     C_3   0.687434 0.324014 0.664802 0.000000
C273  C     C_R   0.670591 0.311116 0.742852 0.000000
N92   N     N_R   0.695688 0.357231 0.791745 0.000000
C274  C     C_R   0.689272 0.328983 0.858158 0.000000
C275  C     C_R   0.709917 0.352814 0.927503 0.000000
C276  C     C_R   0.701497 0.315593 0.988589 0.000000
C277  C     C_R   0.673320 0.256039 0.979378 0.000000
C278  C     C_R   0.651780 0.232608 0.909181 0.000000
C279  C     C_R   0.658766 0.269951 0.849187 0.000000
N93   N     N_R   0.640795 0.255975 0.776541 0.000000
H301  H     H_    0.754939 0.286111 0.754574 0.000000
H302  H     H_    0.698299 0.224953 0.702927 0.000000
H303  H     H_    0.769246 0.254806 0.678962 0.000000
H304  H     H_    0.715260 0.285458 0.593671 0.000000
H305  H     H_    0.709584 0.371593 0.662648 0.000000
H306  H     H_    0.651780 0.311782 0.622817 0.000000
H307  H     H_    0.732958 0.398970 0.934294 0.000000
H308  H     H_    0.717723 0.332997 0.043888 0.000000
H309  H     H_    0.667850 0.227672 0.027634 0.000000
H310  H     H_    0.629742 0.186381 0.902342 0.000000
C280  C     C_3   0.037002 0.007428 0.561813 0.000000
N94   N     N_3   0.061468 0.995987 0.632923 0.000000
C281  C     C_3   0.031016 0.934799 0.650980 0.000000
C282  C     C_R   0.047445 0.923781 0.728517 0.000000
N95   N     N_R   0.100624 0.959041 0.761112 0.000000
C283  C     C_R   0.089453 0.960635 0.832424 0.000000
C284  C     C_R   0.125789 0.993194 0.889626 0.000000
C285  C     C_R   0.104875 0.988511 0.958518 0.000000
C286  C     C_R   0.049047 0.950350 0.969475 0.000000
C287  C     C_R   0.012809 0.917551 0.911039 0.000000
C288  C     C_R   0.034010 0.924426 0.842771 0.000000
N96   N     N_R   0.005995 0.899402 0.778177 0.000000
H311  H     H_    0.999395 0.012663 0.570609 0.000000
H312  H     H_    0.068419 0.047846 0.536515 0.000000
H313  H     H_    0.024428 0.971329 0.523155 0.000000
H314  H     H_    0.053778 0.018164 0.673202 0.000000
H315  H     H_    0.986697 0.924659 0.650610 0.000000
H316  H     H_    0.037224 0.907545 0.611880 0.000000
H317  H     H_    0.168379 0.023234 0.880018 0.000000
H318  H     H_    0.132147 0.014952 0.004211 0.000000
H319  H     H_    0.033628 0.946865 0.023802 0.000000
H320  H     H_    0.969308 0.888312 0.918877 0.000000

loop_
_geom_bond_atom_site_label_1
_geom_bond_atom_site_label_2
_geom_bond_distance
_geom_bond_site_symmetry_2
_ccdc_geom_bond_type
Zn1   N2    2.026 .      S
Zn1   N6    2.222 .      S
Zn1   N45   2.117 .      S
Zn1   N77   2.124 .      S
Zn2   N8    2.172 .      S
Zn2   N11   1.990 .      S
Zn2   N47   2.210 .      S
Zn2   N93   2.260 .      S
Zn3   N3    2.015 .      S
Zn3   N9    2.214 1_565  S
Zn3   N20   2.278 .      S
Zn3   N56   2.199 .      S
Zn4   N15   2.164 1_565  S
Zn4   N17   2.078 .      S
Zn4   N51   2.070 .      S
Zn4   N95   2.127 .      S
Zn5   N12   2.015 .      S
Zn5   N14   2.210 .      S
Zn5   N26   2.207 .      S
Zn5   N69   2.165 .      S
Zn6   N5    2.163 .      S
Zn6   N18   2.075 .      S
Zn6   N30   2.229 .      S
Zn6   N86   2.121 .      S
Zn7   N41   2.159 .      S
Zn7   N63   2.187 .      S
Zn7   N74   2.232 .      S
Zn7   N89   2.141 .      S
Zn8   N21   2.148 .      S
Zn8   N23   2.133 .      S
Zn8   N27   2.249 1_565  S
Zn8   N29   2.202 .      S
Zn9   N32   2.193 .      S
Zn9   N35   2.252 .      S
Zn9   N38   2.223 .      S
Zn9   N42   2.192 1_556  S
Zn10  N24   2.169 1_556  S
Zn10  N44   2.217 .      S
Zn10  N48   2.167 1_565  S
Zn10  N50   2.077 .      S
Zn11  N53   2.103 .      S
Zn11  N57   2.173 .      S
Zn11  N60   2.028 .      S
Zn11  N62   2.176 .      S
Zn12  N65   2.092 .      S
Zn12  N68   2.187 .      S
Zn12  N72   2.185 .      S
Zn12  N75   2.153 .      S
Zn13  N39   2.070 .      S
Zn13  N59   2.098 .      S
Zn13  N71   2.145 .      S
Zn13  N78   2.131 .      S
Zn14  N80   2.171 .      S
Zn14  N84   2.060 .      S
Zn14  N87   2.134 .      S
Zn14  N90   2.148 .      S
Zn15  N33   2.210 .      S
Zn15  N66   2.010 .      S
Zn15  N81   2.217 .      S
Zn15  N92   2.204 .      S
Zn16  N36   2.195 .      S
Zn16  N54   2.037 .      S
Zn16  N83   2.096 .      S
Zn16  N96   2.094 1_655  S
C1    N1    1.456 .      S
C1    H1    1.110 .      S
C1    H2    1.107 .      S
C1    H3    1.106 .      S
N1    C2    1.445 .      S
N1    H4    1.036 .      S
C2    C3    1.488 .      S
C2    H5    1.094 .      S
C2    H6    1.101 .      S
C5    H7    1.077 .      S
C6    H8    1.081 .      S
C7    H9    1.078 .      S
C8    H10   1.063 .      S
C10   N4    1.451 .      S
C10   H11   1.106 .      S
C10   H12   1.099 .      S
C10   H13   1.071 .      S
N4    C11   1.452 .      S
N4    H14   1.042 .      S
C11   C12   1.460 .      S
C11   H15   1.070 .      S
C11   H16   1.103 .      S
C14   H17   1.076 .      S
C15   H18   1.081 .      S
C16   H19   1.081 .      S
C17   H20   1.064 .      S
C19   N7    1.456 .      S
C19   H21   1.109 .      S
C19   H22   1.109 .      S
C19   H23   1.105 .      S
N7    C20   1.465 .      S
N7    H24   1.042 .      S
C20   C21   1.450 .      S
C20   H25   1.095 .      S
C20   H26   1.079 .      S
C23   H27   1.078 .      S
C24   H28   1.081 .      S
C25   H29   1.080 .      S
C26   H30   1.068 .      S
N9    Zn3   2.214 1_545  S
C28   N10   1.448 .      S
C28   H31   1.104 .      S
C28   H32   1.107 .      S
C28   H33   1.108 .      S
N10   C29   1.444 .      S
N10   H34   1.033 .      S
C29   C30   1.491 .      S
C29   H35   1.100 .      S
C29   H36   1.102 .      S
C32   H37   1.076 .      S
C33   H38   1.080 .      S
C34   H39   1.081 .      S
C35   H40   1.078 .      S
C37   N13   1.416 .      S
C37   H41   1.079 .      S
C37   H42   1.090 .      S
C37   H43   1.064 .      S
N13   C38   1.425 .      S
N13   H44   1.034 .      S
C38   C39   1.429 .      S
C38   H45   1.090 .      S
C38   H46   1.088 .      S
C41   H47   1.079 .      S
C42   H48   1.081 .      S
C43   H49   1.081 .      S
C44   H50   1.078 .      S
N15   Zn4   2.164 1_545  S
C46   N16   1.434 .      S
C46   H51   1.070 .      S
C46   H52   1.102 .      S
C46   H53   1.088 .      S
N16   C47   1.441 .      S
N16   H54   1.033 .      S
C47   C48   1.478 .      S
C47   H55   1.105 .      S
C47   H56   1.101 .      S
C50   H57   1.075 .      S
C51   H58   1.081 .      S
C52   H59   1.081 .      S
C53   H60   1.078 .      S
C55   N19   1.426 .      S
C55   H61   1.095 .      S
C55   H62   1.096 .      S
C55   H63   1.096 .      S
N19   C56   1.423 .      S
N19   H64   1.028 .      S
C56   C57   1.433 .      S
C56   H65   1.106 .      S
C56   H66   1.072 1_565  S
C59   H67   1.059 .      S
C60   H68   1.081 .      S
C61   H69   1.081 .      S
C62   H70   1.072 .      S
H66   C56   1.072 1_545  S
C64   N22   1.456 .      S
C64   H71   1.108 .      S
C64   H72   1.109 .      S
C64   H73   1.109 .      S
N22   C65   1.445 .      S
N22   H74   1.044 .      S
C65   C66   1.495 1_545  S
C65   H75   1.108 .      S
C65   H76   1.099 1_545  S
C66   C65   1.495 1_565  S
C68   H77   1.058 .      S
C69   H78   1.081 .      S
C70   H79   1.078 .      S
C71   H80   1.057 1_565  S
N24   Zn10  2.169 1_554  S
H76   C65   1.099 1_565  S
H80   C71   1.057 1_545  S
C73   N25   1.444 .      S
C73   H81   1.107 .      S
C73   H82   1.109 .      S
C73   H83   1.107 .      S
N25   C74   1.458 .      S
N25   H84   1.043 .      S
C74   C75   1.470 .      S
C74   H85   1.103 .      S
C74   H86   1.093 .      S
C77   H87   1.080 .      S
C78   H88   1.081 .      S
C79   H89   1.081 .      S
C80   H90   1.059 .      S
N27   Zn8   2.249 1_545  S
C82   N28   1.412 .      S
C82   H91   1.074 .      S
C82   H92   1.099 .      S
C82   H93   1.087 .      S
N28   C83   1.419 .      S
N28   H94   1.039 .      S
C83   C84   1.459 .      S
C83   H95   1.073 .      S
C83   H96   1.100 .      S
C86   H97   1.076 .      S
C87   H98   1.081 .      S
C88   H99   1.081 .      S
C89   H100  1.081 .      S
C91   N31   1.454 1_554  S
C91   H101  1.110 .      S
C91   H102  1.109 1_554  S
C91   H103  1.109 .      S
N31   C91   1.454 1_556  S
N31   C92   1.455 .      S
N31   H104  1.044 1_556  S
C92   C93   1.490 .      S
C92   H105  1.100 .      S
C92   H106  1.105 .      S
C95   H107  1.079 .      S
C96   H108  1.081 .      S
C97   H109  1.081 .      S
C98   H110  1.080 .      S
H102  C91   1.109 1_556  S
H104  N31   1.044 1_554  S
C100  N34   1.453 .      S
C100  H111  1.109 .      S
C100  H112  1.108 .      S
C100  H113  1.109 .      S
N34   C101  1.456 1_554  S
N34   H114  1.044 .      S
C101  N34   1.456 1_556  S
C101  C102  1.487 .      S
C101  H115  1.104 .      S
C101  H116  1.099 .      S
C104  H117  1.069 1_556  S
C105  H118  1.081 1_556  S
C106  H119  1.081 .      S
C107  H120  1.078 .      S
H117  C104  1.069 1_554  S
H118  C105  1.081 1_554  S
C109  N37   1.453 .      S
C109  H121  1.109 .      S
C109  H122  1.109 .      S
C109  H123  1.109 .      S
N37   C110  1.454 1_554  S
N37   H124  1.044 1_554  S
C110  N37   1.454 1_556  S
C110  C111  1.485 .      S
C110  H125  1.105 .      S
C110  H126  1.101 .      S
C113  H127  1.048 .      S
C114  H128  1.062 .      S
C115  H129  1.072 .      S
C116  H130  1.064 .      S
H124  N37   1.044 1_556  S
C118  N40   1.454 .      S
C118  H131  1.107 .      S
C118  H132  1.108 .      S
C118  H133  1.108 .      S
N40   C119  1.452 .      S
N40   H134  1.044 .      S
C119  C120  1.486 .      S
C119  H135  1.104 .      S
C119  H136  1.107 .      S
C122  H137  1.076 .      S
C123  H138  1.081 .      S
C124  H139  1.081 .      S
C125  H140  1.073 .      S
N42   Zn9   2.192 1_554  S
C127  N43   1.452 .      S
C127  H141  1.106 .      S
C127  H142  1.109 .      S
C127  H143  1.106 .      S
N43   C128  1.458 .      S
N43   H144  1.044 .      S
C128  C129  1.490 .      S
C128  H145  1.095 .      S
C128  H146  1.081 .      S
C131  H147  1.065 .      S
C132  H148  1.081 .      S
C133  H149  1.081 1_556  S
C134  H150  1.076 .      S
H149  C133  1.081 1_554  S
C136  N46   1.443 .      S
C136  H151  1.097 1_565  S
C136  H152  1.074 .      S
C136  H153  1.073 .      S
N46   C137  1.446 1_565  S
N46   H154  1.041 .      S
C137  N46   1.446 1_545  S
C137  C138  1.458 .      S
C137  H155  1.102 1_545  S
C137  H156  1.104 .      S
C140  H157  1.072 .      S
C141  H158  1.081 .      S
C142  H159  1.081 .      S
C143  H160  1.078 1_556  S
N48   Zn10  2.167 1_545  S
H151  C136  1.097 1_545  S
H155  C137  1.102 1_565  S
H160  C143  1.078 1_554  S
C145  N49   1.455 .      S
C145  H161  1.109 .      S
C145  H162  1.101 .      S
C145  H163  1.109 .      S
N49   C146  1.458 .      S
N49   H164  1.038 .      S
C146  C147  1.501 .      S
C146  H165  1.098 .      S
C146  H166  1.104 .      S
C149  H167  1.078 .      S
C150  H168  1.081 1_556  S
C151  H169  1.074 .      S
C152  H170  1.073 .      S
H168  C150  1.081 1_554  S
C154  N52   1.409 .      S
C154  H171  1.055 .      S
C154  H172  1.093 .      S
C154  H173  1.093 .      S
N52   C155  1.417 .      S
N52   H174  1.040 .      S
C155  C156  1.446 .      S
C155  H175  1.075 .      S
C155  H176  1.108 .      S
C158  H177  1.078 .      S
C159  H178  1.081 .      S
C160  H179  1.081 .      S
C161  H180  1.080 .      S
C163  N55   1.455 .      S
C163  H181  1.109 .      S
C163  H182  1.109 .      S
C163  H183  1.107 .      S
N55   C164  1.450 .      S
N55   H184  1.031 .      S
C164  C165  1.504 .      S
C164  H185  1.099 .      S
C164  H186  1.099 .      S
C167  H187  1.078 1_565  S
C168  H188  1.081 1_565  S
C169  H189  1.081 .      S
C170  H190  1.063 .      S
H187  C167  1.078 1_545  S
H188  C168  1.081 1_545  S
C172  N58   1.450 .      S
C172  H191  1.109 .      S
C172  H192  1.103 .      S
C172  H193  1.106 .      S
N58   C173  1.457 .      S
N58   H194  1.040 .      S
C173  C174  1.525 .      S
C173  H195  1.107 .      S
C173  H196  1.096 .      S
C176  H197  1.052 .      S
C177  H198  1.081 .      S
C178  H199  1.081 .      S
C179  H200  1.075 .      S
C181  N61   1.443 .      S
C181  H201  1.092 .      S
C181  H202  1.094 .      S
C181  H203  1.097 .      S
N61   C182  1.445 .      S
N61   H204  1.038 .      S
C182  C183  1.433 .      S
C182  H205  1.063 .      S
C182  H206  1.099 .      S
C185  H207  1.078 .      S
C186  H208  1.081 .      S
C187  H209  1.081 .      S
C188  H210  1.077 .      S
C190  N64   1.449 .      S
C190  H211  1.104 .      S
C190  H212  1.107 .      S
C190  H213  1.103 .      S
N64   C191  1.449 .      S
N64   H214  1.043 .      S
C191  C192  1.486 .      S
C191  H215  1.093 .      S
C191  H216  1.098 .      S
C194  H217  1.075 .      S
C195  H218  1.080 .      S
C196  H219  1.081 .      S
C197  H220  1.074 .      S
C199  N67   1.442 .      S
C199  H221  1.050 .      S
C199  H222  1.090 .      S
C199  H223  1.088 .      S
N67   C200  1.449 .      S
N67   H224  1.037 .      S
C200  C201  1.433 .      S
C200  H225  1.054 .      S
C200  H226  1.090 .      S
C203  H227  1.078 .      S
C204  H228  1.081 .      S
C205  H229  1.081 .      S
C206  H230  1.072 .      S
C208  N70   1.459 .      S
C208  H231  1.107 .      S
C208  H232  1.110 .      S
C208  H233  1.110 .      S
N70   C209  1.448 .      S
N70   H234  1.042 .      S
C209  C210  1.487 .      S
C209  H235  1.106 .      S
C209  H236  1.098 .      S
C212  H237  1.081 .      S
C213  H238  1.081 .      S
C214  H239  1.081 .      S
C215  H240  1.072 .      S
C217  N73   1.454 .      S
C217  H241  1.109 .      S
C217  H242  1.109 .      S
C217  H243  1.109 .      S
N73   C218  1.455 .      S
N73   H244  1.040 .      S
C218  C219  1.485 .      S
C218  H245  1.102 .      S
C218  H246  1.106 .      S
C221  H247  1.078 .      S
C222  H248  1.081 .      S
C223  H249  1.081 .      S
C224  H250  1.074 .      S
C226  N76   1.425 .      S
C226  H251  1.102 .      S
C226  H252  1.075 .      S
C226  H253  1.054 .      S
N76   C227  1.418 .      S
N76   H254  1.026 .      S
C227  C228  1.435 .      S
C227  H255  1.097 .      S
C227  H256  1.094 .      S
C230  H257  1.079 .      S
C231  H258  1.081 .      S
C232  H259  1.081 .      S
C233  H260  1.068 .      S
C235  N79   1.424 .      S
C235  H261  1.087 .      S
C235  H262  1.080 .      S
C235  H263  1.092 .      S
N79   C236  1.433 .      S
N79   H264  1.037 .      S
C236  C237  1.428 .      S
C236  H265  1.085 .      S
C236  H266  1.102 .      S
C239  H267  1.081 .      S
C240  H268  1.081 .      S
C241  H269  1.081 .      S
C242  H270  1.079 .      S
C244  N82   1.450 .      S
C244  H271  1.104 .      S
C244  H272  1.107 .      S
C244  H273  1.106 .      S
N82   C245  1.450 1_455  S
N82   H274  1.042 .      S
C245  N82   1.450 1_655  S
C245  C246  1.492 .      S
C245  H275  1.102 .      S
C245  H276  1.092 .      S
C248  H277  1.060 .      S
C249  H278  1.081 .      S
C250  H279  1.078 .      S
C251  H280  1.068 .      S
C253  N85   1.455 .      S
C253  H281  1.107 .      S
C253  H282  1.106 .      S
C253  H283  1.107 .      S
N85   C254  1.457 .      S
N85   H284  1.043 1_455  S
C254  C255  1.477 .      S
C254  H285  1.096 .      S
C254  H286  1.105 .      S
C257  H287  1.070 .      S
C258  H288  1.081 .      S
C259  H289  1.080 .      S
C260  H290  1.070 .      S
H284  N85   1.043 1_655  S
C262  N88   1.453 .      S
C262  H291  1.109 .      S
C262  H292  1.108 .      S
C262  H293  1.107 .      S
N88   C263  1.458 .      S
N88   H294  1.036 .      S
C263  C264  1.471 .      S
C263  H295  1.092 .      S
C263  H296  1.093 .      S
C266  H297  1.064 .      S
C267  H298  1.081 .      S
C268  H299  1.081 .      S
C269  H300  1.076 .      S
C271  N91   1.455 .      S
C271  H301  1.109 .      S
C271  H302  1.104 .      S
C271  H303  1.109 .      S
N91   C272  1.469 .      S
N91   H304  1.043 .      S
C272  C273  1.489 .      S
C272  H305  1.101 .      S
C272  H306  1.090 .      S
C275  H307  1.078 .      S
C276  H308  1.081 1_556  S
C277  H309  1.081 1_556  S
C278  H310  1.079 .      S
H308  C276  1.081 1_554  S
H309  C277  1.081 1_554  S
C280  N94   1.455 1_545  S
C280  H311  1.104 1_455  S
C280  H312  1.109 .      S
C280  H313  1.105 1_545  S
N94   C280  1.455 1_565  S
N94   C281  1.452 .      S
N94   H314  1.044 1_565  S
C281  C282  1.470 .      S
C281  H315  1.091 1_455  S
C281  H316  1.103 .      S
C284  H317  1.072 1_565  S
C285  H318  1.081 1_566  S
C286  H319  1.081 1_556  S
C287  H320  1.079 1_455  S
N96   Zn16  2.094 1_455  S
H311  C280  1.104 1_655  S
H313  C280  1.105 1_565  S
H314  N94   1.044 1_545  S
H315  C281  1.091 1_655  S
H317  C284  1.072 1_545  S
H318  C285  1.081 1_544  S
H319  C286  1.081 1_554  S
H320  C287  1.079 1_655  S
C3    N2    1.390 .      A
C3    N3    1.364 .      A
N2    C4    1.349 .      A
C4    C5    1.382 .      A
C4    C9    1.359 .      A
C5    C6    1.385 .      A
C6    C7    1.389 .      A
C7    C8    1.384 .      A
C8    C9    1.371 .      A
C9    N3    1.346 .      A
C12   N5    1.379 .      A
C12   N6    1.399 .      A
N5    C13   1.346 .      A
C13   C14   1.372 .      A
C13   C18   1.379 .      A
C14   C15   1.383 .      A
C15   C16   1.387 .      A
C16   C17   1.383 .      A
C17   C18   1.367 .      A
C18   N6    1.354 .      A
C21   N8    1.407 .      A
C21   N9    1.370 .      A
N8    C22   1.343 .      A
C22   C23   1.371 .      A
C22   C27   1.374 .      A
C23   C24   1.383 .      A
C24   C25   1.389 .      A
C25   C26   1.386 .      A
C26   C27   1.357 .      A
C27   N9    1.352 .      A
C30   N11   1.371 .      A
C30   N12   1.374 .      A
N11   C31   1.346 .      A
C31   C32   1.364 .      A
C31   C36   1.349 .      A
C32   C33   1.387 .      A
C33   C34   1.385 .      A
C34   C35   1.383 .      A
C35   C36   1.370 .      A
C36   N12   1.338 .      A
C39   N14   1.389 .      A
C39   N15   1.382 .      A
N14   C40   1.351 .      A
C40   C41   1.372 .      A
C40   C45   1.385 .      A
C41   C42   1.386 .      A
C42   C43   1.392 .      A
C43   C44   1.386 .      A
C44   C45   1.370 .      A
C45   N15   1.351 .      A
C48   N17   1.384 .      A
C48   N18   1.376 .      A
N17   C49   1.350 .      A
C49   C50   1.372 .      A
C49   C54   1.362 .      A
C50   C51   1.385 .      A
C51   C52   1.387 .      A
C52   C53   1.385 .      A
C53   C54   1.373 .      A
C54   N18   1.344 .      A
C57   N20   1.410 .      A
C57   N21   1.369 .      A
N20   C58   1.367 .      A
C58   C59   1.377 .      A
C58   C63   1.379 .      A
C59   C60   1.382 .      A
C60   C61   1.380 .      A
C61   C62   1.378 .      A
C62   C63   1.371 .      A
C63   N21   1.341 .      A
C66   N23   1.409 .      A
C66   N24   1.386 .      A
N23   C67   1.344 .      A
C67   C68   1.374 .      A
C67   C72   1.346 .      A
C68   C69   1.380 .      A
C69   C70   1.380 .      A
C70   C71   1.379 .      A
C71   C72   1.362 .      A
C72   N24   1.349 .      A
C75   N26   1.412 .      A
C75   N27   1.388 .      A
N26   C76   1.341 .      A
C76   C77   1.373 .      A
C76   C81   1.374 .      A
C77   C78   1.381 .      A
C78   C79   1.387 .      A
C79   C80   1.385 .      A
C80   C81   1.368 .      A
C81   N27   1.362 .      A
C84   N29   1.381 .      A
C84   N30   1.402 .      A
N29   C85   1.352 .      A
C85   C86   1.373 .      A
C85   C90   1.381 .      A
C86   C87   1.386 .      A
C87   C88   1.391 .      A
C88   C89   1.386 .      A
C89   C90   1.376 .      A
C90   N30   1.354 .      A
C93   N32   1.380 .      A
C93   N33   1.412 .      A
N32   C94   1.350 .      A
C94   C95   1.370 1_556  A
C94   C99   1.377 .      A
C95   C94   1.370 1_554  A
C95   C96   1.387 .      A
C96   C97   1.391 1_554  A
C97   C96   1.391 1_556  A
C97   C98   1.384 .      A
C98   C99   1.373 .      A
C99   N33   1.348 .      A
C102  N35   1.406 .      A
C102  N36   1.396 .      A
N35   C103  1.354 .      A
C103  C104  1.370 .      A
C103  C108  1.376 .      A
C104  C105  1.384 .      A
C105  C106  1.387 .      A
C106  C107  1.381 .      A
C107  C108  1.375 .      A
C108  N36   1.345 .      A
C111  N38   1.414 .      A
C111  N39   1.389 .      A
N38   C112  1.336 .      A
C112  C113  1.323 .      A
C112  C117  1.336 .      A
C113  C114  1.374 .      A
C114  C115  1.371 .      A
C115  C116  1.358 .      A
C116  C117  1.358 .      A
C117  N39   1.321 .      A
C120  N41   1.403 .      A
C120  N42   1.401 .      A
N41   C121  1.342 .      A
C121  C122  1.373 .      A
C121  C126  1.367 .      A
C122  C123  1.380 .      A
C123  C124  1.385 .      A
C124  C125  1.386 .      A
C125  C126  1.366 .      A
C126  N42   1.353 .      A
C129  N44   1.410 .      A
C129  N45   1.376 .      A
N44   C130  1.349 .      A
C130  C131  1.365 1_556  A
C130  C135  1.368 .      A
C131  C130  1.365 1_554  A
C131  C132  1.384 .      A
C132  C133  1.389 1_554  A
C133  C132  1.389 1_556  A
C133  C134  1.385 .      A
C134  C135  1.375 .      A
C135  N45   1.346 .      A
C138  N47   1.391 .      A
C138  N48   1.391 .      A
N47   C139  1.366 .      A
C139  C140  1.379 .      A
C139  C144  1.379 .      A
C140  C141  1.385 .      A
C141  C142  1.386 1_556  A
C142  C141  1.386 1_554  A
C142  C143  1.381 1_554  A
C143  C142  1.381 1_556  A
C143  C144  1.373 .      A
C144  N48   1.341 .      A
C147  N50   1.386 1_545  A
C147  N51   1.381 1_545  A
N50   C147  1.386 1_565  A
N50   C148  1.345 .      A
C148  C149  1.375 .      A
C148  C153  1.357 .      A
C149  C150  1.376 .      A
C150  C151  1.380 .      A
C151  C152  1.386 .      A
C152  C153  1.375 .      A
C153  N51   1.351 .      A
N51   C147  1.381 1_565  A
C156  N53   1.384 .      A
C156  N54   1.353 .      A
N53   C157  1.356 .      A
C157  C158  1.372 .      A
C157  C162  1.371 .      A
C158  C159  1.386 1_565  A
C159  C158  1.386 1_545  A
C159  C160  1.391 .      A
C160  C161  1.384 1_545  A
C161  C160  1.384 1_565  A
C161  C162  1.371 .      A
C162  N54   1.343 .      A
C165  N56   1.405 .      A
C165  N57   1.391 .      A
N56   C166  1.346 .      A
C166  C167  1.376 .      A
C166  C171  1.372 .      A
C167  C168  1.383 .      A
C168  C169  1.388 .      A
C169  C170  1.384 .      A
C170  C171  1.370 .      A
C171  N57   1.355 .      A
C174  N59   1.392 .      A
C174  N60   1.389 .      A
N59   C175  1.356 .      A
C175  C176  1.364 .      A
C175  C180  1.348 .      A
C176  C177  1.378 .      A
C177  C178  1.381 .      A
C178  C179  1.376 .      A
C179  C180  1.377 .      A
C180  N60   1.338 .      A
C183  N62   1.395 .      A
C183  N63   1.372 .      A
N62   C184  1.350 .      A
C184  C185  1.374 .      A
C184  C189  1.376 .      A
C185  C186  1.383 .      A
C186  C187  1.389 .      A
C187  C188  1.385 .      A
C188  C189  1.376 .      A
C189  N63   1.355 .      A
C192  N65   1.387 .      A
C192  N66   1.381 .      A
N65   C193  1.344 .      A
C193  C194  1.350 .      A
C193  C198  1.352 .      A
C194  C195  1.384 .      A
C195  C196  1.383 .      A
C196  C197  1.385 .      A
C197  C198  1.376 .      A
C198  N66   1.337 .      A
C201  N68   1.386 .      A
C201  N69   1.386 .      A
N68   C202  1.355 .      A
C202  C203  1.375 .      A
C202  C207  1.381 .      A
C203  C204  1.384 .      A
C204  C205  1.389 .      A
C205  C206  1.384 .      A
C206  C207  1.372 .      A
C207  N69   1.351 .      A
C210  N71   1.365 .      A
C210  N72   1.400 .      A
N71   C211  1.351 .      A
C211  C212  1.377 .      A
C211  C216  1.370 .      A
C212  C213  1.384 .      A
C213  C214  1.391 .      A
C214  C215  1.385 .      A
C215  C216  1.370 .      A
C216  N72   1.349 .      A
C219  N74   1.407 .      A
C219  N75   1.385 .      A
N74   C220  1.345 .      A
C220  C221  1.371 .      A
C220  C225  1.370 .      A
C221  C222  1.383 .      A
C222  C223  1.388 .      A
C223  C224  1.385 .      A
C224  C225  1.374 .      A
C225  N75   1.353 .      A
C228  N77   1.380 .      A
C228  N78   1.367 .      A
N77   C229  1.349 .      A
C229  C230  1.375 .      A
C229  C234  1.375 .      A
C230  C231  1.384 .      A
C231  C232  1.389 .      A
C232  C233  1.384 .      A
C233  C234  1.368 .      A
C234  N78   1.351 .      A
C237  N80   1.377 .      A
C237  N81   1.399 .      A
N80   C238  1.350 .      A
C238  C239  1.373 .      A
C238  C243  1.385 .      A
C239  C240  1.386 .      A
C240  C241  1.392 .      A
C241  C242  1.386 .      A
C242  C243  1.371 .      A
C243  N81   1.353 .      A
C246  N83   1.381 .      A
C246  N84   1.381 .      A
N83   C247  1.358 .      A
C247  C248  1.380 .      A
C247  C252  1.348 .      A
C248  C249  1.379 .      A
C249  C250  1.379 .      A
C250  C251  1.379 .      A
C251  C252  1.365 .      A
C252  N84   1.334 .      A
C255  N86   1.388 .      A
C255  N87   1.388 1_455  A
N86   C256  1.349 .      A
C256  C257  1.372 .      A
C256  C261  1.374 .      A
C257  C258  1.381 .      A
C258  C259  1.385 1_455  A
C259  C258  1.385 1_655  A
C259  C260  1.384 .      A
C260  C261  1.374 1_655  A
C261  C260  1.374 1_455  A
C261  N87   1.353 1_455  A
N87   C255  1.388 1_655  A
N87   C261  1.353 1_655  A
C264  N89   1.374 .      A
C264  N90   1.400 .      A
N89   C265  1.350 .      A
C265  C266  1.369 .      A
C265  C270  1.368 .      A
C266  C267  1.384 .      A
C267  C268  1.385 .      A
C268  C269  1.381 .      A
C269  C270  1.374 .      A
C270  N90   1.348 .      A
C273  N92   1.390 .      A
C273  N93   1.417 .      A
N92   C274  1.347 .      A
C274  C275  1.372 .      A
C274  C279  1.381 .      A
C275  C276  1.384 .      A
C276  C277  1.391 .      A
C277  C278  1.386 .      A
C278  C279  1.375 .      A
C279  N93   1.356 .      A
C282  N95   1.383 .      A
C282  N96   1.385 .      A
N95   C283  1.352 .      A
C283  C284  1.367 .      A
C283  C288  1.371 .      A
C284  C285  1.386 .      A
C285  C286  1.391 .      A
C286  C287  1.384 .      A
C287  C288  1.372 .      A
C288  N96   1.343 .      A
