data_str_m1_o12004_ATO
_audit_creation_date              2015-10-01T06:28:35-0700
_symmetry_space_group_name_H-M    P1
_symmetry_Int_Tables_number       1
_space_group_crystal_system       triclinic
loop_
_symmetry_equiv_pos_as_xyz
  x,y,z
_cell_length_a                    10.2895943
_cell_length_b                    24.7676015
_cell_length_c                    23.2785939
_cell_angle_alpha                 64.7548250
_cell_angle_beta                  98.3909881
_cell_angle_gamma                 81.2029779
_cell_volume                      5152.70376503

loop_
_atom_site_label
_atom_site_type_symbol
_atom_site_description
_atom_site_fract_x
_atom_site_fract_y
_atom_site_fract_z
_atom_type_partial_charge
Zn1   Zn    Zn3+2 0.098782 0.559457 0.516321 0.000000
Zn2   Zn    Zn3+2 0.278155 0.969379 0.372793 0.000000
Zn3   Zn    Zn3+2 0.870397 0.250353 0.967675 0.000000
Zn4   Zn    Zn3+2 0.572143 0.655763 0.968621 0.000000
Zn5   Zn    Zn3+2 0.542170 0.809218 0.124344 0.000000
Zn6   Zn    Zn3+2 0.041010 0.657561 0.820518 0.000000
Zn7   Zn    Zn3+2 0.895293 0.812394 0.507296 0.000000
Zn8   Zn    Zn3+2 0.540428 0.413978 0.204192 0.000000
Zn9   Zn    Zn3+2 0.003648 0.963751 0.110202 0.000000
Zn10  Zn    Zn3+2 0.259324 0.407025 0.824202 0.000000
Zn11  Zn    Zn3+2 0.087257 0.255707 0.229684 0.000000
Zn12  Zn    Zn3+2 0.557468 0.560536 0.363478 0.000000
C1    C     C_3   0.328451 0.716735 0.145216 0.000000
N1    N     N_3   0.401326 0.674219 0.127208 0.000000
C2    C     C_3   0.403752 0.708537 0.059431 0.000000
C3    C     C_R   0.535492 0.725129 0.051219 0.000000
N2    N     N_R   0.572064 0.772166 0.061946 0.000000
C4    C     C_R   0.641212 0.795845 0.015552 0.000000
C5    C     C_R   0.678021 0.851035 0.994656 0.000000
C6    C     C_R   0.727012 0.871894 0.938685 0.000000
C7    C     C_R   0.734204 0.838892 0.903339 0.000000
C8    C     C_R   0.694911 0.783958 0.924383 0.000000
C9    C     C_R   0.651622 0.762734 0.981700 0.000000
N3    N     N_R   0.592607 0.715464 0.005691 0.000000
H1    H     H_    0.326430 0.692176 0.197257 0.000000
H2    H     H_    0.373208 0.756653 0.133673 0.000000
H3    H     H_    0.224220 0.733480 0.116193 0.000000
H4    H     H_    0.338013 0.644801 0.128326 0.000000
H5    H     H_    0.386026 0.680049 0.034391 0.000000
H6    H     H_    0.321785 0.751271 0.035085 0.000000
H7    H     H_    0.658489 0.880524 0.016873 0.000000
H8    H     H_    0.753992 0.915705 0.920691 0.000000
H9    H     H_    0.768321 0.856756 0.858506 0.000000
H10   H     H_    0.694970 0.759911 0.895179 0.000000
C10   C     C_3   0.217547 0.557994 0.057980 0.000000
N4    N     N_3   0.180736 0.601286 0.989507 0.000000
C11   C     C_3   0.296802 0.592979 0.965032 0.000000
C12   C     C_R   0.292719 0.652109 0.910920 0.000000
N5    N     N_R   0.180814 0.685091 0.861188 0.000000
C13   C     C_R   0.203867 0.741535 0.833231 0.000000
C14   C     C_R   0.125312 0.792419 0.778574 0.000000
C15   C     C_R   0.172815 0.845431 0.757395 0.000000
C16   C     C_R   0.296448 0.846022 0.790438 0.000000
C17   C     C_R   0.374838 0.793541 0.844872 0.000000
C18   C     C_R   0.325412 0.741778 0.865013 0.000000
N6    N     N_R   0.384579 0.685378 0.914511 0.000000
H11   H     H_    0.124301 0.551390 0.075458 0.000000
H12   H     H_    0.278827 0.513690 0.065099 0.000000
H13   H     H_    0.277210 0.577518 0.084541 0.000000
H14   H     H_    0.174610 0.644174 0.988271 0.000000
H15   H     H_    0.377165 0.585545 0.004502 0.000000
H16   H     H_    0.302419 0.555122 0.951293 0.000000
H17   H     H_    0.029554 0.791406 0.753313 0.000000
H18   H     H_    0.113423 0.886697 0.714813 0.000000
H19   H     H_    0.331962 0.887780 0.773281 0.000000
H20   H     H_    0.470302 0.793744 0.870685 0.000000
C19   C     C_3   0.996486 0.749939 0.978357 0.000000
N7    N     N_3   0.946942 0.732679 0.928838 0.000000
C20   C     C_3   0.898189 0.677704 0.960390 0.000000
C21   C     C_R   0.827771 0.664706 0.909748 0.000000
N8    N     N_R   0.696377 0.660540 0.906543 0.000000
C22   C     C_R   0.664043 0.657130 0.850387 0.000000
C23   C     C_R   0.541889 0.656675 0.820022 0.000000
C24   C     C_R   0.532812 0.653410 0.762023 0.000000
C25   C     C_R   0.648175 0.641936 0.740938 0.000000
C26   C     C_R   0.771039 0.643462 0.771919 0.000000
C27   C     C_R   0.772321 0.654956 0.824254 0.000000
N9    N     N_R   0.878083 0.661327 0.858922 0.000000
H21   H     H_    0.047938 0.787710 0.957535 0.000000
H22   H     H_    0.908547 0.765916 0.994113 0.000000
H23   H     H_    0.068508 0.709611 0.020184 0.000000
H24   H     H_    0.026581 0.722711 0.909223 0.000000
H25   H     H_    0.976526 0.637827 0.996537 0.000000
H26   H     H_    0.827481 0.684277 0.989528 0.000000
H27   H     H_    0.457830 0.659249 0.841102 0.000000
H28   H     H_    0.435888 0.660540 0.732694 0.000000
H29   H     H_    0.641543 0.633706 0.699188 0.000000
H30   H     H_    0.861541 0.638106 0.754453 0.000000
C28   C     C_3   0.829075 0.568823 0.169813 0.000000
N10   N     N_3   0.689896 0.599040 0.133500 0.000000
C29   C     C_3   0.608605 0.553783 0.149952 0.000000
C30   C     C_R   0.585992 0.532889 0.099991 0.000000
N11   N     N_R   0.597024 0.564325 0.036426 0.000000
C31   C     C_R   0.573086 0.524950 0.012718 0.000000
C32   C     C_R   0.569998 0.533420 0.950868 0.000000
C33   C     C_R   0.521432 0.493149 0.932400 0.000000
C34   C     C_R   0.475989 0.445950 0.975790 0.000000
C35   C     C_R   0.484931 0.435916 0.039746 0.000000
C36   C     C_R   0.535951 0.476360 0.057066 0.000000
N12   N     N_R   0.548104 0.478581 0.114240 0.000000
H31   H     H_    0.874777 0.539971 0.149040 0.000000
H32   H     H_    0.885124 0.604400 0.165415 0.000000
H33   H     H_    0.835647 0.540812 0.222437 0.000000
H34   H     H_    0.690861 0.616390 0.084397 0.000000
H35   H     H_    0.658941 0.513514 0.197472 0.000000
H36   H     H_    0.507387 0.572699 0.152688 0.000000
H37   H     H_    0.608911 0.568870 0.918965 0.000000
H38   H     H_    0.515169 0.499141 0.883434 0.000000
H39   H     H_    0.431792 0.418321 0.957631 0.000000
H40   H     H_    0.444753 0.400397 0.072756 0.000000
C37   C     C_3   0.844660 0.653253 0.261811 0.000000
N13   N     N_3   0.764719 0.610068 0.261725 0.000000
C38   C     C_3   0.639886 0.643773 0.212762 0.000000
C39   C     C_R   0.556753 0.679312 0.236544 0.000000
N14   N     N_R   0.514152 0.650985 0.292953 0.000000
C40   C     C_R   0.476590 0.697018 0.307316 0.000000
C41   C     C_R   0.464411 0.686728 0.368447 0.000000
C42   C     C_R   0.505767 0.725564 0.391285 0.000000
C43   C     C_R   0.546583 0.776606 0.350671 0.000000
C44   C     C_R   0.547045 0.789068 0.286844 0.000000
C45   C     C_R   0.508588 0.749002 0.264997 0.000000
N15   N     N_R   0.547958 0.740817 0.215850 0.000000
H41   H     H_    0.925921 0.630795 0.307335 0.000000
H42   H     H_    0.889513 0.666862 0.218939 0.000000
H43   H     H_    0.780067 0.694299 0.259936 0.000000
H44   H     H_    0.734405 0.594492 0.305400 0.000000
H45   H     H_    0.659709 0.675184 0.165826 0.000000
H46   H     H_    0.585524 0.609827 0.210578 0.000000
H47   H     H_    0.430165 0.647454 0.398299 0.000000
H48   H     H_    0.506134 0.716539 0.441055 0.000000
H49   H     H_    0.581009 0.806266 0.369568 0.000000
H50   H     H_    0.591345 0.825096 0.258602 0.000000
C46   C     C_3   0.228310 0.756927 0.276845 0.000000
N16   N     N_3   0.267552 0.778845 0.215155 0.000000
C47   C     C_3   0.255299 0.843833 0.192997 0.000000
C48   C     C_R   0.252217 0.875522 0.122470 0.000000
N17   N     N_R   0.351137 0.863053 0.092787 0.000000
C49   C     C_R   0.297621 0.903103 0.029438 0.000000
C50   C     C_R   0.352377 0.910015 0.977232 0.000000
C51   C     C_R   0.283529 0.957143 0.916374 0.000000
C52   C     C_R   0.164145 0.996606 0.909457 0.000000
C53   C     C_R   0.109992 0.988154 0.962907 0.000000
C54   C     C_R   0.176676 0.939468 0.022166 0.000000
N18   N     N_R   0.144512 0.922689 0.080419 0.000000
H51   H     H_    0.242537 0.706272 0.299875 0.000000
H52   H     H_    0.285378 0.772343 0.308649 0.000000
H53   H     H_    0.120923 0.778254 0.267286 0.000000
H54   H     H_    0.191811 0.775469 0.182907 0.000000
H55   H     H_    0.157558 0.863444 0.199101 0.000000
H56   H     H_    0.335767 0.851442 0.222762 0.000000
H57   H     H_    0.443967 0.878912 0.983093 0.000000
H58   H     H_    0.323779 0.963759 0.874105 0.000000
H59   H     H_    0.112956 0.034132 0.861919 0.000000
H60   H     H_    0.019941 0.019435 0.957828 0.000000
C55   C     C_3   0.960861 0.733993 0.118508 0.000000
N19   N     N_3   0.840628 0.781045 0.101930 0.000000
C56   C     C_3   0.889256 0.835683 0.090381 0.000000
C57   C     C_R   0.801558 0.874997 0.108832 0.000000
N20   N     N_R   0.676627 0.866557 0.121687 0.000000
C58   C     C_R   0.635069 0.914566 0.132559 0.000000
C59   C     C_R   0.534402 0.920365 0.162222 0.000000
C60   C     C_R   0.547293 0.952694 0.197413 0.000000
C61   C     C_R   0.631353 0.993334 0.185420 0.000000
C62   C     C_R   0.715097 0.995775 0.143835 0.000000
C63   C     C_R   0.726882 0.949742 0.125838 0.000000
N21   N     N_R   0.837361 0.924769 0.113478 0.000000
H61   H     H_    0.019983 0.753117 0.082410 0.000000
H62   H     H_    0.021676 0.723105 0.167086 0.000000
H63   H     H_    0.933480 0.693153 0.116949 0.000000
H64   H     H_    0.802276 0.768913 0.143665 0.000000
H65   H     H_    0.992095 0.823193 0.120958 0.000000
H66   H     H_    0.892539 0.860936 0.038400 0.000000
H67   H     H_    0.464983 0.891620 0.167402 0.000000
H68   H     H_    0.498701 0.942153 0.237067 0.000000
H69   H     H_    0.643833 0.018138 0.213306 0.000000
H70   H     H_    0.787127 0.024169 0.137045 0.000000
C64   C     C_3   0.578713 0.827901 0.628625 0.000000
N22   N     N_3   0.695912 0.808114 0.608542 0.000000
C65   C     C_3   0.767017 0.748148 0.661224 0.000000
C66   C     C_R   0.911995 0.738380 0.661844 0.000000
N23   N     N_R   0.957419 0.774043 0.608127 0.000000
C67   C     C_R   0.082729 0.772278 0.636044 0.000000
C68   C     C_R   0.163268 0.811214 0.610222 0.000000
C69   C     C_R   0.277810 0.808256 0.651462 0.000000
C70   C     C_R   0.320631 0.760824 0.714575 0.000000
C71   C     C_R   0.239523 0.720693 0.738548 0.000000
C72   C     C_R   0.115114 0.732587 0.700510 0.000000
N24   N     N_R   0.009497 0.710572 0.720025 0.000000
H71   H     H_    0.507323 0.867664 0.585949 0.000000
H72   H     H_    0.531574 0.788608 0.649373 0.000000
H73   H     H_    0.610647 0.842197 0.666554 0.000000
H74   H     H_    0.757794 0.838290 0.606237 0.000000
H75   H     H_    0.755387 0.747815 0.707907 0.000000
H76   H     H_    0.727091 0.711809 0.655063 0.000000
H77   H     H_    0.135674 0.846450 0.561415 0.000000
H78   H     H_    0.334528 0.842669 0.633462 0.000000
H79   H     H_    0.415595 0.756492 0.744724 0.000000
H80   H     H_    0.272429 0.679297 0.783285 0.000000
C73   C     C_3   0.401387 0.575264 0.713310 0.000000
N25   N     N_3   0.357531 0.554841 0.773189 0.000000
C74   C     C_3   0.211986 0.572493 0.753822 0.000000
C75   C     C_R   0.165261 0.539257 0.812145 0.000000
N26   N     N_R   0.208387 0.476492 0.849090 0.000000
C76   C     C_R   0.183222 0.468409 0.906944 0.000000
C77   C     C_R   0.208631 0.414692 0.963096 0.000000
C78   C     C_R   0.183370 0.418480 0.018239 0.000000
C79   C     C_R   0.119858 0.473920 0.014198 0.000000
C80   C     C_R   0.080409 0.526547 0.954901 0.000000
C81   C     C_R   0.122309 0.522842 0.903337 0.000000
N27   N     N_R   0.111003 0.568944 0.844057 0.000000
H81   H     H_    0.511359 0.571551 0.723986 0.000000
H82   H     H_    0.376007 0.546321 0.690801 0.000000
H83   H     H_    0.342068 0.622394 0.680138 0.000000
H84   H     H_    0.387211 0.579591 0.797313 0.000000
H85   H     H_    0.176129 0.622645 0.736055 0.000000
H86   H     H_    0.175856 0.560269 0.715442 0.000000
H87   H     H_    0.254064 0.372324 0.964051 0.000000
H88   H     H_    0.211847 0.378555 0.065120 0.000000
H89   H     H_    0.098808 0.474608 0.057904 0.000000
H90   H     H_    0.016227 0.568270 0.948794 0.000000
C82   C     C_3   0.304703 0.673019 0.552764 0.000000
N28   N     N_3   0.207640 0.697541 0.580920 0.000000
C83   C     C_3   0.101991 0.664134 0.589575 0.000000
C84   C     C_R   0.018698 0.683175 0.524204 0.000000
N29   N     N_R   0.947805 0.742843 0.482969 0.000000
C85   C     C_R   0.936531 0.744229 0.423470 0.000000
C86   C     C_R   0.862876 0.788548 0.362917 0.000000
C87   C     C_R   0.870514 0.775217 0.310792 0.000000
C88   C     C_R   0.967567 0.725926 0.317654 0.000000
C89   C     C_R   0.039219 0.682084 0.379176 0.000000
C90   C     C_R   0.005896 0.689856 0.430153 0.000000
N30   N     N_R   0.044442 0.648510 0.492811 0.000000
H91   H     H_    0.390509 0.636987 0.591068 0.000000
H92   H     H_    0.257620 0.652710 0.524007 0.000000
H93   H     H_    0.344907 0.710186 0.519582 0.000000
H94   H     H_    0.160295 0.742733 0.546117 0.000000
H95   H     H_    0.148526 0.614346 0.611775 0.000000
H96   H     H_    0.039944 0.674363 0.620412 0.000000
H97   H     H_    0.794411 0.829248 0.356880 0.000000
H98   H     H_    0.805831 0.804148 0.262909 0.000000
H99   H     H_    0.979705 0.719894 0.275278 0.000000
H100  H     H_    0.106267 0.640243 0.387903 0.000000
C91   C     C_3   0.634395 0.051672 0.302808 0.000000
N31   N     N_3   0.581058 0.998585 0.333882 0.000000
C92   C     C_3   0.673455 0.958929 0.395791 0.000000
C93   C     C_R   0.613055 0.908336 0.432585 0.000000
N32   N     N_R   0.475876 0.912759 0.431261 0.000000
C94   C     C_R   0.481189 0.856173 0.479037 0.000000
C95   C     C_R   0.386776 0.837069 0.513720 0.000000
C96   C     C_R   0.416322 0.776050 0.559883 0.000000
C97   C     C_R   0.535256 0.735641 0.568973 0.000000
C98   C     C_R   0.637191 0.757976 0.541593 0.000000
C99   C     C_R   0.607880 0.819252 0.500104 0.000000
N33   N     N_R   0.694961 0.851102 0.474457 0.000000
H101  H     H_    0.740892 0.036455 0.301939 0.000000
H102  H     H_    0.572736 0.080070 0.252714 0.000000
H103  H     H_    0.626258 0.079127 0.329671 0.000000
H104  H     H_    0.583095 0.974767 0.306301 0.000000
H105  H     H_    0.769314 0.939194 0.388135 0.000000
H106  H     H_    0.698297 0.984662 0.423176 0.000000
H107  H     H_    0.296722 0.868128 0.508716 0.000000
H108  H     H_    0.346792 0.759059 0.589115 0.000000
H109  H     H_    0.550556 0.687387 0.600065 0.000000
H110  H     H_    0.736006 0.728623 0.552380 0.000000
C100  C     C_3   0.303084 0.852339 0.354474 0.000000
N34   N     N_3   0.161069 0.857552 0.351831 0.000000
C101  C     C_3   0.146434 0.835327 0.418214 0.000000
C102  C     C_R   0.085963 0.886001 0.430825 0.000000
N35   N     N_R   0.137155 0.936608 0.420489 0.000000
C103  C     C_R   0.070448 0.961595 0.452196 0.000000
C104  C     C_R   0.096713 0.007949 0.465936 0.000000
C105  C     C_R   0.020559 0.023775 0.503302 0.000000
C106  C     C_R   0.923406 0.992350 0.526917 0.000000
C107  C     C_R   0.903098 0.943782 0.514718 0.000000
C108  C     C_R   0.978268 0.929717 0.476746 0.000000
N36   N     N_R   0.987535 0.880550 0.465279 0.000000
H111  H     H_    0.321835 0.867458 0.305165 0.000000
H112  H     H_    0.339850 0.879448 0.376605 0.000000
H113  H     H_    0.355460 0.804780 0.386518 0.000000
H114  H     H_    0.134512 0.825886 0.336838 0.000000
H115  H     H_    0.079400 0.804616 0.426119 0.000000
H116  H     H_    0.242977 0.808199 0.453371 0.000000
H117  H     H_    0.177438 0.029527 0.450097 0.000000
H118  H     H_    0.038093 0.060234 0.515040 0.000000
H119  H     H_    0.865830 0.004886 0.556538 0.000000
H120  H     H_    0.831967 0.917548 0.535033 0.000000
C109  C     C_3   0.968302 0.419891 0.257230 0.000000
N37   N     N_3   0.051399 0.415239 0.213754 0.000000
C110  C     C_3   0.188162 0.386485 0.253562 0.000000
C111  C     C_R   0.264925 0.356399 0.221948 0.000000
N38   N     N_R   0.230930 0.306601 0.216405 0.000000
C112  C     C_R   0.340629 0.283813 0.202604 0.000000
C113  C     C_R   0.371997 0.228866 0.202446 0.000000
C114  C     C_R   0.491104 0.214953 0.186085 0.000000
C115  C     C_R   0.570088 0.258058 0.167398 0.000000
C116  C     C_R   0.543636 0.308399 0.177113 0.000000
C117  C     C_R   0.429293 0.319684 0.195405 0.000000
N39   N     N_R   0.387773 0.366730 0.206906 0.000000
H121  H     H_    0.864585 0.446744 0.228913 0.000000
H122  H     H_    0.962670 0.373209 0.291878 0.000000
H123  H     H_    0.014964 0.442688 0.283730 0.000000
H124  H     H_    0.050890 0.459661 0.179945 0.000000
H125  H     H_    0.236646 0.420303 0.261424 0.000000
H126  H     H_    0.185691 0.350491 0.302123 0.000000
H127  H     H_    0.304941 0.198593 0.213589 0.000000
H128  H     H_    0.509777 0.173853 0.180940 0.000000
H129  H     H_    0.631014 0.263212 0.132584 0.000000
H130  H     H_    0.599609 0.342131 0.161861 0.000000
C118  C     C_3   0.868104 0.456685 0.052525 0.000000
N40   N     N_3   0.868370 0.434131 0.121347 0.000000
C119  C     C_3   0.819469 0.378837 0.139004 0.000000
C120  C     C_R   0.828017 0.345313 0.210892 0.000000
N41   N     N_R   0.933693 0.296098 0.252374 0.000000
C121  C     C_R   0.896681 0.275104 0.309432 0.000000
C122  C     C_R   0.969229 0.228003 0.368454 0.000000
C123  C     C_R   0.908252 0.213369 0.420725 0.000000
C124  C     C_R   0.778042 0.245762 0.412651 0.000000
C125  C     C_R   0.708086 0.294229 0.352600 0.000000
C126  C     C_R   0.771561 0.308292 0.301954 0.000000
N42   N     N_R   0.725566 0.354174 0.240403 0.000000
H131  H     H_    0.881028 0.504432 0.031776 0.000000
H132  H     H_    0.947290 0.424767 0.047039 0.000000
H133  H     H_    0.771415 0.456563 0.024920 0.000000
H134  H     H_    0.796877 0.466279 0.125032 0.000000
H135  H     H_    0.717269 0.390580 0.109121 0.000000
H136  H     H_    0.882473 0.349285 0.124807 0.000000
H137  H     H_    0.072062 0.205237 0.374209 0.000000
H138  H     H_    0.962431 0.176674 0.468270 0.000000
H139  H     H_    0.731851 0.233566 0.453894 0.000000
H140  H     H_    0.607783 0.320155 0.346037 0.000000
C127  C     C_3   0.933780 0.390174 0.413493 0.000000
N43   N     N_3   0.820023 0.440853 0.367742 0.000000
C128  C     C_3   0.716386 0.414998 0.348001 0.000000
C129  C     C_R   0.592566 0.463529 0.305243 0.000000
N44   N     N_R   0.533363 0.511574 0.315302 0.000000
C130  C     C_R   0.414407 0.534462 0.271472 0.000000
C131  C     C_R   0.314125 0.582477 0.261441 0.000000
C132  C     C_R   0.192423 0.593328 0.219543 0.000000
C133  C     C_R   0.177754 0.558816 0.186164 0.000000
C134  C     C_R   0.285180 0.513283 0.193918 0.000000
C135  C     C_R   0.402100 0.502433 0.237385 0.000000
N45   N     N_R   0.514677 0.458563 0.255758 0.000000
H141  H     H_    0.003653 0.378179 0.386556 0.000000
H142  H     H_    0.989407 0.403616 0.447828 0.000000
H143  H     H_    0.898563 0.348816 0.442117 0.000000
H144  H     H_    0.851298 0.463934 0.325083 0.000000
H145  H     H_    0.755513 0.393888 0.319089 0.000000
H146  H     H_    0.689912 0.379947 0.390581 0.000000
H147  H     H_    0.329826 0.608782 0.287402 0.000000
H148  H     H_    0.106940 0.627280 0.214342 0.000000
H149  H     H_    0.081201 0.567135 0.154951 0.000000
H150  H     H_    0.275784 0.484684 0.169966 0.000000
C136  C     C_3   0.899581 0.896522 0.247223 0.000000
N46   N     N_3   0.932343 0.909748 0.301206 0.000000
C137  C     C_3   0.981682 0.965017 0.276275 0.000000
C138  C     C_R   0.111315 0.955403 0.256077 0.000000
N47   N     N_R   0.221961 0.967940 0.284714 0.000000
C139  C     C_R   0.286236 0.988418 0.236420 0.000000
C140  C     C_R   0.364034 0.030277 0.227795 0.000000
C141  C     C_R   0.404492 0.054874 0.169437 0.000000
C142  C     C_R   0.363398 0.038662 0.120720 0.000000
C143  C     C_R   0.266413 0.005043 0.126360 0.000000
C144  C     C_R   0.228727 0.980508 0.184932 0.000000
N48   N     N_R   0.117200 0.958972 0.195262 0.000000
H151  H     H_    0.967619 0.853984 0.255548 0.000000
H152  H     H_    0.791507 0.896002 0.239258 0.000000
H153  H     H_    0.921937 0.931688 0.205031 0.000000
H154  H     H_    0.841015 0.921558 0.312228 0.000000
H155  H     H_    0.903839 0.003303 0.235145 0.000000
H156  H     H_    0.999812 0.979024 0.315189 0.000000
H157  H     H_    0.380340 0.047595 0.262759 0.000000
H158  H     H_    0.460060 0.090201 0.159295 0.000000
H159  H     H_    0.395334 0.057888 0.075406 0.000000
H160  H     H_    0.216166 0.003107 0.083778 0.000000
C145  C     C_3   0.130574 0.121018 0.188396 0.000000
N49   N     N_3   0.093106 0.131011 0.121485 0.000000
C146  C     C_3   0.984851 0.101914 0.116920 0.000000
C147  C     C_R   0.943922 0.105903 0.051106 0.000000
N50   N     N_R   0.885431 0.159843 0.994516 0.000000
C148  C     C_R   0.827640 0.139791 0.954145 0.000000
C149  C     C_R   0.743928 0.174668 0.892957 0.000000
C150  C     C_R   0.685330 0.143958 0.862497 0.000000
C151  C     C_R   0.708954 0.080103 0.893970 0.000000
C152  C     C_R   0.792657 0.045897 0.956137 0.000000
C153  C     C_R   0.853509 0.077169 0.984398 0.000000
N51   N     N_R   0.932350 0.054068 0.045044 0.000000
H161  H     H_    0.230450 0.130566 0.196943 0.000000
H162  H     H_    0.056502 0.151239 0.197275 0.000000
H163  H     H_    0.131291 0.073960 0.223371 0.000000
H164  H     H_    0.173898 0.106261 0.114293 0.000000
H165  H     H_    0.015266 0.054537 0.152222 0.000000
H166  H     H_    0.903544 0.118388 0.133808 0.000000
H167  H     H_    0.721527 0.224285 0.869999 0.000000
H168  H     H_    0.618383 0.169921 0.814352 0.000000
H169  H     H_    0.660470 0.057015 0.869909 0.000000
H170  H     H_    0.809918 0.996388 0.981330 0.000000
C154  C     C_3   0.389063 0.341150 0.620912 0.000000
N52   N     N_3   0.273973 0.376896 0.629017 0.000000
C155  C     C_3   0.325760 0.409390 0.662834 0.000000
C156  C     C_R   0.215476 0.453973 0.667532 0.000000
N53   N     N_R   0.130235 0.505871 0.614714 0.000000
C157  C     C_R   0.039652 0.524316 0.642844 0.000000
C158  C     C_R   0.931922 0.574253 0.614243 0.000000
C159  C     C_R   0.853073 0.585188 0.653298 0.000000
C160  C     C_R   0.881638 0.545235 0.719549 0.000000
C161  C     C_R   0.992745 0.496007 0.747257 0.000000
C162  C     C_R   0.070158 0.487487 0.707685 0.000000
N54   N     N_R   0.186247 0.445553 0.726434 0.000000
H171  H     H_    0.460099 0.310988 0.669104 0.000000
H172  H     H_    0.353175 0.312360 0.599310 0.000000
H173  H     H_    0.441710 0.372507 0.587824 0.000000
H174  H     H_    0.226066 0.345943 0.659621 0.000000
H175  H     H_    0.377401 0.373381 0.712884 0.000000
H176  H     H_    0.394491 0.434807 0.636161 0.000000
H177  H     H_    0.910862 0.604276 0.563514 0.000000
H178  H     H_    0.769035 0.624939 0.632231 0.000000
H179  H     H_    0.818033 0.552507 0.749803 0.000000
H180  H     H_    0.016077 0.463909 0.797786 0.000000
C163  C     C_3   0.742043 0.454818 0.864875 0.000000
N55   N     N_3   0.826897 0.404677 0.860985 0.000000
C164  C     C_3   0.957908 0.387926 0.905176 0.000000
C165  C     C_R   0.047295 0.337527 0.900242 0.000000
N56   N     N_R   0.014795 0.281768 0.919771 0.000000
C166  C     C_R   0.096799 0.252914 0.896211 0.000000
C167  C     C_R   0.104710 0.195417 0.900684 0.000000
C168  C     C_R   0.199919 0.174768 0.873582 0.000000
C169  C     C_R   0.283802 0.211445 0.843161 0.000000
C170  C     C_R   0.274136 0.269339 0.839456 0.000000
C171  C     C_R   0.179518 0.288707 0.866785 0.000000
N57   N     N_R   0.152209 0.342994 0.868261 0.000000
H181  H     H_    0.644757 0.470970 0.828153 0.000000
H182  H     H_    0.724200 0.438332 0.914757 0.000000
H183  H     H_    0.792404 0.493365 0.854276 0.000000
H184  H     H_    0.840306 0.420869 0.813422 0.000000
H185  H     H_    0.999293 0.428365 0.893772 0.000000
H186  H     H_    0.943553 0.371396 0.955614 0.000000
H187  H     H_    0.039491 0.167203 0.924478 0.000000
H188  H     H_    0.209275 0.129682 0.876135 0.000000
H189  H     H_    0.357311 0.194550 0.822251 0.000000
H190  H     H_    0.338732 0.298130 0.815913 0.000000
C172  C     C_3   0.430310 0.283087 0.052558 0.000000
N58   N     N_3   0.498907 0.315386 0.004204 0.000000
C173  C     C_3   0.483893 0.290498 0.958747 0.000000
C174  C     C_R   0.548241 0.322517 0.907052 0.000000
N59   N     N_R   0.469606 0.369109 0.848972 0.000000
C175  C     C_R   0.559334 0.378513 0.810815 0.000000
C176  C     C_R   0.535971 0.416618 0.745572 0.000000
C177  C     C_R   0.629448 0.404038 0.712833 0.000000
C178  C     C_R   0.749319 0.359831 0.746169 0.000000
C179  C     C_R   0.777751 0.326795 0.812993 0.000000
C180  C     C_R   0.682035 0.338076 0.844407 0.000000
N60   N     N_R   0.682480 0.304265 0.907218 0.000000
H191  H     H_    0.399261 0.310560 0.077290 0.000000
H192  H     H_    0.336979 0.280103 0.028058 0.000000
H193  H     H_    0.490567 0.235358 0.080130 0.000000
H194  H     H_    0.601517 0.305411 0.025527 0.000000
H195  H     H_    0.524362 0.240292 0.982288 0.000000
H196  H     H_    0.375459 0.300696 0.935217 0.000000
H197  H     H_    0.442559 0.450993 0.720712 0.000000
H198  H     H_    0.606489 0.423742 0.660827 0.000000
H199  H     H_    0.817751 0.349082 0.719369 0.000000
H200  H     H_    0.862649 0.287743 0.837036 0.000000
C181  C     C_3   0.839863 0.109771 0.371747 0.000000
N61   N     N_3   0.958194 0.129982 0.351639 0.000000
C182  C     C_3   0.016334 0.096497 0.319275 0.000000
C183  C     C_R   0.151216 0.108005 0.312824 0.000000
N62   N     N_R   0.180167 0.164790 0.297204 0.000000
C184  C     C_R   0.309941 0.148435 0.331352 0.000000
C185  C     C_R   0.387876 0.185484 0.341220 0.000000
C186  C     C_R   0.513940 0.157162 0.384416 0.000000
C187  C     C_R   0.557769 0.093330 0.417875 0.000000
C188  C     C_R   0.477453 0.056942 0.407236 0.000000
C189  C     C_R   0.356129 0.086004 0.362633 0.000000
N63   N     N_R   0.260164 0.059332 0.349568 0.000000
H201  H     H_    0.747388 0.144031 0.336819 0.000000
H202  H     H_    0.842035 0.063518 0.375654 0.000000
H203  H     H_    0.839751 0.107516 0.420324 0.000000
H204  H     H_    0.029481 0.117566 0.394505 0.000000
H205  H     H_    0.033387 0.046907 0.350579 0.000000
H206  H     H_    0.952316 0.105438 0.273106 0.000000
H207  H     H_    0.350834 0.234572 0.319566 0.000000
H208  H     H_    0.576679 0.184959 0.394173 0.000000
H209  H     H_    0.653384 0.072019 0.453681 0.000000
H210  H     H_    0.502962 0.007588 0.436165 0.000000
C190  C     C_3   0.214363 0.195536 0.031169 0.000000
N64   N     N_3   0.217315 0.206625 0.087896 0.000000
C191  C     C_3   0.142216 0.268631 0.069291 0.000000
C192  C     C_R   0.009920 0.266175 0.086132 0.000000
N65   N     N_R   0.906289 0.256600 0.050155 0.000000
C193  C     C_R   0.826765 0.236814 0.091300 0.000000
C194  C     C_R   0.735147 0.203612 0.086009 0.000000
C195  C     C_R   0.703097 0.165313 0.142844 0.000000
C196  C     C_R   0.750627 0.166793 0.201245 0.000000
C197  C     C_R   0.834500 0.205319 0.203568 0.000000
C198  C     C_R   0.876757 0.237101 0.148403 0.000000
N66   N     N_R   0.993135 0.255695 0.147040 0.000000
H211  H     H_    0.242293 0.232203 0.991453 0.000000
H212  H     H_    0.290728 0.152909 0.044860 0.000000
H213  H     H_    0.112921 0.190403 0.014058 0.000000
H214  H     H_    0.317030 0.200010 0.110842 0.000000
H215  H     H_    0.199257 0.286327 0.098507 0.000000
H216  H     H_    0.125233 0.298612 0.016310 0.000000
H217  H     H_    0.716363 0.196133 0.043600 0.000000
H218  H     H_    0.646989 0.132041 0.142025 0.000000
H219  H     H_    0.723209 0.137863 0.244934 0.000000
H220  H     H_    0.874131 0.206907 0.247980 0.000000
C199  C     C_3   0.018187 0.517532 0.352835 0.000000
N67   N     N_3   0.090986 0.534567 0.397639 0.000000
C200  C     C_3   0.204673 0.553597 0.372445 0.000000
C201  C     C_R   0.301067 0.553351 0.426047 0.000000
N68   N     N_R   0.264224 0.550035 0.481812 0.000000
C202  C     C_R   0.382206 0.539976 0.521394 0.000000
C203  C     C_R   0.401124 0.540390 0.580492 0.000000
C204  C     C_R   0.532531 0.530919 0.613141 0.000000
C205  C     C_R   0.639117 0.515292 0.588992 0.000000
C206  C     C_R   0.615100 0.512131 0.530824 0.000000
C207  C     C_R   0.485450 0.532876 0.493492 0.000000
N69   N     N_R   0.438284 0.544939 0.430708 0.000000
H221  H     H_    0.913226 0.523880 0.357322 0.000000
H222  H     H_    0.023529 0.547275 0.302101 0.000000
H223  H     H_    0.064021 0.469141 0.366043 0.000000
H224  H     H_    0.129701 0.494656 0.441956 0.000000
H225  H     H_    0.253288 0.519492 0.358308 0.000000
H226  H     H_    0.167697 0.599649 0.329843 0.000000
H227  H     H_    0.315089 0.549754 0.598831 0.000000
H228  H     H_    0.555452 0.531104 0.659562 0.000000
H229  H     H_    0.741608 0.502491 0.617622 0.000000
H230  H     H_    0.697827 0.496470 0.515945 0.000000
C208  C     C_3   0.689884 0.617898 0.498844 0.000000
N70   N     N_3   0.732425 0.662783 0.446364 0.000000
C209  C     C_3   0.771894 0.639616 0.401674 0.000000
C210  C     C_R   0.824364 0.572566 0.428973 0.000000
N71   N     N_R   0.944501 0.538738 0.473098 0.000000
C211  C     C_R   0.935802 0.480630 0.488638 0.000000
C212  C     C_R   0.002123 0.430346 0.545785 0.000000
C213  C     C_R   0.959453 0.376396 0.562781 0.000000
C214  C     C_R   0.843768 0.375450 0.524608 0.000000
C215  C     C_R   0.770216 0.428627 0.469862 0.000000
C216  C     C_R   0.821457 0.479981 0.451577 0.000000
N72   N     N_R   0.747921 0.537744 0.413909 0.000000
H231  H     H_    0.681006 0.633981 0.536009 0.000000
H232  H     H_    0.588375 0.615864 0.479720 0.000000
H233  H     H_    0.766179 0.573876 0.520992 0.000000
H234  H     H_    0.811339 0.674086 0.467781 0.000000
H235  H     H_    0.685422 0.647821 0.366208 0.000000
H236  H     H_    0.830914 0.666375 0.372024 0.000000
H237  H     H_    0.070019 0.436704 0.580010 0.000000
H238  H     H_    0.009450 0.336387 0.608676 0.000000
H239  H     H_    0.805528 0.334416 0.540434 0.000000
H240  H     H_    0.670354 0.431312 0.445199 0.000000

loop_
_geom_bond_atom_site_label_1
_geom_bond_atom_site_label_2
_geom_bond_distance
_geom_bond_site_symmetry_2
_ccdc_geom_bond_type
Zn1   N30   1.995 .      S
Zn1   N53   2.042 .      S
Zn1   N68   2.009 .      S
Zn1   N71   2.005 1_455  S
Zn2   N32   2.156 .      S
Zn2   N35   2.014 .      S
Zn2   N47   2.064 .      S
Zn2   N63   2.027 1_565  S
Zn3   N50   2.027 .      S
Zn3   N56   2.038 1_655  S
Zn3   N60   2.077 .      S
Zn3   N65   1.978 1_556  S
Zn4   N3    2.026 1_556  S
Zn4   N6    1.980 .      S
Zn4   N8    2.043 .      S
Zn4   N11   2.084 1_556  S
Zn5   N2    2.056 .      S
Zn5   N15   2.065 .      S
Zn5   N17   2.030 .      S
Zn5   N20   2.118 .      S
Zn6   N5    1.971 .      S
Zn6   N9    2.020 1_455  S
Zn6   N24   2.081 .      S
Zn6   N27   2.003 .      S
Zn7   N23   2.072 .      S
Zn7   N29   2.053 .      S
Zn7   N33   2.016 .      S
Zn7   N36   2.015 .      S
Zn8   N12   2.045 .      S
Zn8   N39   2.090 .      S
Zn8   N42   2.034 .      S
Zn8   N45   1.966 .      S
Zn9   N18   2.015 .      S
Zn9   N21   2.085 1_455  S
Zn9   N48   2.093 .      S
Zn9   N51   2.030 1_465  S
Zn10  N26   2.058 .      S
Zn10  N54   2.021 .      S
Zn10  N57   2.064 .      S
Zn10  N59   2.109 .      S
Zn11  N38   2.059 .      S
Zn11  N41   1.997 1_455  S
Zn11  N62   2.083 .      S
Zn11  N66   2.024 1_455  S
Zn12  N14   2.063 .      S
Zn12  N44   1.990 .      S
Zn12  N69   2.072 .      S
Zn12  N72   1.991 .      S
C1    N1    1.440 .      S
C1    H1    1.105 .      S
C1    H2    1.100 .      S
C1    H3    1.092 .      S
N1    C2    1.444 .      S
N1    H4    1.044 .      S
C2    C3    1.491 .      S
C2    H5    1.109 .      S
C2    H6    1.108 .      S
C5    H7    1.072 1_556  S
C6    H8    1.081 .      S
C7    H9    1.081 .      S
C8    H10   1.078 .      S
N3    Zn4   2.026 1_554  S
H7    C5    1.072 1_554  S
C10   N4    1.441 1_554  S
C10   H11   1.104 .      S
C10   H12   1.110 .      S
C10   H13   1.108 .      S
N4    C10   1.441 1_556  S
N4    C11   1.420 .      S
N4    H14   1.042 .      S
C11   C12   1.458 .      S
C11   H15   1.072 1_556  S
C11   H16   1.109 .      S
C14   H17   1.081 .      S
C15   H18   1.081 .      S
C16   H19   1.081 .      S
C17   H20   1.076 .      S
H15   C11   1.072 1_554  S
C19   N7    1.445 .      S
C19   H21   1.109 1_655  S
C19   H22   1.105 .      S
C19   H23   1.108 1_656  S
N7    C20   1.452 .      S
N7    H24   1.041 1_655  S
C20   C21   1.471 .      S
C20   H25   1.088 .      S
C20   H26   1.104 .      S
C23   H27   1.061 .      S
C24   H28   1.066 .      S
C25   H29   1.070 .      S
C26   H30   1.081 .      S
N9    Zn6   2.020 1_655  S
H21   C19   1.109 1_455  S
H23   C19   1.108 1_454  S
H24   N7    1.041 1_455  S
C28   N10   1.451 .      S
C28   H31   1.106 .      S
C28   H32   1.102 .      S
C28   H33   1.106 .      S
N10   C29   1.455 .      S
N10   H34   1.038 .      S
C29   C30   1.465 .      S
C29   H35   1.105 .      S
C29   H36   1.097 .      S
N11   Zn4   2.084 1_554  S
C32   H37   1.059 .      S
C33   H38   1.076 .      S
C34   H39   1.067 .      S
C35   H40   1.078 .      S
C37   N13   1.446 .      S
C37   H41   1.108 .      S
C37   H42   1.104 .      S
C37   H43   1.106 .      S
N13   C38   1.442 .      S
N13   H44   1.037 .      S
C38   C39   1.462 .      S
C38   H45   1.109 .      S
C38   H46   1.093 .      S
C41   H47   1.074 .      S
C42   H48   1.082 .      S
C43   H49   1.081 .      S
C44   H50   1.071 .      S
C46   N16   1.446 .      S
C46   H51   1.109 .      S
C46   H52   1.105 .      S
C46   H53   1.095 .      S
N16   C47   1.443 .      S
N16   H54   1.040 .      S
C47   C48   1.480 .      S
C47   H55   1.104 .      S
C47   H56   1.092 .      S
C50   H57   1.073 .      S
C51   H58   1.081 .      S
C52   H59   1.081 1_565  S
C53   H60   1.069 1_565  S
H59   C52   1.081 1_545  S
H60   C53   1.069 1_545  S
C55   N19   1.440 .      S
C55   H61   1.095 1_655  S
C55   H62   1.107 1_655  S
C55   H63   1.104 .      S
N19   C56   1.446 .      S
N19   H64   1.044 .      S
C56   C57   1.466 .      S
C56   H65   1.102 .      S
C56   H66   1.109 .      S
C59   H67   1.067 .      S
C60   H68   1.067 .      S
C61   H69   1.075 1_565  S
C62   H70   1.081 1_565  S
N21   Zn9   2.085 1_655  S
H61   C55   1.095 1_455  S
H62   C55   1.107 1_455  S
H69   C61   1.075 1_545  S
H70   C62   1.081 1_545  S
C64   N22   1.446 .      S
C64   H71   1.108 .      S
C64   H72   1.108 .      S
C64   H73   1.109 .      S
N22   C65   1.448 .      S
N22   H74   1.043 .      S
C65   C66   1.471 .      S
C65   H75   1.107 .      S
C65   H76   1.098 .      S
C68   H77   1.057 .      S
C69   H78   1.078 .      S
C70   H79   1.078 .      S
C71   H80   1.063 .      S
C73   N25   1.433 .      S
C73   H81   1.103 .      S
C73   H82   1.093 .      S
C73   H83   1.099 .      S
N25   C74   1.439 .      S
N25   H84   1.042 .      S
C74   C75   1.453 .      S
C74   H85   1.108 .      S
C74   H86   1.094 .      S
C77   H87   1.071 .      S
C78   H88   1.073 .      S
C79   H89   1.077 .      S
C80   H90   1.078 .      S
C82   N28   1.463 .      S
C82   H91   1.105 .      S
C82   H92   1.097 .      S
C82   H93   1.104 .      S
N28   C83   1.450 .      S
N28   H94   1.045 .      S
C83   C84   1.468 .      S
C83   H95   1.105 .      S
C83   H96   1.107 .      S
C86   H97   1.079 .      S
C87   H98   1.075 .      S
C88   H99   1.080 .      S
C89   H100  1.073 .      S
C91   N31   1.442 1_545  S
C91   H101  1.109 .      S
C91   H102  1.098 .      S
C91   H103  1.105 .      S
N31   C91   1.442 1_565  S
N31   C92   1.433 .      S
N31   H104  1.041 .      S
C92   C93   1.472 .      S
C92   H105  1.105 .      S
C92   H106  1.108 .      S
C95   H107  1.067 .      S
C96   H108  1.069 .      S
C97   H109  1.072 .      S
C98   H110  1.081 .      S
C100  N34   1.437 .      S
C100  H111  1.102 .      S
C100  H112  1.084 .      S
C100  H113  1.083 .      S
N34   C101  1.443 .      S
N34   H114  1.041 .      S
C101  C102  1.476 .      S
C101  H115  1.080 .      S
C101  H116  1.094 .      S
C104  H117  1.081 .      S
C105  H118  1.081 .      S
C106  H119  1.081 1_565  S
C107  H120  1.080 .      S
H119  C106  1.081 1_545  S
C109  N37   1.446 1_655  S
C109  H121  1.104 .      S
C109  H122  1.109 .      S
C109  H123  1.106 1_655  S
N37   C109  1.446 1_455  S
N37   C110  1.448 .      S
N37   H124  1.043 .      S
C110  C111  1.476 .      S
C110  H125  1.103 .      S
C110  H126  1.109 .      S
C113  H127  1.072 .      S
C114  H128  1.067 .      S
C115  H129  1.073 .      S
C116  H130  1.053 .      S
H123  C109  1.106 1_455  S
C118  N40   1.454 .      S
C118  H131  1.109 .      S
C118  H132  1.107 .      S
C118  H133  1.104 .      S
N40   C119  1.445 .      S
N40   H134  1.039 .      S
C119  C120  1.499 .      S
C119  H135  1.093 .      S
C119  H136  1.090 .      S
N41   Zn11  1.997 1_655  S
C122  H137  1.080 1_655  S
C123  H138  1.081 .      S
C124  H139  1.081 .      S
C125  H140  1.081 .      S
H137  C122  1.080 1_455  S
C127  N43   1.458 .      S
C127  H141  1.106 1_655  S
C127  H142  1.109 .      S
C127  H143  1.107 .      S
N43   C128  1.441 .      S
N43   H144  1.040 .      S
C128  C129  1.483 .      S
C128  H145  1.097 .      S
C128  H146  1.108 .      S
C131  H147  1.075 .      S
C132  H148  1.073 .      S
C133  H149  1.075 .      S
C134  H150  1.079 .      S
H141  C127  1.106 1_455  S
C136  N46   1.436 .      S
C136  H151  1.095 .      S
C136  H152  1.103 .      S
C136  H153  1.083 .      S
N46   C137  1.445 .      S
N46   H154  1.042 .      S
C137  C138  1.496 1_655  S
C137  H155  1.108 1_565  S
C137  H156  1.102 .      S
C138  C137  1.496 1_455  S
C140  H157  1.074 .      S
C141  H158  1.079 .      S
C142  H159  1.081 .      S
C143  H160  1.073 .      S
H155  C137  1.108 1_545  S
C145  N49   1.450 .      S
C145  H161  1.098 .      S
C145  H162  1.090 .      S
C145  H163  1.099 .      S
N49   C146  1.431 1_455  S
N49   H164  1.033 .      S
C146  N49   1.431 1_655  S
C146  C147  1.485 .      S
C146  H165  1.068 1_655  S
C146  H166  1.072 .      S
C149  H167  1.080 .      S
C150  H168  1.081 .      S
C151  H169  1.081 .      S
C152  H170  1.081 1_545  S
N51   Zn9   2.030 1_645  S
H165  C146  1.068 1_455  S
H170  C152  1.081 1_565  S
C154  N52   1.452 .      S
C154  H171  1.109 .      S
C154  H172  1.109 .      S
C154  H173  1.109 .      S
N52   C155  1.449 .      S
N52   H174  1.044 .      S
C155  C156  1.508 .      S
C155  H175  1.106 .      S
C155  H176  1.101 .      S
C158  H177  1.059 .      S
C159  H178  1.078 .      S
C160  H179  1.079 .      S
C161  H180  1.065 1_655  S
H180  C161  1.065 1_455  S
C163  N55   1.449 .      S
C163  H181  1.109 .      S
C163  H182  1.109 .      S
C163  H183  1.108 .      S
N55   C164  1.452 .      S
N55   H184  1.043 .      S
C164  C165  1.490 1_655  S
C164  H185  1.092 .      S
C164  H186  1.108 .      S
C165  C164  1.490 1_455  S
N56   Zn3   2.038 1_455  S
C167  H187  1.080 .      S
C168  H188  1.081 .      S
C169  H189  1.081 .      S
C170  H190  1.081 .      S
C172  N58   1.429 .      S
C172  H191  1.104 .      S
C172  H192  1.073 .      S
C172  H193  1.098 .      S
N58   C173  1.436 1_554  S
N58   H194  1.042 .      S
C173  N58   1.436 1_556  S
C173  C174  1.447 .      S
C173  H195  1.102 .      S
C173  H196  1.107 .      S
C176  H197  1.073 .      S
C177  H198  1.066 .      S
C178  H199  1.081 .      S
C179  H200  1.072 .      S
C181  N61   1.451 .      S
C181  H201  1.107 .      S
C181  H202  1.106 .      S
C181  H203  1.108 .      S
N61   C182  1.458 1_655  S
N61   H204  1.041 1_655  S
C182  N61   1.458 1_455  S
C182  C183  1.475 .      S
C182  H205  1.097 .      S
C182  H206  1.088 1_455  S
C185  H207  1.076 .      S
C186  H208  1.081 .      S
C187  H209  1.081 .      S
C188  H210  1.079 .      S
N63   Zn2   2.027 1_545  S
H204  N61   1.041 1_455  S
H206  C182  1.088 1_655  S
C190  N64   1.456 .      S
C190  H211  1.097 1_554  S
C190  H212  1.104 .      S
C190  H213  1.108 .      S
N64   C191  1.454 .      S
N64   H214  1.039 .      S
C191  C192  1.473 .      S
C191  H215  1.103 .      S
C191  H216  1.104 .      S
N65   Zn3   1.978 1_554  S
C194  H217  1.076 .      S
C195  H218  1.081 .      S
C196  H219  1.073 .      S
C197  H220  1.074 .      S
N66   Zn11  2.024 1_655  S
H211  C190  1.097 1_556  S
C199  N67   1.439 .      S
C199  H221  1.094 1_455  S
C199  H222  1.109 .      S
C199  H223  1.106 .      S
N67   C200  1.438 .      S
N67   H224  1.044 .      S
C200  C201  1.473 .      S
C200  H225  1.108 .      S
C200  H226  1.105 .      S
C203  H227  1.073 .      S
C204  H228  1.074 .      S
C205  H229  1.081 .      S
C206  H230  1.046 .      S
H221  C199  1.094 1_655  S
C208  N70   1.437 .      S
C208  H231  1.105 .      S
C208  H232  1.091 .      S
C208  H233  1.101 .      S
N70   C209  1.462 .      S
N70   H234  1.028 .      S
C209  C210  1.476 .      S
C209  H235  1.050 .      S
C209  H236  1.068 .      S
N71   Zn1   2.005 1_655  S
C212  H237  1.061 .      S
C213  H238  1.081 1_655  S
C214  H239  1.081 .      S
C215  H240  1.079 .      S
H238  C213  1.081 1_455  S
C3    N2    1.384 .      A
C3    N3    1.372 .      A
N2    C4    1.352 .      A
C4    C5    1.376 1_554  A
C4    C9    1.362 1_554  A
C5    C4    1.376 1_556  A
C5    C6    1.384 .      A
C6    C7    1.387 .      A
C7    C8    1.383 .      A
C8    C9    1.379 .      A
C9    C4    1.362 1_556  A
C9    N3    1.345 1_556  A
N3    C9    1.345 1_554  A
C12   N5    1.360 .      A
C12   N6    1.361 .      A
N5    C13   1.343 .      A
C13   C14   1.371 .      A
C13   C18   1.359 .      A
C14   C15   1.386 .      A
C15   C16   1.393 .      A
C16   C17   1.386 .      A
C17   C18   1.371 .      A
C18   N6    1.346 .      A
C21   N8    1.365 .      A
C21   N9    1.387 .      A
N8    C22   1.343 .      A
C22   C23   1.353 .      A
C22   C27   1.350 .      A
C23   C24   1.377 .      A
C24   C25   1.384 .      A
C25   C26   1.375 .      A
C26   C27   1.363 .      A
C27   N9    1.329 .      A
C30   N11   1.379 .      A
C30   N12   1.374 .      A
N11   C31   1.345 .      A
C31   C32   1.358 1_554  A
C31   C36   1.362 .      A
C32   C31   1.358 1_556  A
C32   C33   1.373 .      A
C33   C34   1.380 .      A
C34   C35   1.387 1_556  A
C35   C34   1.387 1_554  A
C35   C36   1.373 .      A
C36   N12   1.344 .      A
C39   N14   1.373 .      A
C39   N15   1.371 .      A
N14   C40   1.338 .      A
C40   C41   1.363 .      A
C40   C45   1.371 .      A
C41   C42   1.373 .      A
C42   C43   1.388 .      A
C43   C44   1.384 .      A
C44   C45   1.375 .      A
C45   N15   1.350 .      A
C48   N17   1.378 .      A
C48   N18   1.365 .      A
N17   C49   1.345 .      A
C49   C50   1.370 1_554  A
C49   C54   1.362 .      A
C50   C49   1.370 1_556  A
C50   C51   1.384 .      A
C51   C52   1.390 .      A
C52   C53   1.385 .      A
C53   C54   1.371 1_556  A
C54   C53   1.371 1_554  A
C54   N18   1.347 .      A
C57   N20   1.388 .      A
C57   N21   1.381 .      A
N20   C58   1.339 .      A
C58   C59   1.348 .      A
C58   C63   1.362 .      A
C59   C60   1.375 .      A
C60   C61   1.392 .      A
C61   C62   1.376 .      A
C62   C63   1.367 .      A
C63   N21   1.338 .      A
C66   N23   1.385 .      A
C66   N24   1.383 1_655  A
N23   C67   1.342 1_655  A
C67   N23   1.342 1_455  A
C67   C68   1.369 .      A
C67   C72   1.351 .      A
C68   C69   1.378 .      A
C69   C70   1.383 .      A
C70   C71   1.383 .      A
C71   C72   1.357 .      A
C72   N24   1.341 .      A
N24   C66   1.383 1_455  A
C75   N26   1.375 .      A
C75   N27   1.366 .      A
N26   C76   1.345 .      A
C76   C77   1.363 .      A
C76   C81   1.359 .      A
C77   C78   1.384 1_556  A
C78   C77   1.384 1_554  A
C78   C79   1.385 .      A
C79   C80   1.382 1_554  A
C80   C79   1.382 1_556  A
C80   C81   1.367 .      A
C81   N27   1.338 .      A
C84   N29   1.376 1_455  A
C84   N30   1.365 .      A
N29   C84   1.376 1_655  A
N29   C85   1.358 .      A
C85   C86   1.371 .      A
C85   C90   1.357 1_655  A
C86   C87   1.396 .      A
C87   C88   1.388 .      A
C88   C89   1.376 1_655  A
C89   C88   1.376 1_455  A
C89   C90   1.362 .      A
C90   C85   1.357 1_455  A
C90   N30   1.329 .      A
C93   N32   1.394 .      A
C93   N33   1.373 .      A
N32   C94   1.354 .      A
C94   C95   1.365 .      A
C94   C99   1.357 .      A
C95   C96   1.382 .      A
C96   C97   1.383 .      A
C97   C98   1.373 .      A
C98   C99   1.361 .      A
C99   N33   1.324 .      A
C102  N35   1.374 .      A
C102  N36   1.369 1_455  A
N35   C103  1.344 .      A
C103  C104  1.370 1_565  A
C103  C108  1.361 1_455  A
C104  C103  1.370 1_545  A
C104  C105  1.386 .      A
C105  C106  1.393 1_445  A
C106  C105  1.393 1_665  A
C106  C107  1.386 .      A
C107  C108  1.371 .      A
C108  C103  1.361 1_655  A
C108  N36   1.346 .      A
N36   C102  1.369 1_655  A
C111  N38   1.384 .      A
C111  N39   1.392 .      A
N38   C112  1.327 .      A
C112  C113  1.351 .      A
C112  C117  1.347 .      A
C113  C114  1.373 .      A
C114  C115  1.401 .      A
C115  C116  1.354 .      A
C116  C117  1.338 .      A
C117  N39   1.326 .      A
C120  N41   1.373 .      A
C120  N42   1.379 .      A
N41   C121  1.341 .      A
C121  C122  1.369 .      A
C121  C126  1.361 .      A
C122  C123  1.386 .      A
C123  C124  1.394 .      A
C124  C125  1.387 .      A
C125  C126  1.372 .      A
C126  N42   1.348 .      A
C129  N44   1.378 .      A
C129  N45   1.366 .      A
N44   C130  1.338 .      A
C130  C131  1.360 .      A
C130  C135  1.347 .      A
C131  C132  1.382 .      A
C132  C133  1.389 .      A
C133  C134  1.383 .      A
C134  C135  1.363 .      A
C135  N45   1.334 .      A
C138  N47   1.378 .      A
C138  N48   1.391 .      A
N47   C139  1.339 .      A
C139  C140  1.371 1_565  A
C139  C144  1.362 .      A
C140  C139  1.371 1_545  A
C140  C141  1.388 .      A
C141  C142  1.388 .      A
C142  C143  1.380 .      A
C143  C144  1.378 1_545  A
C144  C143  1.378 1_565  A
C144  N48   1.348 .      A
C147  N50   1.380 1_554  A
C147  N51   1.371 .      A
N50   C147  1.380 1_556  A
N50   C148  1.345 .      A
C148  C149  1.372 .      A
C148  C153  1.364 .      A
C149  C150  1.386 .      A
C150  C151  1.393 .      A
C151  C152  1.386 .      A
C152  C153  1.374 .      A
C153  N51   1.347 1_556  A
N51   C153  1.347 1_554  A
C156  N53   1.388 .      A
C156  N54   1.382 .      A
N53   C157  1.345 .      A
C157  C158  1.366 1_455  A
C157  C162  1.345 .      A
C158  C157  1.366 1_655  A
C158  C159  1.384 .      A
C159  C160  1.386 .      A
C160  C161  1.377 .      A
C161  C162  1.362 1_655  A
C162  C161  1.362 1_455  A
C162  N54   1.333 .      A
C165  N56   1.370 .      A
C165  N57   1.390 .      A
N56   C166  1.345 .      A
C166  C167  1.372 .      A
C166  C171  1.365 .      A
C167  C168  1.386 .      A
C168  C169  1.393 .      A
C169  C170  1.386 .      A
C170  C171  1.371 .      A
C171  N57   1.347 .      A
C174  N59   1.371 .      A
C174  N60   1.385 .      A
N59   C175  1.351 .      A
C175  C176  1.363 .      A
C175  C180  1.366 .      A
C176  C177  1.388 .      A
C177  C178  1.380 .      A
C178  C179  1.372 .      A
C179  C180  1.372 .      A
C180  N60   1.339 .      A
C183  N62   1.387 .      A
C183  N63   1.367 .      A
N62   C184  1.352 .      A
C184  C185  1.374 .      A
C184  C189  1.364 .      A
C185  C186  1.387 .      A
C186  C187  1.392 .      A
C187  C188  1.384 .      A
C188  C189  1.365 .      A
C189  N63   1.337 .      A
C192  N65   1.371 1_455  A
C192  N66   1.371 1_455  A
N65   C192  1.371 1_655  A
N65   C193  1.333 .      A
C193  C194  1.367 .      A
C193  C198  1.357 .      A
C194  C195  1.383 .      A
C195  C196  1.394 .      A
C196  C197  1.393 .      A
C197  C198  1.365 .      A
C198  N66   1.347 .      A
N66   C192  1.371 1_655  A
C201  N68   1.378 .      A
C201  N69   1.376 .      A
N68   C202  1.330 .      A
C202  C203  1.366 .      A
C202  C207  1.350 .      A
C203  C204  1.383 .      A
C204  C205  1.380 .      A
C205  C206  1.378 .      A
C206  C207  1.367 .      A
C207  N69   1.355 .      A
C210  N71   1.365 .      A
C210  N72   1.368 .      A
N71   C211  1.347 .      A
C211  C212  1.360 1_655  A
C211  C216  1.360 .      A
C212  C211  1.360 1_455  A
C212  C213  1.383 1_455  A
C213  C212  1.383 1_655  A
C213  C214  1.387 .      A
C214  C215  1.383 .      A
C215  C216  1.373 .      A
C216  N72   1.339 .      A
