data_str_m1_o12004_MFS
_audit_creation_date              2015-10-01T06:31:32-0700
_symmetry_space_group_name_H-M    P1
_symmetry_Int_Tables_number       1
_space_group_crystal_system       triclinic
loop_
_symmetry_equiv_pos_as_xyz
  x,y,z
_cell_length_a                    15.7005480
_cell_length_b                    23.7534033
_cell_length_c                    24.7408387
_cell_angle_alpha                 89.1962474
_cell_angle_beta                  73.9996510
_cell_angle_gamma                 101.145494
_cell_volume                      8679.96247453

loop_
_atom_site_label
_atom_site_type_symbol
_atom_site_description
_atom_site_fract_x
_atom_site_fract_y
_atom_site_fract_z
_atom_type_partial_charge
Zn1   Zn    Zn3+2 0.227770 0.048830 0.514470 0.000000
Zn2   Zn    Zn3+2 0.956670 0.248237 0.781741 0.000000
Zn3   Zn    Zn3+2 0.548199 0.423675 0.165668 0.000000
Zn4   Zn    Zn3+2 0.385417 0.663854 0.365270 0.000000
Zn5   Zn    Zn3+2 0.131645 0.422800 0.169947 0.000000
Zn6   Zn    Zn3+2 0.810820 0.060558 0.525429 0.000000
Zn7   Zn    Zn3+2 0.463801 0.305330 0.413827 0.000000
Zn8   Zn    Zn3+2 0.163578 0.430243 0.550857 0.000000
Zn9   Zn    Zn3+2 0.876839 0.325899 0.419323 0.000000
Zn10  Zn    Zn3+2 0.988327 0.906008 0.008444 0.000000
Zn11  Zn    Zn3+2 0.681239 0.033925 0.140463 0.000000
Zn12  Zn    Zn3+2 0.374292 0.913075 0.032462 0.000000
Zn13  Zn    Zn3+2 0.777893 0.678821 0.168707 0.000000
Zn14  Zn    Zn3+2 0.180879 0.046965 0.774039 0.000000
Zn15  Zn    Zn3+2 0.159643 0.687200 0.193924 0.000000
Zn16  Zn    Zn3+2 0.583606 0.060026 0.785888 0.000000
Zn17  Zn    Zn3+2 0.534395 0.920461 0.395128 0.000000
Zn18  Zn    Zn3+2 0.857490 0.300876 0.039220 0.000000
C1    C     C_3   0.939317 0.926292 0.595052 0.000000
N1    N     N_3   0.908587 0.980442 0.600142 0.000000
C2    C     C_3   0.986833 0.027590 0.589973 0.000000
C3    C     C_R   0.014060 0.047664 0.530857 0.000000
N2    N     N_R   0.100208 0.046250 0.497214 0.000000
C4    C     C_R   0.084057 0.037271 0.447021 0.000000
C5    C     C_R   0.143661 0.026748 0.398412 0.000000
C6    C     C_R   0.111808 0.010815 0.353149 0.000000
C7    C     C_R   0.021669 0.007223 0.356743 0.000000
C8    C     C_R   0.961674 0.019325 0.405657 0.000000
C9    C     C_R   0.994856 0.035054 0.450514 0.000000
N3    N     N_R   0.948484 0.045974 0.502726 0.000000
H1    H     H_    0.881102 0.890704 0.596893 0.000000
H2    H     H_    0.991305 0.926998 0.554218 0.000000
H3    H     H_    0.967032 0.918471 0.630496 0.000000
H4    H     H_    0.868331 0.980180 0.641328 0.000000
H5    H     H_    0.970872 0.064625 0.612328 0.000000
H6    H     H_    0.042176 0.013161 0.601501 0.000000
H7    H     H_    0.212989 0.028237 0.396304 0.000000
H8    H     H_    0.157425 0.000996 0.314687 0.000000
H9    H     H_    0.999722 0.995384 0.320352 0.000000
H10   H     H_    0.891501 0.016549 0.407955 0.000000
C10   C     C_3   0.309995 0.109845 0.309167 0.000000
N4    N     N_3   0.337546 0.110238 0.360722 0.000000
C11   C     C_3   0.302063 0.153963 0.393921 0.000000
C12   C     C_R   0.346608 0.165970 0.440007 0.000000
N5    N     N_R   0.325564 0.126010 0.485498 0.000000
C13   C     C_R   0.381955 0.150792 0.514804 0.000000
C14   C     C_R   0.400760 0.128554 0.560835 0.000000
C15   C     C_R   0.441140 0.166701 0.592545 0.000000
C16   C     C_R   0.465795 0.224816 0.575730 0.000000
C17   C     C_R   0.462766 0.243667 0.523584 0.000000
C18   C     C_R   0.423103 0.205143 0.492911 0.000000
N6    N     N_R   0.406491 0.216987 0.444084 0.000000
H11   H     H_    0.320975 0.069847 0.288280 0.000000
H12   H     H_    0.238110 0.112347 0.318301 0.000000
H13   H     H_    0.349064 0.147400 0.280498 0.000000
H14   H     H_    0.406024 0.125939 0.349411 0.000000
H15   H     H_    0.313312 0.191825 0.364921 0.000000
H16   H     H_    0.229751 0.136900 0.413966 0.000000
H17   H     H_    0.374765 0.084949 0.576988 0.000000
H18   H     H_    0.447579 0.151590 0.632355 0.000000
H19   H     H_    0.489232 0.255537 0.602832 0.000000
H20   H     H_    0.486690 0.287889 0.508820 0.000000
C19   C     C_3   0.810276 0.354196 0.644443 0.000000
N7    N     N_3   0.894069 0.374988 0.658517 0.000000
C20   C     C_3   0.945372 0.329778 0.648125 0.000000
C21   C     C_R   0.027705 0.346358 0.666476 0.000000
N8    N     N_R   0.096834 0.394371 0.641141 0.000000
C22   C     C_R   0.133589 0.405842 0.683998 0.000000
C23   C     C_R   0.189043 0.455973 0.689808 0.000000
C24   C     C_R   0.216497 0.461124 0.738369 0.000000
C25   C     C_R   0.185849 0.416975 0.780756 0.000000
C26   C     C_R   0.123666 0.368524 0.776366 0.000000
C27   C     C_R   0.096074 0.364505 0.728461 0.000000
N9    N     N_R   0.027841 0.324843 0.719584 0.000000
H21   H     H_    0.764223 0.384702 0.656886 0.000000
H22   H     H_    0.825635 0.348491 0.599162 0.000000
H23   H     H_    0.776937 0.311272 0.664983 0.000000
H24   H     H_    0.878753 0.381981 0.701302 0.000000
H25   H     H_    0.905573 0.291233 0.675421 0.000000
H26   H     H_    0.960602 0.321474 0.603082 0.000000
H27   H     H_    0.202051 0.492445 0.660456 0.000000
H28   H     H_    0.259863 0.500479 0.744109 0.000000
H29   H     H_    0.207153 0.421753 0.818722 0.000000
H30   H     H_    0.095116 0.336001 0.810534 0.000000
C28   C     C_3   0.276371 0.277156 0.260576 0.000000
N10   N     N_3   0.320339 0.317413 0.211579 0.000000
C29   C     C_3   0.302443 0.373746 0.226387 0.000000
C30   C     C_R   0.334468 0.413670 0.175423 0.000000
N11   N     N_R   0.425595 0.432592 0.146169 0.000000
C31   C     C_R   0.418932 0.455765 0.097505 0.000000
C32   C     C_R   0.487155 0.476142 0.049492 0.000000
C33   C     C_R   0.466326 0.486975 0.000194 0.000000
C34   C     C_R   0.377483 0.474847 0.998862 0.000000
C35   C     C_R   0.309179 0.454686 0.047465 0.000000
C36   C     C_R   0.330663 0.449373 0.097469 0.000000
N12   N     N_R   0.274104 0.426765 0.147976 0.000000
H31   H     H_    0.289714 0.233856 0.250197 0.000000
H32   H     H_    0.302742 0.291277 0.296344 0.000000
H33   H     H_    0.202639 0.274969 0.273130 0.000000
H34   H     H_    0.290752 0.304326 0.179689 0.000000
H35   H     H_    0.228894 0.370282 0.242928 0.000000
H36   H     H_    0.336563 0.390420 0.257795 0.000000
H37   H     H_    0.555245 0.477894 0.048289 0.000000
H38   H     H_    0.519877 0.501106 0.961680 0.000000
H39   H     H_    0.361567 0.479985 0.959496 0.000000
H40   H     H_    0.240833 0.442362 0.045040 0.000000
C37   C     C_3   0.396742 0.486710 0.385700 0.000000
N13   N     N_3   0.388698 0.432246 0.360717 0.000000
C38   C     C_3   0.476892 0.431067 0.325428 0.000000
C39   C     C_R   0.479800 0.376089 0.299116 0.000000
N14   N     N_R   0.473536 0.324857 0.328633 0.000000
C40   C     C_R   0.488193 0.289529 0.286141 0.000000
C41   C     C_R   0.493535 0.233263 0.288092 0.000000
C42   C     C_R   0.511681 0.207007 0.237447 0.000000
C43   C     C_R   0.516015 0.235107 0.187387 0.000000
C44   C     C_R   0.507233 0.290964 0.186826 0.000000
C45   C     C_R   0.501614 0.317964 0.235577 0.000000
N15   N     N_R   0.502892 0.373590 0.241140 0.000000
H41   H     H_    0.376883 0.478522 0.431710 0.000000
H42   H     H_    0.466753 0.512592 0.371595 0.000000
H43   H     H_    0.351987 0.510871 0.372086 0.000000
H44   H     H_    0.353683 0.437701 0.331893 0.000000
H45   H     H_    0.493134 0.465714 0.291705 0.000000
H46   H     H_    0.524652 0.436196 0.350533 0.000000
H47   H     H_    0.485403 0.211055 0.327501 0.000000
H48   H     H_    0.516757 0.162973 0.236248 0.000000
H49   H     H_    0.525333 0.213402 0.148801 0.000000
H50   H     H_    0.501172 0.311598 0.149704 0.000000
C46   C     C_3   0.053953 0.592819 0.489610 0.000000
N16   N     N_3   0.144026 0.602524 0.450329 0.000000
C47   C     C_3   0.175877 0.548879 0.441131 0.000000
C48   C     C_R   0.254435 0.552073 0.462053 0.000000
N17   N     N_R   0.251148 0.518117 0.510185 0.000000
C49   C     C_R   0.330735 0.544764 0.518795 0.000000
C50   C     C_R   0.362113 0.537117 0.564416 0.000000
C51   C     C_R   0.444918 0.569319 0.565562 0.000000
C52   C     C_R   0.495314 0.609284 0.521659 0.000000
C53   C     C_R   0.462503 0.618257 0.476615 0.000000
C54   C     C_R   0.379946 0.586646 0.476077 0.000000
N18   N     N_R   0.334575 0.593437 0.438043 0.000000
H51   H     H_    0.026886 0.632606 0.489865 0.000000
H52   H     H_    0.007045 0.557835 0.477096 0.000000
H53   H     H_    0.058618 0.583614 0.532536 0.000000
H54   H     H_    0.185410 0.627576 0.471111 0.000000
H55   H     H_    0.123367 0.512244 0.463646 0.000000
H56   H     H_    0.199041 0.543175 0.395489 0.000000
H57   H     H_    0.325080 0.506438 0.598469 0.000000
H58   H     H_    0.470600 0.563097 0.601023 0.000000
H59   H     H_    0.559683 0.634403 0.523242 0.000000
H60   H     H_    0.498910 0.651091 0.444084 0.000000
C55   C     C_3   0.056495 0.533662 0.353444 0.000000
N19   N     N_3   0.071693 0.491746 0.311442 0.000000
C56   C     C_3   0.004704 0.440814 0.336494 0.000000
C57   C     C_R   0.008307 0.388466 0.305107 0.000000
N20   N     N_R   0.060287 0.381391 0.250650 0.000000
C58   C     C_R   0.045879 0.323737 0.251144 0.000000
C59   C     C_R   0.087427 0.291539 0.210822 0.000000
C60   C     C_R   0.064295 0.232379 0.219623 0.000000
C61   C     C_R   0.996933 0.207109 0.267309 0.000000
C62   C     C_R   0.955376 0.241072 0.307420 0.000000
C63   C     C_R   0.985349 0.298687 0.299800 0.000000
N21   N     N_R   0.959548 0.338021 0.335436 0.000000
H61   H     H_    0.108228 0.573652 0.340390 0.000000
H62   H     H_    0.988483 0.543150 0.361947 0.000000
H63   H     H_    0.056149 0.514943 0.394017 0.000000
H64   H     H_    0.135823 0.483617 0.307270 0.000000
H65   H     H_    0.012067 0.429808 0.377695 0.000000
H66   H     H_    0.936594 0.448826 0.344281 0.000000
H67   H     H_    0.141027 0.311916 0.175697 0.000000
H68   H     H_    0.096777 0.205859 0.188583 0.000000
H69   H     H_    0.973660 0.160988 0.271354 0.000000
H70   H     H_    0.894758 0.225105 0.340610 0.000000
C64   C     C_3   0.071216 0.157419 0.359170 0.000000
N22   N     N_3   0.016431 0.186381 0.402673 0.000000
C65   C     C_3   0.922827 0.156887 0.415542 0.000000
C66   C     C_R   0.863583 0.184720 0.458917 0.000000
N23   N     N_R   0.808523 0.150212 0.505283 0.000000
C67   C     C_R   0.755072 0.186532 0.531711 0.000000
C68   C     C_R   0.680355 0.176938 0.578846 0.000000
C69   C     C_R   0.646161 0.222948 0.602304 0.000000
C70   C     C_R   0.679676 0.277285 0.576330 0.000000
C71   C     C_R   0.747970 0.285470 0.526775 0.000000
C72   C     C_R   0.783384 0.239726 0.504831 0.000000
N24   N     N_R   0.850136 0.241319 0.457064 0.000000
H71   H     H_    0.108829 0.132837 0.378478 0.000000
H72   H     H_    0.029243 0.127183 0.338693 0.000000
H73   H     H_    0.120543 0.189641 0.327442 0.000000
H74   H     H_    0.022388 0.228148 0.387303 0.000000
H75   H     H_    0.897557 0.148336 0.378567 0.000000
H76   H     H_    0.915725 0.114598 0.435307 0.000000
H77   H     H_    0.648980 0.135632 0.600553 0.000000
H78   H     H_    0.592237 0.216149 0.641249 0.000000
H79   H     H_    0.652605 0.313303 0.594840 0.000000
H80   H     H_    0.775382 0.327533 0.507517 0.000000
C73   C     C_3   0.678998 0.213430 0.326847 0.000000
N25   N     N_3   0.614509 0.231802 0.372590 0.000000
C74   C     C_3   0.660114 0.247118 0.414875 0.000000
C75   C     C_R   0.670108 0.308758 0.417675 0.000000
N26   N     N_R   0.750017 0.345012 0.418373 0.000000
C76   C     C_R   0.724341 0.396268 0.423477 0.000000
C77   C     C_R   0.775429 0.449562 0.426154 0.000000
C78   C     C_R   0.732097 0.495281 0.438160 0.000000
C79   C     C_R   0.640112 0.487866 0.444138 0.000000
C80   C     C_R   0.591324 0.434865 0.436865 0.000000
C81   C     C_R   0.634394 0.389759 0.426935 0.000000
N27   N     N_R   0.597601 0.334850 0.421337 0.000000
H81   H     H_    0.654029 0.210427 0.289236 0.000000
H82   H     H_    0.743385 0.245644 0.316244 0.000000
H83   H     H_    0.687920 0.170672 0.339904 0.000000
H84   H     H_    0.563095 0.196464 0.389088 0.000000
H85   H     H_    0.617581 0.227300 0.456018 0.000000
H86   H     H_    0.726231 0.234110 0.405213 0.000000
H87   H     H_    0.845798 0.455389 0.423894 0.000000
H88   H     H_    0.770223 0.537050 0.442882 0.000000
H89   H     H_    0.607202 0.524088 0.452427 0.000000
H90   H     H_    0.521922 0.429170 0.437504 0.000000
C82   C     C_3   0.187751 0.392518 0.364283 0.000000
N28   N     N_3   0.100681 0.354195 0.380008 0.000000
C83   C     C_3   0.080423 0.338955 0.438983 0.000000
C84   C     C_R   0.028542 0.377149 0.473513 0.000000
N29   N     N_R   0.058682 0.410842 0.512571 0.000000
C85   C     C_R   0.988952 0.436482 0.533575 0.000000
C86   C     C_R   0.983885 0.474931 0.574697 0.000000
C87   C     C_R   0.905638 0.496166 0.592597 0.000000
C88   C     C_R   0.833588 0.476595 0.570997 0.000000
C89   C     C_R   0.838977 0.436049 0.531122 0.000000
C90   C     C_R   0.919765 0.417985 0.510203 0.000000
N30   N     N_R   0.942435 0.379063 0.471413 0.000000
H91   H     H_    0.199716 0.413649 0.322348 0.000000
H92   H     H_    0.191170 0.426698 0.394214 0.000000
H93   H     H_    0.239295 0.366091 0.362157 0.000000
H94   H     H_    0.111359 0.317084 0.359503 0.000000
H95   H     H_    0.040410 0.294682 0.448803 0.000000
H96   H     H_    0.144946 0.345456 0.447467 0.000000
H97   H     H_    0.039738 0.488626 0.592272 0.000000
H98   H     H_    0.899641 0.526814 0.624632 0.000000
H99   H     H_    0.770945 0.491243 0.587301 0.000000
H100  H     H_    0.778207 0.417342 0.520959 0.000000
C91   C     C_3   0.507825 0.410116 0.586539 0.000000
N31   N     N_3   0.457650 0.379332 0.550814 0.000000
C92   C     C_3   0.402376 0.416100 0.536396 0.000000
C93   C     C_R   0.343989 0.386131 0.502936 0.000000
N32   N     N_R   0.252205 0.378034 0.526714 0.000000
C94   C     C_R   0.223037 0.325261 0.514226 0.000000
C95   C     C_R   0.139112 0.291154 0.534946 0.000000
C96   C     C_R   0.119620 0.242351 0.507621 0.000000
C97   C     C_R   0.178961 0.235916 0.456519 0.000000
C98   C     C_R   0.263711 0.271082 0.438213 0.000000
C99   C     C_R   0.287853 0.309448 0.473490 0.000000
N33   N     N_R   0.368373 0.344958 0.465631 0.000000
H101  H     H_    0.552794 0.383449 0.596615 0.000000
H102  H     H_    0.549696 0.451380 0.564542 0.000000
H103  H     H_    0.460286 0.418583 0.626454 0.000000
H104  H     H_    0.412772 0.344436 0.576012 0.000000
H105  H     H_    0.355339 0.423810 0.576425 0.000000
H106  H     H_    0.443925 0.457267 0.514774 0.000000
H107  H     H_    0.091190 0.301849 0.570697 0.000000
H108  H     H_    0.054371 0.213644 0.521748 0.000000
H109  H     H_    0.157527 0.204592 0.430393 0.000000
H110  H     H_    0.308854 0.271398 0.396868 0.000000
C100  C     C_3   0.003901 0.932113 0.176876 0.000000
N34   N     N_3   0.976033 0.940332 0.126508 0.000000
C101  C     C_3   0.899284 0.967996 0.140039 0.000000
C102  C     C_R   0.859641 0.972661 0.092449 0.000000
N35   N     N_R   0.900205 0.957994 0.039493 0.000000
C103  C     C_R   0.855935 0.980549 0.008265 0.000000
C104  C     C_R   0.881803 0.994260 0.951846 0.000000
C105  C     C_R   0.832646 0.024897 0.930084 0.000000
C106  C     C_R   0.756747 0.040184 0.964022 0.000000
C107  C     C_R   0.736821 0.030504 0.020364 0.000000
C108  C     C_R   0.788612 0.002451 0.041205 0.000000
N36   N     N_R   0.786185 0.998155 0.094997 0.000000
H111  H     H_    0.055134 0.904817 0.167575 0.000000
H112  H     H_    0.034164 0.974303 0.189281 0.000000
H113  H     H_    0.945565 0.910261 0.211820 0.000000
H114  H     H_    0.962040 0.901084 0.110031 0.000000
H115  H     H_    0.846525 0.942857 0.175267 0.000000
H116  H     H_    0.926409 0.012284 0.148356 0.000000
H117  H     H_    0.946288 0.993109 0.925831 0.000000
H118  H     H_    0.862129 0.042767 0.887971 0.000000
H119  H     H_    0.717704 0.065772 0.949447 0.000000
H120  H     H_    0.687034 0.049482 0.046717 0.000000
C109  C     C_3   0.219762 0.790455 0.920710 0.000000
N37   N     N_3   0.211822 0.846398 0.942422 0.000000
C110  C     C_3   0.172898 0.840304 0.003328 0.000000
C111  C     C_R   0.174904 0.898390 0.026007 0.000000
N38   N     N_R   0.250429 0.932251 0.035834 0.000000
C112  C     C_R   0.224743 0.983184 0.045587 0.000000
C113  C     C_R   0.278058 0.035672 0.046372 0.000000
C114  C     C_R   0.239690 0.083745 0.054581 0.000000
C115  C     C_R   0.150719 0.079732 0.055221 0.000000
C116  C     C_R   0.100619 0.027813 0.047245 0.000000
C117  C     C_R   0.138274 0.979497 0.044099 0.000000
N39   N     N_R   0.104826 0.926532 0.030722 0.000000
H121  H     H_    0.258220 0.796569 0.875421 0.000000
H122  H     H_    0.255897 0.767666 0.943621 0.000000
H123  H     H_    0.152152 0.764001 0.924686 0.000000
H124  H     H_    0.166298 0.861685 0.925284 0.000000
H125  H     H_    0.101713 0.817182 0.013687 0.000000
H126  H     H_    0.210231 0.815494 0.022928 0.000000
H127  H     H_    0.348277 0.038844 0.041315 0.000000
H128  H     H_    0.279720 0.125048 0.058627 0.000000
H129  H     H_    0.121953 0.117811 0.059017 0.000000
H130  H     H_    0.035081 0.026852 0.041942 0.000000
C118  C     C_3   0.697178 0.836153 0.214490 0.000000
N40   N     N_3   0.726632 0.800289 0.168935 0.000000
C119  C     C_3   0.816217 0.829328 0.137264 0.000000
C120  C     C_R   0.854588 0.795900 0.090943 0.000000
N41   N     N_R   0.828375 0.736912 0.094868 0.000000
C121  C     C_R   0.869788 0.724749 0.042249 0.000000
C122  C     C_R   0.871469 0.671827 0.022537 0.000000
C123  C     C_R   0.918691 0.667483 0.967125 0.000000
C124  C     C_R   0.967959 0.716571 0.933479 0.000000
C125  C     C_R   0.972204 0.769869 0.955669 0.000000
C126  C     C_R   0.920344 0.773244 0.009811 0.000000
N42   N     N_R   0.914767 0.820239 0.039495 0.000000
H131  H     H_    0.663072 0.808315 0.253199 0.000000
H132  H     H_    0.754954 0.864826 0.223511 0.000000
H133  H     H_    0.653097 0.862737 0.203301 0.000000
H134  H     H_    0.685072 0.801206 0.142632 0.000000
H135  H     H_    0.808358 0.868826 0.118155 0.000000
H136  H     H_    0.861352 0.835090 0.164814 0.000000
H137  H     H_    0.840499 0.635448 0.051279 0.000000
H138  H     H_    0.920448 0.625631 0.950763 0.000000
H139  H     H_    0.007548 0.712832 0.890864 0.000000
H140  H     H_    0.017498 0.806978 0.931373 0.000000
C127  C     C_3   0.280893 0.975951 0.895958 0.000000
N43   N     N_3   0.217949 0.006222 0.931876 0.000000
C128  C     C_3   0.147981 0.018529 0.908534 0.000000
C129  C     C_R   0.099207 0.968759 0.887641 0.000000
N44   N     N_R   0.096987 0.972931 0.832592 0.000000
C130  C     C_R   0.026745 0.927598 0.833132 0.000000
C131  C     C_R   0.985833 0.908695 0.791458 0.000000
C132  C     C_R   0.906606 0.867329 0.805596 0.000000
C133  C     C_R   0.865172 0.846493 0.860828 0.000000
C134  C     C_R   0.905823 0.864514 0.901953 0.000000
C135  C     C_R   0.989282 0.901162 0.886345 0.000000
N45   N     N_R   0.034537 0.924852 0.921825 0.000000
H141  H     H_    0.306086 0.949928 0.922819 0.000000
H142  H     H_    0.250537 0.946390 0.869358 0.000000
H143  H     H_    0.339882 0.007670 0.871617 0.000000
H144  H     H_    0.255576 0.046044 0.936957 0.000000
H145  H     H_    0.099426 0.037834 0.940026 0.000000
H146  H     H_    0.178001 0.048796 0.872116 0.000000
H147  H     H_    0.010880 0.924261 0.748081 0.000000
H148  H     H_    0.874649 0.853020 0.773297 0.000000
H149  H     H_    0.800649 0.816621 0.871807 0.000000
H150  H     H_    0.871532 0.850981 0.945568 0.000000
C136  C     C_3   0.536044 0.078357 0.306332 0.000000
N46   N     N_3   0.508642 0.056023 0.258475 0.000000
C137  C     C_3   0.490529 0.993630 0.265330 0.000000
C138  C     C_R   0.575797 0.975454 0.264253 0.000000
N47   N     N_R   0.654815 0.999528 0.223336 0.000000
C139  C     C_R   0.718072 0.990423 0.247795 0.000000
C140  C     C_R   0.805237 0.020319 0.237757 0.000000
C141  C     C_R   0.857654 0.003939 0.269147 0.000000
C142  C     C_R   0.822245 0.957386 0.308528 0.000000
C143  C     C_R   0.730906 0.933968 0.323290 0.000000
C144  C     C_R   0.679804 0.956430 0.295762 0.000000
N48   N     N_R   0.589660 0.949189 0.310676 0.000000
H151  H     H_    0.546723 0.125259 0.304657 0.000000
H152  H     H_    0.481233 0.060559 0.344434 0.000000
H153  H     H_    0.602228 0.069596 0.306722 0.000000
H154  H     H_    0.564457 0.069899 0.223889 0.000000
H155  H     H_    0.438751 0.978811 0.305537 0.000000
H156  H     H_    0.465007 0.975453 0.230642 0.000000
H157  H     H_    0.834685 0.053630 0.204472 0.000000
H158  H     H_    0.928032 0.024889 0.259519 0.000000
H159  H     H_    0.865278 0.940333 0.328690 0.000000
H160  H     H_    0.700388 0.898280 0.354364 0.000000
C145  C     C_3   0.698071 0.204467 0.945788 0.000000
N49   N     N_3   0.701987 0.213473 0.003235 0.000000
C146  C     C_3   0.713394 0.159973 0.026155 0.000000
C147  C     C_R   0.742560 0.168721 0.077952 0.000000
N50   N     N_R   0.794906 0.220694 0.085008 0.000000
C148  C     C_R   0.807924 0.209582 0.134632 0.000000
C149  C     C_R   0.857244 0.245287 0.161661 0.000000
C150  C     C_R   0.854133 0.228395 0.214455 0.000000
C151  C     C_R   0.812996 0.173234 0.237114 0.000000
C152  C     C_R   0.761536 0.138296 0.209644 0.000000
C153  C     C_R   0.764489 0.155835 0.156937 0.000000
N51   N     N_R   0.725818 0.125981 0.121452 0.000000
H161  H     H_    0.650485 0.228571 0.935417 0.000000
H162  H     H_    0.765048 0.219762 0.915567 0.000000
H163  H     H_    0.675766 0.158347 0.940717 0.000000
H164  H     H_    0.639096 0.220529 0.026617 0.000000
H165  H     H_    0.647930 0.129198 0.036395 0.000000
H166  H     H_    0.767514 0.144995 0.994840 0.000000
H167  H     H_    0.895278 0.286356 0.144787 0.000000
H168  H     H_    0.880223 0.260988 0.237854 0.000000
H169  H     H_    0.814363 0.159013 0.278364 0.000000
H170  H     H_    0.717587 0.099908 0.230124 0.000000
C154  C     C_3   0.632229 0.906759 0.984103 0.000000
N52   N     N_3   0.567007 0.876792 0.034584 0.000000
C155  C     C_3   0.575349 0.907080 0.083812 0.000000
C156  C     C_R   0.531400 0.957863 0.089957 0.000000
N53   N     N_R   0.562613 0.004956 0.116560 0.000000
C157  C     C_R   0.491659 0.031329 0.129021 0.000000
C158  C     C_R   0.486837 0.084773 0.148244 0.000000
C159  C     C_R   0.402177 0.098658 0.165543 0.000000
C160  C     C_R   0.325635 0.058435 0.165913 0.000000
C161  C     C_R   0.334266 0.007432 0.141283 0.000000
C162  C     C_R   0.419680 0.998685 0.116652 0.000000
N54   N     N_R   0.444485 0.955287 0.085828 0.000000
H171  H     H_    0.701655 0.910236 0.987692 0.000000
H172  H     H_    0.627125 0.881501 0.947400 0.000000
H173  H     H_    0.617274 0.949379 0.976890 0.000000
H174  H     H_    0.586392 0.837872 0.039710 0.000000
H175  H     H_    0.540459 0.877043 0.121289 0.000000
H176  H     H_    0.646767 0.919187 0.083492 0.000000
H177  H     H_    0.546667 0.114990 0.149745 0.000000
H178  H     H_    0.394110 0.139859 0.181195 0.000000
H179  H     H_    0.259324 0.068204 0.182796 0.000000
H180  H     H_    0.275199 0.977196 0.139430 0.000000
C163  C     C_3   0.214504 0.898857 0.234239 0.000000
N55   N     N_3   0.256306 0.856105 0.200958 0.000000
C164  C     C_3   0.220207 0.845019 0.153008 0.000000
C165  C     C_R   0.269428 0.805729 0.116586 0.000000
N56   N     N_R   0.338201 0.825868 0.067333 0.000000
C166  C     C_R   0.370464 0.777462 0.052894 0.000000
C167  C     C_R   0.445833 0.770671 0.011126 0.000000
C168  C     C_R   0.468588 0.717296 0.006335 0.000000
C169  C     C_R   0.420760 0.672518 0.045792 0.000000
C170  C     C_R   0.348079 0.680626 0.089150 0.000000
C171  C     C_R   0.321735 0.731961 0.090350 0.000000
N57   N     N_R   0.256119 0.747364 0.131237 0.000000
H181  H     H_    0.173437 0.879420 0.276420 0.000000
H182  H     H_    0.268087 0.934174 0.239964 0.000000
H183  H     H_    0.169826 0.916258 0.213772 0.000000
H184  H     H_    0.240509 0.817958 0.226265 0.000000
H185  H     H_    0.147222 0.826061 0.166465 0.000000
H186  H     H_    0.231191 0.885536 0.128176 0.000000
H187  H     H_    0.490075 0.805660 0.983764 0.000000
H188  H     H_    0.527729 0.711575 0.973795 0.000000
H189  H     H_    0.443431 0.632254 0.044324 0.000000
H190  H     H_    0.316510 0.649410 0.123955 0.000000
C172  C     C_3   0.492641 0.126854 0.990792 0.000000
N58   N     N_3   0.520067 0.072694 0.974909 0.000000
C173  C     C_3   0.478393 0.052352 0.931494 0.000000
C174  C     C_R   0.494290 0.995654 0.913638 0.000000
N59   N     N_R   0.540562 0.991218 0.857461 0.000000
C175  C     C_R   0.532511 0.933085 0.857234 0.000000
C176  C     C_R   0.578540 0.900408 0.818720 0.000000
C177  C     C_R   0.549958 0.841192 0.824849 0.000000
C178  C     C_R   0.476140 0.815727 0.868950 0.000000
C179  C     C_R   0.438905 0.848835 0.910878 0.000000
C180  C     C_R   0.476010 0.905999 0.906966 0.000000
N60   N     N_R   0.454589 0.943297 0.946081 0.000000
H191  H     H_    0.524123 0.159934 0.955634 0.000000
H192  H     H_    0.419612 0.123487 0.998383 0.000000
H193  H     H_    0.510690 0.140541 0.029426 0.000000
H194  H     H_    0.495521 0.042923 0.009430 0.000000
H195  H     H_    0.405429 0.052267 0.943611 0.000000
H196  H     H_    0.513822 0.080368 0.893649 0.000000
H197  H     H_    0.636808 0.919341 0.784991 0.000000
H198  H     H_    0.583697 0.814878 0.794129 0.000000
H199  H     H_    0.450818 0.769771 0.872088 0.000000
H200  H     H_    0.383280 0.830512 0.946627 0.000000
C181  C     C_3   0.679353 0.585625 0.989559 0.000000
N61   N     N_3   0.663496 0.590807 0.049923 0.000000
C182  C     C_3   0.702581 0.548506 0.072771 0.000000
C183  C     C_R   0.684679 0.550759 0.134746 0.000000
N62   N     N_R   0.732145 0.592472 0.160926 0.000000
C184  C     C_R   0.716074 0.565873 0.211810 0.000000
C185  C     C_R   0.740026 0.587743 0.257782 0.000000
C186  C     C_R   0.718252 0.551829 0.305579 0.000000
C187  C     C_R   0.686363 0.494571 0.303209 0.000000
C188  C     C_R   0.660866 0.474790 0.257728 0.000000
C189  C     C_R   0.665446 0.512611 0.215529 0.000000
N63   N     N_R   0.637206 0.502034 0.169628 0.000000
H201  H     H_    0.626870 0.602148 0.975620 0.000000
H202  H     H_    0.746481 0.611427 0.966498 0.000000
H203  H     H_    0.676775 0.540224 0.979236 0.000000
H204  H     H_    0.593719 0.581175 0.068769 0.000000
H205  H     H_    0.674415 0.504492 0.065324 0.000000
H206  H     H_    0.775182 0.552470 0.051397 0.000000
H207  H     H_    0.772407 0.631321 0.258677 0.000000
H208  H     H_    0.735088 0.566738 0.342917 0.000000
H209  H     H_    0.684146 0.464180 0.335771 0.000000
H210  H     H_    0.636180 0.430509 0.257279 0.000000
C190  C     C_3   0.714563 0.684478 0.401376 0.000000
N64   N     N_3   0.675023 0.657984 0.358930 0.000000
C191  C     C_3   0.633490 0.699031 0.337125 0.000000
C192  C     C_R   0.600640 0.677744 0.288319 0.000000
N65   N     N_R   0.655500 0.680744 0.232158 0.000000
C193  C     C_R   0.594003 0.674709 0.203890 0.000000
C194  C     C_R   0.614272 0.682015 0.146333 0.000000
C195  C     C_R   0.555870 0.703748 0.124372 0.000000
C196  C     C_R   0.479960 0.716354 0.160927 0.000000
C197  C     C_R   0.454999 0.698676 0.217306 0.000000
C198  C     C_R   0.510071 0.672929 0.238762 0.000000
N66   N     N_R   0.508210 0.667901 0.293972 0.000000
H211  H     H_    0.734132 0.651084 0.424517 0.000000
H212  H     H_    0.775806 0.717590 0.380904 0.000000
H213  H     H_    0.664731 0.704421 0.431641 0.000000
H214  H     H_    0.623185 0.623571 0.379193 0.000000
H215  H     H_    0.574271 0.705899 0.370217 0.000000
H216  H     H_    0.678848 0.741521 0.327221 0.000000
H217  H     H_    0.678104 0.678177 0.118727 0.000000
H218  H     H_    0.575579 0.717545 0.080162 0.000000
H219  H     H_    0.442580 0.743386 0.146168 0.000000
H220  H     H_    0.402068 0.714282 0.244189 0.000000
C199  C     C_3   0.089393 0.681366 0.027863 0.000000
N67   N     N_3   0.085992 0.686999 0.086557 0.000000
C200  C     C_3   0.000249 0.653511 0.121272 0.000000
C201  C     C_R   0.974133 0.681174 0.174710 0.000000
N68   N     N_R   0.037094 0.708315 0.199944 0.000000
C202  C     C_R   0.992143 0.744194 0.232705 0.000000
C203  C     C_R   0.024186 0.787352 0.262506 0.000000
C204  C     C_R   0.965056 0.819607 0.292565 0.000000
C205  C     C_R   0.876528 0.809959 0.289815 0.000000
C206  C     C_R   0.847613 0.768450 0.256695 0.000000
C207  C     C_R   0.905907 0.735690 0.229781 0.000000
N69   N     N_R   0.891214 0.695406 0.194210 0.000000
H221  H     H_    0.160796 0.688625 0.002270 0.000000
H222  H     H_    0.053623 0.638024 0.021494 0.000000
H223  H     H_    0.058740 0.714814 0.014476 0.000000
H224  H     H_    0.086478 0.730331 0.093268 0.000000
H225  H     H_    0.946855 0.653193 0.100542 0.000000
H226  H     H_    0.005768 0.608705 0.128622 0.000000
H227  H     H_    0.092552 0.794212 0.264261 0.000000
H228  H     H_    0.988155 0.852780 0.317747 0.000000
H229  H     H_    0.830572 0.835557 0.312623 0.000000
H230  H     H_    0.782217 0.762374 0.250376 0.000000
C208  C     C_3   0.144136 0.199330 0.626845 0.000000
N70   N     N_3   0.128660 0.137190 0.633728 0.000000
C209  C     C_3   0.208553 0.124333 0.644913 0.000000
C210  C     C_R   0.206915 0.061341 0.644519 0.000000
N71   N     N_R   0.198859 0.027491 0.692084 0.000000
C211  C     C_R   0.188187 0.973988 0.674288 0.000000
C212  C     C_R   0.174223 0.922772 0.704794 0.000000
C213  C     C_R   0.156149 0.872196 0.679148 0.000000
C214  C     C_R   0.152409 0.873873 0.623892 0.000000
C215  C     C_R   0.168566 0.926064 0.593622 0.000000
C216  C     C_R   0.188615 0.975666 0.619473 0.000000
N72   N     N_R   0.204736 0.030558 0.598185 0.000000
H231  H     H_    0.197293 0.214774 0.586947 0.000000
H232  H     H_    0.080176 0.212154 0.626971 0.000000
H233  H     H_    0.167548 0.219113 0.661598 0.000000
H234  H     H_    0.127005 0.122404 0.594481 0.000000
H235  H     H_    0.264429 0.150303 0.613762 0.000000
H236  H     H_    0.216908 0.139676 0.684942 0.000000
H237  H     H_    0.176048 0.921443 0.747838 0.000000
H238  H     H_    0.143736 0.831247 0.702570 0.000000
H239  H     H_    0.135836 0.834247 0.604576 0.000000
H240  H     H_    0.160267 0.927204 0.552271 0.000000
C217  C     C_3   0.277196 0.293401 0.813684 0.000000
N73   N     N_3   0.198879 0.245923 0.825551 0.000000
C218  C     C_3   0.196252 0.221047 0.772591 0.000000
C219  C     C_R   0.113192 0.175274 0.779308 0.000000
N74   N     N_R   0.115346 0.116633 0.777518 0.000000
C220  C     C_R   0.044313 0.096938 0.758746 0.000000
C221  C     C_R   0.017197 0.042284 0.747814 0.000000
C222  C     C_R   0.947495 0.028935 0.724700 0.000000
C223  C     C_R   0.908309 0.072087 0.711482 0.000000
C224  C     C_R   0.941909 0.128915 0.718827 0.000000
C225  C     C_R   0.005316 0.139017 0.746921 0.000000
N75   N     N_R   0.040465 0.188830 0.763937 0.000000
H241  H     H_    0.278662 0.322327 0.777844 0.000000
H242  H     H_    0.274266 0.318775 0.851104 0.000000
H243  H     H_    0.340332 0.276409 0.802995 0.000000
H244  H     H_    0.140541 0.262133 0.841235 0.000000
H245  H     H_    0.195274 0.255152 0.741957 0.000000
H246  H     H_    0.257495 0.203095 0.755232 0.000000
H247  H     H_    0.050736 0.011340 0.756935 0.000000
H248  H     H_    0.922747 0.984827 0.717721 0.000000
H249  H     H_    0.853192 0.059747 0.693899 0.000000
H250  H     H_    0.917264 0.164280 0.706469 0.000000
C226  C     C_3   0.363621 0.908077 0.704133 0.000000
N76   N     N_3   0.397736 0.969940 0.704554 0.000000
C227  C     C_3   0.369935 0.985246 0.762188 0.000000
C228  C     C_R   0.385638 0.048460 0.767696 0.000000
N77   N     N_R   0.457976 0.077828 0.785262 0.000000
C229  C     C_R   0.421823 0.119495 0.814737 0.000000
C230  C     C_R   0.456959 0.156271 0.849573 0.000000
C231  C     C_R   0.402214 0.187822 0.884181 0.000000
C232  C     C_R   0.312985 0.181540 0.884725 0.000000
C233  C     C_R   0.279327 0.146756 0.848186 0.000000
C234  C     C_R   0.335096 0.116328 0.813164 0.000000
N78   N     N_R   0.310039 0.072603 0.783146 0.000000
H251  H     H_    0.340129 0.899386 0.666317 0.000000
H252  H     H_    0.416696 0.883613 0.702184 0.000000
H253  H     H_    0.308773 0.890539 0.742709 0.000000
H254  H     H_    0.365000 0.991410 0.682030 0.000000
H255  H     H_    0.295909 0.970581 0.778516 0.000000
H256  H     H_    0.403365 0.964604 0.788524 0.000000
H257  H     H_    0.524561 0.159915 0.852421 0.000000
H258  H     H_    0.428122 0.215599 0.912752 0.000000
H259  H     H_    0.268839 0.202868 0.914738 0.000000
H260  H     H_    0.208673 0.140704 0.850762 0.000000
C235  C     C_3   0.371291 0.537016 0.235834 0.000000
N79   N     N_3   0.321446 0.568528 0.279050 0.000000
C236  C     C_3   0.280543 0.604768 0.250369 0.000000
C237  C     C_R   0.255750 0.654779 0.282628 0.000000
N80   N     N_R   0.279540 0.670310 0.331168 0.000000
C238  C     C_R   0.218232 0.701983 0.354519 0.000000
C239  C     C_R   0.204186 0.724058 0.406539 0.000000
C240  C     C_R   0.125293 0.743545 0.428452 0.000000
C241  C     C_R   0.061498 0.738595 0.398931 0.000000
C242  C     C_R   0.079420 0.718592 0.345615 0.000000
C243  C     C_R   0.163121 0.706246 0.321244 0.000000
N81   N     N_R   0.192156 0.682549 0.271634 0.000000
H261  H     H_    0.387223 0.500042 0.255548 0.000000
H262  H     H_    0.329505 0.521447 0.207550 0.000000
H263  H     H_    0.435428 0.565104 0.210889 0.000000
H264  H     H_    0.367595 0.593319 0.296549 0.000000
H265  H     H_    0.324443 0.619097 0.207532 0.000000
H266  H     H_    0.217390 0.577808 0.246702 0.000000
H267  H     H_    0.248701 0.722043 0.432032 0.000000
H268  H     H_    0.110493 0.758724 0.470350 0.000000
H269  H     H_    0.996217 0.748837 0.418339 0.000000
H270  H     H_    0.024745 0.707605 0.327347 0.000000
C244  C     C_3   0.259638 0.591918 0.996577 0.000000
N82   N     N_3   0.212685 0.601641 0.054164 0.000000
C245  C     C_3   0.227406 0.559196 0.091104 0.000000
C246  C     C_R   0.167132 0.556298 0.148942 0.000000
N83   N     N_R   0.138004 0.602126 0.177318 0.000000
C247  C     C_R   0.058958 0.575132 0.213320 0.000000
C248  C     C_R   0.004083 0.597262 0.256687 0.000000
C249  C     C_R   0.922702 0.563460 0.285259 0.000000
C250  C     C_R   0.899935 0.507142 0.272283 0.000000
C251  C     C_R   0.961041 0.483512 0.233343 0.000000
C252  C     C_R   0.041329 0.518567 0.205906 0.000000
N84   N     N_R   0.112541 0.504103 0.170250 0.000000
H271  H     H_    0.329312 0.586780 0.993560 0.000000
H272  H     H_    0.222529 0.552626 0.983041 0.000000
H273  H     H_    0.263449 0.629072 0.967830 0.000000
H274  H     H_    0.144083 0.590213 0.057299 0.000000
H275  H     H_    0.201280 0.518060 0.076728 0.000000
H276  H     H_    0.299247 0.563532 0.090009 0.000000
H277  H     H_    0.025253 0.637943 0.271382 0.000000
H278  H     H_    0.882338 0.579643 0.321885 0.000000
H279  H     H_    0.841490 0.478673 0.298802 0.000000
H280  H     H_    0.947582 0.438217 0.227677 0.000000
C253  C     C_3   0.756393 0.999702 0.818870 0.000000
N85   N     N_3   0.717595 0.050012 0.835600 0.000000
C254  C     C_3   0.785493 0.102001 0.832123 0.000000
C255  C     C_R   0.764979 0.147206 0.799931 0.000000
N86   N     N_R   0.680645 0.138757 0.790122 0.000000
C256  C     C_R   0.679213 0.193419 0.774181 0.000000
C257  C     C_R   0.614833 0.213112 0.755483 0.000000
C258  C     C_R   0.616767 0.271585 0.754727 0.000000
C259  C     C_R   0.686229 0.308966 0.768279 0.000000
C260  C     C_R   0.760234 0.289024 0.774905 0.000000
C261  C     C_R   0.756372 0.231055 0.775993 0.000000
N87   N     N_R   0.817493 0.203331 0.786841 0.000000
H281  H     H_    0.717458 0.962598 0.848782 0.000000
H282  H     H_    0.753960 0.990923 0.775491 0.000000
H283  H     H_    0.826420 0.003768 0.820140 0.000000
H284  H     H_    0.678786 0.041936 0.877205 0.000000
H285  H     H_    0.781364 0.117918 0.873960 0.000000
H286  H     H_    0.852693 0.094156 0.815394 0.000000
H287  H     H_    0.562364 0.184196 0.743664 0.000000
H288  H     H_    0.563565 0.288154 0.744040 0.000000
H289  H     H_    0.686557 0.354514 0.768462 0.000000
H290  H     H_    0.818028 0.317818 0.780596 0.000000
C262  C     C_3   0.876457 0.206003 0.609358 0.000000
N88   N     N_3   0.835008 0.145856 0.610834 0.000000
C263  C     C_3   0.760165 0.129318 0.661771 0.000000
C264  C     C_R   0.713030 0.069944 0.658354 0.000000
N89   N     N_R   0.740034 0.040519 0.610849 0.000000
C265  C     C_R   0.693174 0.987082 0.628440 0.000000
C266  C     C_R   0.706302 0.937974 0.602154 0.000000
C267  C     C_R   0.656790 0.885995 0.629649 0.000000
C268  C     C_R   0.590084 0.885076 0.679662 0.000000
C269  C     C_R   0.577274 0.935790 0.704513 0.000000
C270  C     C_R   0.635815 0.985514 0.681145 0.000000
N90   N     N_R   0.647058 0.037230 0.703207 0.000000
H291  H     H_    0.824957 0.230384 0.630131 0.000000
H292  H     H_    0.931962 0.210725 0.629002 0.000000
H293  H     H_    0.907112 0.223590 0.565171 0.000000
H294  H     H_    0.884279 0.122671 0.611196 0.000000
H295  H     H_    0.786402 0.130649 0.697489 0.000000
H296  H     H_    0.712606 0.158517 0.669346 0.000000
H297  H     H_    0.759528 0.939868 0.563905 0.000000
H298  H     H_    0.668826 0.845973 0.612006 0.000000
H299  H     H_    0.548551 0.844418 0.699669 0.000000
H300  H     H_    0.524860 0.935809 0.742554 0.000000
C271  C     C_3   0.496671 0.951761 0.575090 0.000000
N91   N     N_3   0.437848 0.937844 0.538992 0.000000
C272  C     C_3   0.411736 0.989688 0.524773 0.000000
C273  C     C_R   0.379360 0.982524 0.473836 0.000000
N92   N     N_R   0.413325 0.948102 0.432190 0.000000
C274  C     C_R   0.339916 0.927360 0.415352 0.000000
C275  C     C_R   0.335346 0.891219 0.374751 0.000000
C276  C     C_R   0.252088 0.869474 0.366517 0.000000
C277  C     C_R   0.174832 0.884059 0.401071 0.000000
C278  C     C_R   0.181998 0.923101 0.441209 0.000000
C279  C     C_R   0.267370 0.947604 0.444072 0.000000
N93   N     N_R   0.292238 0.987406 0.477651 0.000000
H301  H     H_    0.490861 0.913158 0.602312 0.000000
H302  H     H_    0.567351 0.963840 0.549544 0.000000
H303  H     H_    0.479714 0.988097 0.600343 0.000000
H304  H     H_    0.378856 0.910072 0.562630 0.000000
H305  H     H_    0.355282 0.995653 0.560017 0.000000
H306  H     H_    0.466980 0.026481 0.520236 0.000000
H307  H     H_    0.398258 0.885101 0.349155 0.000000
H308  H     H_    0.246776 0.840192 0.334127 0.000000
H309  H     H_    0.109145 0.865778 0.396008 0.000000
H310  H     H_    0.122055 0.933785 0.468847 0.000000
C280  C     C_3   0.438215 0.831995 0.230985 0.000000
N94   N     N_3   0.411544 0.813428 0.290408 0.000000
C281  C     C_3   0.490541 0.806478 0.307242 0.000000
C282  C     C_R   0.468362 0.793381 0.369023 0.000000
N95   N     N_R   0.494970 0.833243 0.403961 0.000000
C283  C     C_R   0.461981 0.804272 0.454788 0.000000
C284  C     C_R   0.471932 0.823000 0.504889 0.000000
C285  C     C_R   0.425717 0.788387 0.553529 0.000000
C286  C     C_R   0.368529 0.736824 0.550784 0.000000
C287  C     C_R   0.362062 0.717867 0.499162 0.000000
C288  C     C_R   0.414406 0.751044 0.451165 0.000000
N96   N     N_R   0.420510 0.741225 0.396757 0.000000
H311  H     H_    0.388692 0.808266 0.211013 0.000000
H312  H     H_    0.439545 0.878421 0.226092 0.000000
H313  H     H_    0.505723 0.823541 0.209800 0.000000
H314  H     H_    0.362782 0.775950 0.299373 0.000000
H315  H     H_    0.519501 0.772305 0.285268 0.000000
H316  H     H_    0.540689 0.847044 0.296293 0.000000
H317  H     H_    0.517289 0.862679 0.505498 0.000000
H318  H     H_    0.432235 0.802229 0.593890 0.000000
H319  H     H_    0.329042 0.711213 0.589138 0.000000
H320  H     H_    0.314038 0.679559 0.497586 0.000000
C289  C     C_3   0.739030 0.810582 0.491027 0.000000
N97   N     N_3   0.688103 0.853663 0.483536 0.000000
C290  C     C_3   0.752006 0.905889 0.457392 0.000000
C291  C     C_R   0.705074 0.955478 0.458647 0.000000
N98   N     N_R   0.635366 0.956365 0.433696 0.000000
C292  C     C_R   0.631866 0.011729 0.435287 0.000000
C293  C     C_R   0.578618 0.038155 0.414290 0.000000
C294  C     C_R   0.563485 0.090420 0.433209 0.000000
C295  C     C_R   0.596913 0.110750 0.476731 0.000000
C296  C     C_R   0.652048 0.081622 0.494940 0.000000
C297  C     C_R   0.681513 0.039153 0.465983 0.000000
N99   N     N_R   0.732545 0.007165 0.481160 0.000000
H321  H     H_    0.691213 0.769640 0.509048 0.000000
H322  H     H_    0.784550 0.803456 0.449805 0.000000
H323  H     H_    0.779560 0.824774 0.520496 0.000000
H324  H     H_    0.652157 0.862632 0.523332 0.000000
H325  H     H_    0.806033 0.916238 0.478500 0.000000
H326  H     H_    0.786029 0.898232 0.413809 0.000000
H327  H     H_    0.545015 0.015616 0.387363 0.000000
H328  H     H_    0.512608 0.108649 0.421993 0.000000
H329  H     H_    0.572236 0.144305 0.500652 0.000000
H330  H     H_    0.660497 0.083098 0.535733 0.000000
C298  C     C_3   0.872183 0.435116 0.851083 0.000000
N100  N     N_3   0.884778 0.376068 0.848588 0.000000
C299  C     C_3   0.930450 0.365678 0.890133 0.000000
C300  C     C_R   0.919199 0.302638 0.904364 0.000000
N101  N     N_R   0.901843 0.282144 0.959478 0.000000
C301  C     C_R   0.925727 0.231031 0.954501 0.000000
C302  C     C_R   0.946095 0.199475 0.994838 0.000000
C303  C     C_R   0.979028 0.150691 0.979971 0.000000
C304  C     C_R   0.984828 0.132725 0.926772 0.000000
C305  C     C_R   0.961163 0.164439 0.888356 0.000000
C306  C     C_R   0.944091 0.217716 0.900500 0.000000
N102  N     N_R   0.941357 0.262048 0.866049 0.000000
H331  H     H_    0.849861 0.446689 0.814355 0.000000
H332  H     H_    0.819630 0.439635 0.890301 0.000000
H333  H     H_    0.936943 0.464580 0.849727 0.000000
H334  H     H_    0.929625 0.373644 0.809288 0.000000
H335  H     H_    0.003146 0.385646 0.874280 0.000000
H336  H     H_    0.902754 0.386195 0.929305 0.000000
H337  H     H_    0.946601 0.214965 0.035307 0.000000
H338  H     H_    0.998626 0.126251 0.009998 0.000000
H339  H     H_    0.007744 0.093679 0.914836 0.000000
H340  H     H_    0.952863 0.145544 0.851668 0.000000
C307  C     C_3   0.766755 0.361094 0.239312 0.000000
N103  N     N_3   0.734065 0.384202 0.195906 0.000000
C308  C     C_3   0.735263 0.343210 0.153915 0.000000
C309  C     C_R   0.712855 0.364294 0.104415 0.000000
N104  N     N_R   0.633779 0.382653 0.106135 0.000000
C310  C     C_R   0.625159 0.371968 0.054332 0.000000
C311  C     C_R   0.546994 0.364197 0.038176 0.000000
C312  C     C_R   0.550418 0.350426 0.983740 0.000000
C313  C     C_R   0.629712 0.339987 0.948123 0.000000
C314  C     C_R   0.702974 0.338490 0.968425 0.000000
C315  C     C_R   0.699062 0.353997 0.022066 0.000000
N105  N     N_R   0.755613 0.347417 0.052983 0.000000
H341  H     H_    0.765374 0.390851 0.273335 0.000000
H342  H     H_    0.722136 0.319388 0.257649 0.000000
H343  H     H_    0.837076 0.355358 0.221282 0.000000
H344  H     H_    0.778263 0.422322 0.177387 0.000000
H345  H     H_    0.804228 0.337175 0.137385 0.000000
H346  H     H_    0.690032 0.301704 0.172129 0.000000
H347  H     H_    0.483021 0.364910 0.067915 0.000000
H348  H     H_    0.490266 0.345705 0.969621 0.000000
H349  H     H_    0.631625 0.327939 0.905901 0.000000
H350  H     H_    0.759122 0.323054 0.943170 0.000000
C316  C     C_3   0.006304 0.486493 0.012772 0.000000
N106  N     N_3   0.016196 0.482539 0.069405 0.000000
C317  C     C_3   0.950931 0.433061 0.101068 0.000000
C318  C     C_R   0.993319 0.382043 0.096645 0.000000
N107  N     N_R   0.976348 0.342186 0.059086 0.000000
C319  C     C_R   0.055239 0.323851 0.043194 0.000000
C320  C     C_R   0.093092 0.303799 0.992233 0.000000
C321  C     C_R   0.177854 0.291368 0.981841 0.000000
C322  C     C_R   0.225830 0.301247 0.020951 0.000000
C323  C     C_R   0.192882 0.329552 0.067915 0.000000
C324  C     C_R   0.109018 0.343648 0.076459 0.000000
N108  N     N_R   0.072195 0.381214 0.111526 0.000000
H351  H     H_    0.060191 0.521485 0.987063 0.000000
H352  H     H_    0.012740 0.445554 0.992598 0.000000
H353  H     H_    0.939826 0.496959 0.014291 0.000000
H354  H     H_    0.997940 0.518912 0.088597 0.000000
H355  H     H_    0.926952 0.442482 0.144920 0.000000
H356  H     H_    0.892752 0.424197 0.083374 0.000000
H357  H     H_    0.063702 0.303693 0.958127 0.000000
H358  H     H_    0.207950 0.276211 0.941881 0.000000
H359  H     H_    0.292591 0.291549 0.012310 0.000000
H360  H     H_    0.235445 0.341989 0.094676 0.000000

loop_
_geom_bond_atom_site_label_1
_geom_bond_atom_site_label_2
_geom_bond_distance
_geom_bond_site_symmetry_2
_ccdc_geom_bond_type
Zn1   N2    2.150 .      S
Zn1   N5    2.121 .      S
Zn1   N72   2.027 .      S
Zn1   N93   2.021 1_545  S
Zn2   N9    2.261 1_655  S
Zn2   N75   2.081 1_655  S
Zn2   N87   2.207 .      S
Zn2   N102  2.071 .      S
Zn3   N11   2.156 .      S
Zn3   N15   2.070 .      S
Zn3   N63   2.122 .      S
Zn3   N104  2.093 .      S
Zn4   N18   2.299 .      S
Zn4   N66   2.211 .      S
Zn4   N80   2.090 .      S
Zn4   N96   2.043 .      S
Zn5   N12   2.134 .      S
Zn5   N20   2.120 .      S
Zn5   N84   2.011 .      S
Zn5   N108  2.089 .      S
Zn6   N3    2.175 .      S
Zn6   N23   2.190 .      S
Zn6   N89   2.098 .      S
Zn6   N99   2.121 .      S
Zn7   N6    2.151 .      S
Zn7   N14   2.109 .      S
Zn7   N27   2.142 .      S
Zn7   N33   2.072 .      S
Zn8   N8    2.264 .      S
Zn8   N17   2.308 .      S
Zn8   N29   2.098 .      S
Zn8   N32   2.015 .      S
Zn9   N21   2.105 .      S
Zn9   N24   2.119 .      S
Zn9   N26   2.132 .      S
Zn9   N30   2.143 .      S
Zn10  N35   2.032 .      S
Zn10  N39   2.026 1_655  S
Zn10  N42   2.152 .      S
Zn10  N45   2.076 1_654  S
Zn11  N36   2.061 1_545  S
Zn11  N47   2.097 1_545  S
Zn11  N51   2.166 .      S
Zn11  N53   2.101 .      S
Zn12  N38   2.062 .      S
Zn12  N54   2.092 .      S
Zn12  N56   2.141 .      S
Zn12  N60   2.189 1_554  S
Zn13  N41   2.140 .      S
Zn13  N62   2.068 .      S
Zn13  N65   2.129 .      S
Zn13  N69   2.018 .      S
Zn14  N44   2.215 1_545  S
Zn14  N71   2.041 .      S
Zn14  N74   2.102 .      S
Zn14  N78   2.077 .      S
Zn15  N57   2.133 .      S
Zn15  N68   2.048 .      S
Zn15  N81   2.127 .      S
Zn15  N83   2.050 .      S
Zn16  N59   2.257 1_545  S
Zn16  N77   2.100 .      S
Zn16  N86   2.196 .      S
Zn16  N90   2.142 .      S
Zn17  N48   2.077 .      S
Zn17  N92   2.103 .      S
Zn17  N95   2.035 .      S
Zn17  N98   2.118 .      S
Zn18  N50   2.116 .      S
Zn18  N101  1.991 1_554  S
Zn18  N105  2.071 .      S
Zn18  N107  2.121 .      S
C1    N1    1.454 .      S
C1    H1    1.109 .      S
C1    H2    1.108 .      S
C1    H3    1.109 .      S
N1    C2    1.455 1_565  S
N1    H4    1.040 .      S
C2    N1    1.455 1_545  S
C2    C3    1.451 1_655  S
C2    H5    1.079 .      S
C2    H6    1.097 1_655  S
C3    C2    1.451 1_455  S
C5    H7    1.069 .      S
C6    H8    1.081 .      S
C7    H9    1.072 1_445  S
C8    H10   1.076 .      S
H6    C2    1.097 1_455  S
H9    C7    1.072 1_665  S
C10   N4    1.455 .      S
C10   H11   1.108 .      S
C10   H12   1.102 .      S
C10   H13   1.098 .      S
N4    C11   1.435 .      S
N4    H14   1.024 .      S
C11   C12   1.497 .      S
C11   H15   1.098 .      S
C11   H16   1.098 .      S
C14   H17   1.065 .      S
C15   H18   1.081 .      S
C16   H19   1.079 .      S
C17   H20   1.067 .      S
C19   N7    1.450 .      S
C19   H21   1.108 .      S
C19   H22   1.095 .      S
C19   H23   1.097 .      S
N7    C20   1.448 .      S
N7    H24   1.042 .      S
C20   C21   1.471 1_655  S
C20   H25   1.102 .      S
C20   H26   1.102 .      S
C21   C20   1.471 1_455  S
C23   H27   1.073 .      S
C24   H28   1.081 .      S
C25   H29   1.081 .      S
C26   H30   1.073 .      S
N9    Zn2   2.261 1_455  S
C28   N10   1.453 .      S
C28   H31   1.108 .      S
C28   H32   1.106 .      S
C28   H33   1.103 .      S
N10   C29   1.451 .      S
N10   H34   1.043 .      S
C29   C30   1.475 .      S
C29   H35   1.100 .      S
C29   H36   1.097 .      S
C32   H37   1.054 .      S
C33   H38   1.081 1_554  S
C34   H39   1.081 .      S
C35   H40   1.075 .      S
H38   C33   1.081 1_556  S
C37   N13   1.440 .      S
C37   H41   1.098 .      S
C37   H42   1.109 .      S
C37   H43   1.103 .      S
N13   C38   1.425 .      S
N13   H44   1.034 .      S
C38   C39   1.470 .      S
C38   H45   1.105 .      S
C38   H46   1.089 .      S
C41   H47   1.066 .      S
C42   H48   1.064 .      S
C43   H49   1.079 .      S
C44   H50   1.071 .      S
C46   N16   1.452 .      S
C46   H51   1.108 .      S
C46   H52   1.107 .      S
C46   H53   1.106 .      S
N16   C47   1.455 .      S
N16   H54   1.041 .      S
C47   C48   1.453 .      S
C47   H55   1.097 .      S
C47   H56   1.106 .      S
C50   H57   1.062 .      S
C51   H58   1.081 .      S
C52   H59   1.081 .      S
C53   H60   1.067 .      S
C55   N19   1.453 .      S
C55   H61   1.102 .      S
C55   H62   1.098 1_455  S
C55   H63   1.090 .      S
N19   C56   1.443 .      S
N19   H64   1.039 .      S
C56   C57   1.477 .      S
C56   H65   1.091 .      S
C56   H66   1.088 1_455  S
C59   H67   1.061 .      S
C60   H68   1.081 .      S
C61   H69   1.080 .      S
C62   H70   1.070 .      S
H62   C55   1.098 1_655  S
H66   C56   1.088 1_655  S
C64   N22   1.453 .      S
C64   H71   1.095 .      S
C64   H72   1.104 .      S
C64   H73   1.105 .      S
N22   C65   1.446 1_455  S
N22   H74   1.035 .      S
C65   N22   1.446 1_655  S
C65   C66   1.470 .      S
C65   H75   1.100 .      S
C65   H76   1.083 .      S
C68   H77   1.071 .      S
C69   H78   1.079 .      S
C70   H79   1.080 .      S
C71   H80   1.057 .      S
C73   N25   1.432 .      S
C73   H81   1.103 .      S
C73   H82   1.107 .      S
C73   H83   1.107 .      S
N25   C74   1.436 .      S
N25   H84   1.034 .      S
C74   C75   1.447 .      S
C74   H85   1.093 .      S
C74   H86   1.104 .      S
C77   H87   1.072 .      S
C78   H88   1.081 .      S
C79   H89   1.081 .      S
C80   H90   1.067 .      S
C82   N28   1.437 .      S
C82   H91   1.098 .      S
C82   H92   1.110 .      S
C82   H93   1.107 .      S
N28   C83   1.430 .      S
N28   H94   1.042 .      S
C83   C84   1.463 .      S
C83   H95   1.101 .      S
C83   H96   1.073 .      S
C86   H97   1.081 1_655  S
C87   H98   1.081 .      S
C88   H99   1.081 .      S
C89   H100  1.069 .      S
H97   C86   1.081 1_455  S
C91   N31   1.455 .      S
C91   H101  1.108 .      S
C91   H102  1.108 .      S
C91   H103  1.109 .      S
N31   C92   1.448 .      S
N31   H104  1.044 .      S
C92   C93   1.488 .      S
C92   H105  1.102 .      S
C92   H106  1.102 .      S
C95   H107  1.061 .      S
C96   H108  1.078 .      S
C97   H109  1.059 .      S
C98   H110  1.071 .      S
C100  N34   1.452 1_455  S
C100  H111  1.106 .      S
C100  H112  1.109 .      S
C100  H113  1.106 1_455  S
N34   C100  1.452 1_655  S
N34   C101  1.444 .      S
N34   H114  1.032 .      S
C101  C102  1.488 .      S
C101  H115  1.095 .      S
C101  H116  1.101 1_565  S
C104  H117  1.045 .      S
C105  H118  1.061 .      S
C106  H119  1.065 .      S
C107  H120  1.050 .      S
N36   Zn11  2.061 1_565  S
H113  C100  1.106 1_655  S
H116  C101  1.101 1_545  S
C109  N37   1.455 .      S
C109  H121  1.109 .      S
C109  H122  1.106 .      S
C109  H123  1.102 .      S
N37   C110  1.455 1_556  S
N37   H124  1.042 .      S
C110  N37   1.455 1_554  S
C110  C111  1.495 .      S
C110  H125  1.103 .      S
C110  H126  1.099 .      S
C113  H127  1.062 .      S
C114  H128  1.080 .      S
C115  H129  1.081 .      S
C116  H130  1.069 .      S
N39   Zn10  2.026 1_455  S
C118  N40   1.450 .      S
C118  H131  1.097 .      S
C118  H132  1.102 .      S
C118  H133  1.106 .      S
N40   C119  1.439 .      S
N40   H134  1.043 .      S
C119  C120  1.462 .      S
C119  H135  1.088 .      S
C119  H136  1.103 .      S
C122  H137  1.058 .      S
C123  H138  1.081 .      S
C124  H139  1.081 1_655  S
C125  H140  1.073 1_655  S
H139  C124  1.081 1_455  S
H140  C125  1.073 1_455  S
C127  N43   1.446 1_565  S
C127  H141  1.099 .      S
C127  H142  1.100 .      S
C127  H143  1.095 1_565  S
N43   C127  1.446 1_545  S
N43   C128  1.447 .      S
N43   H144  1.043 .      S
C128  C129  1.462 1_545  S
C128  H145  1.103 .      S
C128  H146  1.081 .      S
C129  C128  1.462 1_565  S
N44   Zn14  2.215 1_565  S
C131  H147  1.069 1_655  S
C132  H148  1.081 .      S
C133  H149  1.081 .      S
C134  H150  1.077 .      S
N45   Zn10  2.076 1_456  S
H143  C127  1.095 1_545  S
H147  C131  1.069 1_455  S
C136  N46   1.442 .      S
C136  H151  1.093 .      S
C136  H152  1.099 .      S
C136  H153  1.101 .      S
N46   C137  1.452 1_545  S
N46   H154  1.037 .      S
C137  N46   1.452 1_565  S
C137  C138  1.478 .      S
C137  H155  1.099 .      S
C137  H156  1.103 .      S
N47   Zn11  2.097 1_565  S
C140  H157  1.072 .      S
C141  H158  1.079 .      S
C142  H159  1.075 .      S
C143  H160  1.077 .      S
C145  N49   1.456 1_556  S
C145  H161  1.104 .      S
C145  H162  1.099 .      S
C145  H163  1.104 .      S
N49   C145  1.456 1_554  S
N49   C146  1.446 .      S
N49   H164  1.044 .      S
C146  C147  1.480 .      S
C146  H165  1.103 .      S
C146  H166  1.100 1_554  S
C149  H167  1.053 .      S
C150  H168  1.060 .      S
C151  H169  1.078 .      S
C152  H170  1.056 .      S
H166  C146  1.100 1_556  S
C154  N52   1.450 1_556  S
C154  H171  1.105 .      S
C154  H172  1.108 .      S
C154  H173  1.105 .      S
N52   C154  1.450 1_554  S
N52   C155  1.447 .      S
N52   H174  1.044 .      S
C155  C156  1.491 .      S
C155  H175  1.104 .      S
C155  H176  1.100 .      S
C158  H177  1.076 .      S
C159  H178  1.075 .      S
C160  H179  1.081 .      S
C161  H180  1.070 1_545  S
H180  C161  1.070 1_565  S
C163  N55   1.457 .      S
C163  H181  1.104 .      S
C163  H182  1.108 .      S
C163  H183  1.105 .      S
N55   C164  1.456 .      S
N55   H184  1.042 .      S
C164  C165  1.483 .      S
C164  H185  1.101 .      S
C164  H186  1.093 .      S
C167  H187  1.065 1_554  S
C168  H188  1.081 1_554  S
C169  H189  1.081 .      S
C170  H190  1.068 .      S
H187  C167  1.065 1_556  S
H188  C168  1.081 1_556  S
C172  N58   1.459 .      S
C172  H191  1.101 .      S
C172  H192  1.096 .      S
C172  H193  1.105 1_556  S
N58   C173  1.447 .      S
N58   H194  1.036 1_556  S
C173  C174  1.469 1_545  S
C173  H195  1.101 .      S
C173  H196  1.087 .      S
C174  C173  1.469 1_565  S
N59   Zn16  2.257 1_565  S
C176  H197  1.070 .      S
C177  H198  1.081 .      S
C178  H199  1.081 .      S
C179  H200  1.073 .      S
N60   Zn12  2.189 1_556  S
H193  C172  1.105 1_554  S
H194  N58   1.036 1_554  S
C181  N61   1.456 1_556  S
C181  H201  1.109 .      S
C181  H202  1.105 .      S
C181  H203  1.107 .      S
N61   C181  1.456 1_554  S
N61   C182  1.456 .      S
N61   H204  1.043 .      S
C182  C183  1.484 .      S
C182  H205  1.093 .      S
C182  H206  1.101 .      S
C185  H207  1.065 .      S
C186  H208  1.075 .      S
C187  H209  1.063 .      S
C188  H210  1.050 .      S
C190  N64   1.453 .      S
C190  H211  1.109 .      S
C190  H212  1.108 .      S
C190  H213  1.108 .      S
N64   C191  1.446 .      S
N64   H214  1.043 .      S
C191  C192  1.496 .      S
C191  H215  1.097 .      S
C191  H216  1.098 .      S
C194  H217  1.067 .      S
C195  H218  1.079 .      S
C196  H219  1.071 .      S
C197  H220  1.045 .      S
C199  N67   1.447 .      S
C199  H221  1.104 .      S
C199  H222  1.109 .      S
C199  H223  1.096 .      S
N67   C200  1.453 .      S
N67   H224  1.044 .      S
C200  C201  1.476 1_455  S
C200  H225  1.096 1_455  S
C200  H226  1.101 .      S
C201  C200  1.476 1_655  S
C203  H227  1.067 .      S
C204  H228  1.081 .      S
C205  H229  1.079 .      S
C206  H230  1.064 .      S
H225  C200  1.096 1_655  S
C208  N70   1.449 .      S
C208  H231  1.106 .      S
C208  H232  1.104 .      S
C208  H233  1.102 .      S
N70   C209  1.442 .      S
N70   H234  1.043 .      S
C209  C210  1.492 .      S
C209  H235  1.072 .      S
C209  H236  1.093 .      S
C212  H237  1.073 .      S
C213  H238  1.081 .      S
C214  H239  1.081 .      S
C215  H240  1.067 .      S
C217  N73   1.458 .      S
C217  H241  1.107 .      S
C217  H242  1.107 .      S
C217  H243  1.108 .      S
N73   C218  1.452 .      S
N73   H244  1.040 .      S
C218  C219  1.496 .      S
C218  H245  1.107 .      S
C218  H246  1.108 .      S
C221  H247  1.039 .      S
C222  H248  1.079 1_545  S
C223  H249  1.066 .      S
C224  H250  1.064 .      S
N75   Zn2   2.081 1_455  S
H248  C222  1.079 1_565  S
C226  N76   1.465 .      S
C226  H251  1.105 .      S
C226  H252  1.096 .      S
C226  H253  1.106 .      S
N76   C227  1.445 .      S
N76   H254  1.042 .      S
C227  C228  1.488 1_565  S
C227  H255  1.103 .      S
C227  H256  1.104 .      S
C228  C227  1.488 1_545  S
C230  H257  1.070 .      S
C231  H258  1.081 .      S
C232  H259  1.073 .      S
C233  H260  1.074 .      S
C235  N79   1.450 .      S
C235  H261  1.101 .      S
C235  H262  1.106 .      S
C235  H263  1.107 .      S
N79   C236  1.451 .      S
N79   H264  1.036 .      S
C236  C237  1.495 .      S
C236  H265  1.100 .      S
C236  H266  1.099 .      S
C239  H267  1.069 .      S
C240  H268  1.081 .      S
C241  H269  1.081 1_455  S
C242  H270  1.068 .      S
H269  C241  1.081 1_655  S
C244  N82   1.457 1_556  S
C244  H271  1.106 .      S
C244  H272  1.108 .      S
C244  H273  1.108 .      S
N82   C244  1.457 1_554  S
N82   C245  1.444 .      S
N82   H274  1.039 .      S
C245  C246  1.474 .      S
C245  H275  1.088 .      S
C245  H276  1.105 .      S
C248  H277  1.062 .      S
C249  H278  1.076 .      S
C250  H279  1.070 .      S
C251  H280  1.074 .      S
C253  N85   1.458 1_565  S
C253  H281  1.106 .      S
C253  H282  1.106 .      S
C253  H283  1.094 1_565  S
N85   C253  1.458 1_545  S
N85   C254  1.451 .      S
N85   H284  1.035 .      S
C254  C255  1.464 .      S
C254  H285  1.096 .      S
C254  H286  1.075 .      S
C257  H287  1.075 .      S
C258  H288  1.081 .      S
C259  H289  1.081 .      S
C260  H290  1.070 .      S
H283  C253  1.094 1_545  S
C262  N88   1.446 .      S
C262  H291  1.102 .      S
C262  H292  1.098 .      S
C262  H293  1.105 .      S
N88   C263  1.454 .      S
N88   H294  1.035 .      S
C263  C264  1.476 .      S
C263  H295  1.071 .      S
C263  H296  1.096 .      S
C266  H297  1.070 .      S
C267  H298  1.080 .      S
C268  H299  1.081 .      S
C269  H300  1.066 .      S
C271  N91   1.451 .      S
C271  H301  1.104 .      S
C271  H302  1.095 .      S
C271  H303  1.104 .      S
N91   C272  1.439 .      S
N91   H304  1.044 .      S
C272  C273  1.484 .      S
C272  H305  1.092 .      S
C272  H306  1.086 1_565  S
C275  H307  1.054 .      S
C276  H308  1.078 .      S
C277  H309  1.081 .      S
C278  H310  1.077 .      S
N93   Zn1   2.021 1_565  S
H306  C272  1.086 1_545  S
C280  N94   1.450 .      S
C280  H311  1.103 .      S
C280  H312  1.103 .      S
C280  H313  1.103 .      S
N94   C281  1.449 .      S
N94   H314  1.032 .      S
C281  C282  1.485 .      S
C281  H315  1.086 .      S
C281  H316  1.097 .      S
C284  H317  1.069 .      S
C285  H318  1.081 .      S
C286  H319  1.081 .      S
C287  H320  1.072 .      S
C289  N97   1.454 .      S
C289  H321  1.109 .      S
C289  H322  1.109 .      S
C289  H323  1.109 .      S
N97   C290  1.450 .      S
N97   H324  1.039 .      S
C290  C291  1.502 .      S
C290  H325  1.104 .      S
C290  H326  1.098 .      S
C293  H327  1.050 .      S
C294  H328  1.075 .      S
C295  H329  1.069 .      S
C296  H330  1.054 .      S
C298  N100  1.454 .      S
C298  H331  1.109 .      S
C298  H332  1.109 .      S
C298  H333  1.109 .      S
N100  C299  1.449 .      S
N100  H334  1.041 .      S
C299  C300  1.499 .      S
C299  H335  1.105 1_655  S
C299  H336  1.108 .      S
N101  Zn18  1.991 1_556  S
C302  H337  1.073 1_556  S
C303  H338  1.080 1_556  S
C304  H339  1.075 1_655  S
C305  H340  1.047 .      S
H335  C299  1.105 1_455  S
H337  C302  1.073 1_554  S
H338  C303  1.080 1_554  S
H339  C304  1.075 1_455  S
C307  N103  1.454 .      S
C307  H341  1.105 .      S
C307  H342  1.105 .      S
C307  H343  1.107 .      S
N103  C308  1.433 .      S
N103  H344  1.040 .      S
C308  C309  1.471 .      S
C308  H345  1.085 .      S
C308  H346  1.104 .      S
C311  H347  1.072 .      S
C312  H348  1.081 .      S
C313  H349  1.081 .      S
C314  H350  1.063 .      S
C316  N106  1.455 .      S
C316  H351  1.108 1_554  S
C316  H352  1.108 1_554  S
C316  H353  1.110 1_455  S
N106  C317  1.453 1_455  S
N106  H354  1.042 1_455  S
C317  N106  1.453 1_655  S
C317  C318  1.483 .      S
C317  H355  1.088 .      S
C317  H356  1.104 .      S
C320  H357  1.067 .      S
C321  H358  1.072 .      S
C322  H359  1.081 .      S
C323  H360  1.070 .      S
H351  C316  1.108 1_556  S
H352  C316  1.108 1_556  S
H353  C316  1.110 1_655  S
H354  N106  1.042 1_655  S
C3    N2    1.386 .      A
C3    N3    1.388 1_455  A
N2    C4    1.346 .      A
C4    C5    1.365 .      A
C4    C9    1.370 1_455  A
C5    C6    1.377 .      A
C6    C7    1.379 .      A
C7    C8    1.386 1_455  A
C8    C7    1.386 1_655  A
C8    C9    1.378 .      A
C9    C4    1.370 1_655  A
C9    N3    1.353 .      A
N3    C3    1.388 1_655  A
C12   N5    1.386 .      A
C12   N6    1.406 .      A
N5    C13   1.349 .      A
C13   C14   1.375 .      A
C13   C18   1.357 .      A
C14   C15   1.382 .      A
C15   C16   1.385 .      A
C16   C17   1.376 .      A
C17   C18   1.364 .      A
C18   N6    1.341 .      A
C21   N8    1.413 .      A
C21   N9    1.404 .      A
N8    C22   1.348 .      A
C22   C23   1.367 .      A
C22   C27   1.382 .      A
C23   C24   1.383 .      A
C24   C25   1.388 .      A
C25   C26   1.385 .      A
C26   C27   1.368 .      A
C27   N9    1.352 .      A
C30   N11   1.394 .      A
C30   N12   1.385 .      A
N11   C31   1.355 .      A
C31   C32   1.369 .      A
C31   C36   1.365 .      A
C32   C33   1.380 .      A
C33   C34   1.378 1_554  A
C34   C33   1.378 1_556  A
C34   C35   1.378 1_556  A
C35   C34   1.378 1_554  A
C35   C36   1.379 .      A
C36   N12   1.350 .      A
C39   N14   1.383 .      A
C39   N15   1.384 .      A
N14   C40   1.352 .      A
C40   C41   1.356 .      A
C40   C45   1.357 .      A
C41   C42   1.391 .      A
C42   C43   1.377 .      A
C43   C44   1.360 .      A
C44   C45   1.363 .      A
C45   N15   1.327 .      A
C48   N17   1.412 .      A
C48   N18   1.412 .      A
N17   C49   1.361 .      A
C49   C50   1.373 .      A
C49   C54   1.388 .      A
C50   C51   1.383 .      A
C51   C52   1.383 .      A
C52   C53   1.380 .      A
C53   C54   1.370 .      A
C54   N18   1.352 .      A
C57   N20   1.401 .      A
C57   N21   1.374 1_455  A
N20   C58   1.344 .      A
C58   C59   1.364 .      A
C58   C63   1.355 1_455  A
C59   C60   1.380 .      A
C60   C61   1.385 1_455  A
C61   C60   1.385 1_655  A
C61   C62   1.389 .      A
C62   C63   1.351 .      A
C63   C58   1.355 1_655  A
C63   N21   1.337 .      A
N21   C57   1.374 1_655  A
C66   N23   1.374 .      A
C66   N24   1.403 .      A
N23   C67   1.367 .      A
C67   C68   1.387 .      A
C67   C72   1.354 .      A
C68   C69   1.376 .      A
C69   C70   1.372 .      A
C70   C71   1.371 .      A
C71   C72   1.367 .      A
C72   N24   1.341 .      A
C75   N26   1.382 .      A
C75   N27   1.381 .      A
N26   C76   1.352 .      A
C76   C77   1.375 .      A
C76   C81   1.369 .      A
C77   C78   1.383 .      A
C78   C79   1.386 .      A
C79   C80   1.383 .      A
C80   C81   1.364 .      A
C81   N27   1.346 .      A
C84   N29   1.388 .      A
C84   N30   1.377 1_455  A
N29   C85   1.339 1_455  A
C85   N29   1.339 1_655  A
C85   C86   1.373 .      A
C85   C90   1.370 .      A
C86   C87   1.380 .      A
C87   C88   1.385 .      A
C88   C89   1.386 .      A
C89   C90   1.384 .      A
C90   N30   1.366 .      A
N30   C84   1.377 1_655  A
C93   N32   1.372 .      A
C93   N33   1.389 .      A
N32   C94   1.320 .      A
C94   C95   1.363 .      A
C94   C99   1.336 .      A
C95   C96   1.376 .      A
C96   C97   1.379 .      A
C97   C98   1.379 .      A
C98   C99   1.344 .      A
C99   N33   1.340 .      A
C102  N35   1.372 .      A
C102  N36   1.390 .      A
N35   C103  1.340 .      A
C103  C104  1.358 1_554  A
C103  C108  1.342 1_565  A
C104  C103  1.358 1_556  A
C104  C105  1.360 1_565  A
C105  C104  1.360 1_545  A
C105  C106  1.372 .      A
C106  C107  1.348 1_556  A
C107  C106  1.348 1_554  A
C107  C108  1.342 .      A
C108  C103  1.342 1_545  A
C108  N36   1.323 1_545  A
N36   C108  1.323 1_565  A
C111  N38   1.381 .      A
C111  N39   1.374 .      A
N38   C112  1.352 .      A
C112  C113  1.364 1_565  A
C112  C117  1.354 .      A
C113  C112  1.364 1_545  A
C113  C114  1.383 .      A
C114  C115  1.377 .      A
C115  C116  1.377 .      A
C116  C117  1.383 1_545  A
C117  C116  1.383 1_565  A
C117  N39   1.349 .      A
C120  N41   1.376 .      A
C120  N42   1.397 .      A
N41   C121  1.348 .      A
C121  C122  1.357 .      A
C121  C126  1.368 .      A
C122  C123  1.383 1_554  A
C123  C122  1.383 1_556  A
C123  C124  1.386 .      A
C124  C125  1.384 .      A
C125  C126  1.375 1_556  A
C126  C125  1.375 1_554  A
C126  N42   1.349 .      A
C129  N44   1.375 .      A
C129  N45   1.388 .      A
N44   C130  1.381 .      A
C130  C131  1.394 1_455  A
C130  C135  1.371 1_455  A
C131  C130  1.394 1_655  A
C131  C132  1.383 .      A
C132  C133  1.379 .      A
C133  C134  1.375 .      A
C134  C135  1.376 .      A
C135  C130  1.371 1_655  A
C135  N45   1.340 1_655  A
N45   C135  1.340 1_455  A
C138  N47   1.381 .      A
C138  N48   1.388 .      A
N47   C139  1.345 .      A
C139  C140  1.368 1_565  A
C139  C144  1.347 .      A
C140  C139  1.368 1_545  A
C140  C141  1.378 .      A
C141  C142  1.384 1_545  A
C142  C141  1.384 1_565  A
C142  C143  1.377 .      A
C143  C144  1.360 .      A
C144  N48   1.336 .      A
C147  N50   1.387 .      A
C147  N51   1.403 .      A
N50   C148  1.330 .      A
C148  C149  1.347 .      A
C148  C153  1.355 .      A
C149  C150  1.346 .      A
C150  C151  1.379 .      A
C151  C152  1.365 .      A
C152  C153  1.349 .      A
C153  N51   1.337 .      A
C156  N53   1.382 1_565  A
C156  N54   1.386 .      A
N53   C156  1.382 1_545  A
N53   C157  1.347 .      A
C157  C158  1.370 .      A
C157  C162  1.353 1_545  A
C158  C159  1.385 .      A
C159  C160  1.381 .      A
C160  C161  1.377 .      A
C161  C162  1.369 1_545  A
C162  C157  1.353 1_565  A
C162  C161  1.369 1_565  A
C162  N54   1.345 .      A
C165  N56   1.392 .      A
C165  N57   1.389 .      A
N56   C166  1.358 .      A
C166  C167  1.378 .      A
C166  C171  1.369 .      A
C167  C168  1.380 .      A
C168  C169  1.381 .      A
C169  C170  1.381 .      A
C170  C171  1.359 .      A
C171  N57   1.342 .      A
C174  N59   1.396 .      A
C174  N60   1.406 .      A
N59   C175  1.362 .      A
C175  C176  1.375 .      A
C175  C180  1.368 .      A
C176  C177  1.384 .      A
C177  C178  1.383 .      A
C178  C179  1.379 .      A
C179  C180  1.361 .      A
C180  N60   1.340 .      A
C183  N62   1.398 .      A
C183  N63   1.387 .      A
N62   C184  1.337 .      A
C184  C185  1.372 .      A
C184  C189  1.345 .      A
C185  C186  1.371 .      A
C186  C187  1.363 .      A
C187  C188  1.356 .      A
C188  C189  1.345 .      A
C189  N63   1.339 .      A
C192  N65   1.411 .      A
C192  N66   1.391 .      A
N65   C193  1.328 .      A
C193  C194  1.372 .      A
C193  C198  1.354 .      A
C194  C195  1.361 .      A
C195  C196  1.371 .      A
C196  C197  1.376 .      A
C197  C198  1.361 .      A
C198  N66   1.361 .      A
C201  N68   1.374 1_655  A
C201  N69   1.368 .      A
N68   C201  1.374 1_455  A
N68   C202  1.348 1_455  A
C202  N68   1.348 1_655  A
C202  C203  1.369 1_655  A
C202  C207  1.352 .      A
C203  C202  1.369 1_455  A
C203  C204  1.383 1_455  A
C204  C203  1.383 1_655  A
C204  C205  1.385 .      A
C205  C206  1.380 .      A
C206  C207  1.357 .      A
C207  N69   1.339 .      A
C210  N71   1.378 .      A
C210  N72   1.373 .      A
N71   C211  1.346 1_545  A
C211  N71   1.346 1_565  A
C211  C212  1.370 .      A
C211  C216  1.354 .      A
C212  C213  1.384 .      A
C213  C214  1.385 .      A
C214  C215  1.382 .      A
C215  C216  1.373 .      A
C216  N72   1.350 1_565  A
N72   C216  1.350 1_545  A
C219  N74   1.401 .      A
C219  N75   1.389 .      A
N74   C220  1.330 .      A
C220  C221  1.341 .      A
C220  C225  1.337 .      A
C221  C222  1.357 1_455  A
C222  C221  1.357 1_655  A
C222  C223  1.372 .      A
C223  C224  1.385 .      A
C224  C225  1.351 1_655  A
C225  C224  1.351 1_455  A
C225  N75   1.331 .      A
C228  N77   1.393 .      A
C228  N78   1.379 .      A
N77   C229  1.357 .      A
C229  C230  1.381 .      A
C229  C234  1.361 .      A
C230  C231  1.377 .      A
C231  C232  1.376 .      A
C232  C233  1.376 .      A
C233  C234  1.373 .      A
C234  N78   1.345 .      A
C237  N80   1.387 .      A
C237  N81   1.380 .      A
N80   C238  1.346 .      A
C238  C239  1.374 .      A
C238  C243  1.364 .      A
C239  C240  1.379 .      A
C240  C241  1.382 .      A
C241  C242  1.382 .      A
C242  C243  1.376 .      A
C243  N81   1.357 .      A
C246  N83   1.387 .      A
C246  N84   1.368 .      A
N83   C247  1.346 .      A
C247  C248  1.361 .      A
C247  C252  1.344 .      A
C248  C249  1.366 1_455  A
C249  C248  1.366 1_655  A
C249  C250  1.382 .      A
C250  C251  1.370 .      A
C251  C252  1.360 1_655  A
C252  C251  1.360 1_455  A
C252  N84   1.326 .      A
C255  N86   1.389 .      A
C255  N87   1.406 .      A
N86   C256  1.358 .      A
C256  C257  1.374 .      A
C256  C261  1.372 .      A
C257  C258  1.383 .      A
C258  C259  1.388 .      A
C259  C260  1.385 .      A
C260  C261  1.366 .      A
C261  N87   1.345 .      A
C264  N89   1.383 .      A
C264  N90   1.393 .      A
N89   C265  1.337 1_545  A
C265  N89   1.337 1_565  A
C265  C266  1.366 .      A
C265  C270  1.361 .      A
C266  C267  1.380 .      A
C267  C268  1.380 .      A
C268  C269  1.384 .      A
C269  C270  1.357 .      A
C270  N90   1.351 1_565  A
N90   C270  1.351 1_545  A
C273  N92   1.380 .      A
C273  N93   1.373 .      A
N92   C274  1.340 .      A
C274  C275  1.338 .      A
C274  C279  1.345 .      A
C275  C276  1.380 .      A
C276  C277  1.386 .      A
C277  C278  1.381 .      A
C278  C279  1.376 .      A
C279  N93   1.340 .      A
C282  N95   1.374 .      A
C282  N96   1.379 .      A
N95   C283  1.342 .      A
C283  C284  1.362 .      A
C283  C288  1.356 .      A
C284  C285  1.382 .      A
C285  C286  1.386 .      A
C286  C287  1.384 .      A
C287  C288  1.375 .      A
C288  N96   1.350 .      A
C291  N98   1.400 .      A
C291  N99   1.397 1_565  A
N98   C292  1.327 1_565  A
C292  N98   1.327 1_545  A
C292  C293  1.340 .      A
C292  C297  1.324 .      A
C293  C294  1.373 .      A
C294  C295  1.377 .      A
C295  C296  1.367 .      A
C296  C297  1.328 .      A
C297  N99   1.324 .      A
N99   C291  1.397 1_545  A
C300  N101  1.377 .      A
C300  N102  1.387 .      A
N101  C301  1.336 .      A
C301  C302  1.381 .      A
C301  C306  1.343 .      A
C302  C303  1.373 .      A
C303  C304  1.374 .      A
C304  C305  1.375 .      A
C305  C306  1.364 .      A
C306  N102  1.360 .      A
C309  N104  1.384 .      A
C309  N105  1.370 .      A
N104  C310  1.348 .      A
C310  C311  1.373 .      A
C310  C315  1.362 .      A
C311  C312  1.379 1_554  A
C312  C311  1.379 1_556  A
C312  C313  1.382 .      A
C313  C314  1.382 .      A
C314  C315  1.370 1_556  A
C315  C314  1.370 1_554  A
C315  N105  1.350 .      A
C318  N107  1.376 .      A
C318  N108  1.389 1_655  A
N107  C319  1.350 1_655  A
C319  N107  1.350 1_455  A
C319  C320  1.372 1_554  A
C319  C324  1.361 .      A
C320  C319  1.372 1_556  A
C320  C321  1.375 .      A
C321  C322  1.378 1_556  A
C322  C321  1.378 1_554  A
C322  C323  1.376 .      A
C323  C324  1.382 .      A
C324  N108  1.352 .      A
N108  C318  1.389 1_455  A
