data_str_m1_o12004_ATS
_audit_creation_date              2015-10-01T06:28:38-0700
_symmetry_space_group_name_H-M    P1
_symmetry_Int_Tables_number       1
_space_group_crystal_system       triclinic
loop_
_symmetry_equiv_pos_as_xyz
  x,y,z
_cell_length_a                    10.5527113
_cell_length_b                    24.4191732
_cell_length_c                    25.0706171
_cell_angle_alpha                 116.532160
_cell_angle_beta                  95.7707956
_cell_angle_gamma                 78.8998764
_cell_volume                      5671.11334855

loop_
_atom_site_label
_atom_site_type_symbol
_atom_site_description
_atom_site_fract_x
_atom_site_fract_y
_atom_site_fract_z
_atom_type_partial_charge
Zn1   Zn    Zn3+2 0.939221 0.143591 0.061545 0.000000
Zn2   Zn    Zn3+2 0.359398 0.988822 0.736296 0.000000
Zn3   Zn    Zn3+2 0.004124 0.581520 0.539488 0.000000
Zn4   Zn    Zn3+2 0.002546 0.532419 0.023614 0.000000
Zn5   Zn    Zn3+2 0.747880 0.704837 0.897182 0.000000
Zn6   Zn    Zn3+2 0.521838 0.424976 0.902190 0.000000
Zn7   Zn    Zn3+2 0.791049 0.147383 0.816786 0.000000
Zn8   Zn    Zn3+2 0.311961 0.556126 0.258598 0.000000
Zn9   Zn    Zn3+2 0.500018 0.989313 0.991834 0.000000
Zn10  Zn    Zn3+2 0.265308 0.595918 0.778652 0.000000
Zn11  Zn    Zn3+2 0.435702 0.711127 0.521884 0.000000
Zn12  Zn    Zn3+2 0.883258 0.423468 0.271180 0.000000
C1    C     C_3   0.698713 0.679242 0.129525 0.000000
N1    N     N_3   0.769582 0.640837 0.074715 0.000000
C2    C     C_3   0.786331 0.681030 0.048244 0.000000
C3    C     C_R   0.856857 0.643389 0.990707 0.000000
N2    N     N_R   0.941319 0.588390 0.980568 0.000000
C4    C     C_R   0.938519 0.557445 0.920416 0.000000
C5    C     C_R   0.011210 0.502332 0.882462 0.000000
C6    C     C_R   0.972274 0.474599 0.823014 0.000000
C7    C     C_R   0.856932 0.500027 0.804428 0.000000
C8    C     C_R   0.787540 0.555334 0.844477 0.000000
C9    C     C_R   0.846677 0.587782 0.897515 0.000000
N3    N     N_R   0.803463 0.645235 0.938441 0.000000
H1    H     H_    0.665880 0.649180 0.145979 0.000000
H2    H     H_    0.762219 0.709172 0.163656 0.000000
H3    H     H_    0.612676 0.708692 0.121226 0.000000
H4    H     H_    0.711206 0.609514 0.045572 0.000000
H5    H     H_    0.690107 0.702158 0.038452 0.000000
H6    H     H_    0.834900 0.719342 0.080906 0.000000
H7    H     H_    0.097797 0.481125 0.896499 0.000000
H8    H     H_    0.026145 0.431007 0.792488 0.000000
H9    H     H_    0.815271 0.474546 0.761294 0.000000
H10   H     H_    0.697018 0.575245 0.831101 0.000000
C10   C     C_3   0.717056 0.440255 0.826246 0.000000
N4    N     N_3   0.796362 0.472324 0.877023 0.000000
C11   C     C_3   0.852524 0.431403 0.902694 0.000000
C12   C     C_R   0.790226 0.457758 0.959454 0.000000
N5    N     N_R   0.848396 0.490987 0.012521 0.000000
C13   C     C_R   0.759138 0.501086 0.051710 0.000000
C14   C     C_R   0.757312 0.537747 0.111388 0.000000
C15   C     C_R   0.648910 0.541789 0.140671 0.000000
C16   C     C_R   0.557202 0.503966 0.112383 0.000000
C17   C     C_R   0.560173 0.469171 0.051415 0.000000
C18   C     C_R   0.654599 0.475005 0.022634 0.000000
N6    N     N_R   0.665672 0.452707 0.963861 0.000000
H11   H     H_    0.652936 0.476502 0.816851 0.000000
H12   H     H_    0.778626 0.406247 0.788232 0.000000
H13   H     H_    0.658334 0.413907 0.836588 0.000000
H14   H     H_    0.735797 0.508988 0.908768 0.000000
H15   H     H_    0.834630 0.383439 0.874338 0.000000
H16   H     H_    0.957573 0.430206 0.910439 0.000000
H17   H     H_    0.833611 0.564327 0.133007 0.000000
H18   H     H_    0.631865 0.574808 0.185455 0.000000
H19   H     H_    0.479329 0.505786 0.138108 0.000000
H20   H     H_    0.490514 0.440016 0.026115 0.000000
C19   C     C_3   0.344511 0.633315 0.089341 0.000000
N7    N     N_3   0.374992 0.570468 0.042504 0.000000
C20   C     C_3   0.263743 0.555649 0.002748 0.000000
C21   C     C_R   0.259791 0.488354 0.974804 0.000000
N8    N     N_R   0.352960 0.438671 0.942329 0.000000
C22   C     C_R   0.297052 0.390162 0.933063 0.000000
C23   C     C_R   0.352394 0.329466 0.910166 0.000000
C24   C     C_R   0.291315 0.289715 0.918785 0.000000
C25   C     C_R   0.177385 0.311182 0.950639 0.000000
C26   C     C_R   0.114448 0.371267 0.966898 0.000000
C27   C     C_R   0.178231 0.409661 0.957798 0.000000
N9    N     N_R   0.150916 0.471322 0.982189 0.000000
H21   H     H_    0.434581 0.651485 0.110225 0.000000
H22   H     H_    0.280676 0.664135 0.072524 0.000000
H23   H     H_    0.297305 0.631737 0.125353 0.000000
H24   H     H_    0.377934 0.544110 0.065482 0.000000
H25   H     H_    0.175552 0.579714 0.029490 0.000000
H26   H     H_    0.255339 0.570171 0.967572 0.000000
H27   H     H_    0.446550 0.313104 0.892385 0.000000
H28   H     H_    0.343634 0.243792 0.905749 0.000000
H29   H     H_    0.144580 0.283607 0.968160 0.000000
H30   H     H_    0.027351 0.389775 0.992460 0.000000
C28   C     C_3   0.329425 0.383244 0.067307 0.000000
N10   N     N_3   0.306746 0.450267 0.099272 0.000000
C29   C     C_3   0.172893 0.472601 0.115934 0.000000
C30   C     C_R   0.152373 0.540708 0.139660 0.000000
N11   N     N_R   0.206584 0.580211 0.192513 0.000000
C31   C     C_R   0.152698 0.636812 0.194630 0.000000
C32   C     C_R   0.153214 0.696554 0.239129 0.000000
C33   C     C_R   0.104998 0.745836 0.225515 0.000000
C34   C     C_R   0.057595 0.735834 0.168903 0.000000
C35   C     C_R   0.044967 0.676620 0.127077 0.000000
C36   C     C_R   0.084037 0.629366 0.143038 0.000000
N12   N     N_R   0.078358 0.569681 0.108335 0.000000
H31   H     H_    0.430246 0.364790 0.075076 0.000000
H32   H     H_    0.258368 0.363315 0.080045 0.000000
H33   H     H_    0.323003 0.370683 0.019597 0.000000
H34   H     H_    0.315338 0.466465 0.068226 0.000000
H35   H     H_    0.111496 0.454273 0.075582 0.000000
H36   H     H_    0.143631 0.459333 0.149024 0.000000
H37   H     H_    0.180126 0.708081 0.284555 0.000000
H38   H     H_    0.106889 0.792769 0.259247 0.000000
H39   H     H_    0.028456 0.774534 0.158073 0.000000
H40   H     H_    0.013692 0.666249 0.081883 0.000000
C37   C     C_3   0.466832 0.830557 0.792145 0.000000
N13   N     N_3   0.548963 0.803286 0.828294 0.000000
C38   C     C_3   0.498672 0.832826 0.887913 0.000000
C39   C     C_R   0.595259 0.844127 0.937678 0.000000
N14   N     N_R   0.675579 0.798426 0.949133 0.000000
C40   C     C_R   0.705030 0.829706 0.007385 0.000000
C41   C     C_R   0.787153 0.807219 0.041440 0.000000
C42   C     C_R   0.812592 0.848517 0.099403 0.000000
C43   C     C_R   0.758906 0.911018 0.121148 0.000000
C44   C     C_R   0.679879 0.933077 0.085030 0.000000
C45   C     C_R   0.653648 0.891080 0.028350 0.000000
N15   N     N_R   0.583716 0.902354 0.985425 0.000000
H41   H     H_    0.526197 0.831131 0.758528 0.000000
H42   H     H_    0.389245 0.802682 0.769702 0.000000
H43   H     H_    0.414156 0.878004 0.816773 0.000000
H44   H     H_    0.645406 0.806740 0.828500 0.000000
H45   H     H_    0.451265 0.879448 0.896138 0.000000
H46   H     H_    0.432935 0.804249 0.890407 0.000000
H47   H     H_    0.835806 0.759793 0.021664 0.000000
H48   H     H_    0.877243 0.832552 0.127531 0.000000
H49   H     H_    0.781550 0.942884 0.166150 0.000000
H50   H     H_    0.642061 0.981611 0.100694 0.000000
C46   C     C_3   0.456090 0.771633 0.005721 0.000000
N16   N     N_3   0.523761 0.736835 0.949361 0.000000
C47   C     C_3   0.455229 0.688163 0.907483 0.000000
C48   C     C_R   0.490266 0.670310 0.845590 0.000000
N17   N     N_R   0.422782 0.636013 0.795142 0.000000
C49   C     C_R   0.506592 0.618570 0.751657 0.000000
C50   C     C_R   0.502974 0.571066 0.695622 0.000000
C51   C     C_R   0.605589 0.556913 0.659170 0.000000
C52   C     C_R   0.706394 0.590640 0.678699 0.000000
C53   C     C_R   0.714813 0.632764 0.737983 0.000000
C54   C     C_R   0.615427 0.643686 0.774158 0.000000
N18   N     N_R   0.610799 0.673972 0.834110 0.000000
H51   H     H_    0.351192 0.783489 0.999453 0.000000
H52   H     H_    0.473209 0.744591 0.031885 0.000000
H53   H     H_    0.494931 0.815422 0.031787 0.000000
H54   H     H_    0.609484 0.714571 0.959760 0.000000
H55   H     H_    0.489266 0.645865 0.913637 0.000000
H56   H     H_    0.353394 0.706628 0.913284 0.000000
H57   H     H_    0.426116 0.543952 0.681116 0.000000
H58   H     H_    0.609910 0.517796 0.616210 0.000000
H59   H     H_    0.784129 0.579025 0.648634 0.000000
H60   H     H_    0.800307 0.652480 0.756757 0.000000
C55   C     C_3   0.937363 0.498611 0.694909 0.000000
N19   N     N_3   0.996822 0.554211 0.724164 0.000000
C56   C     C_3   0.965149 0.583163 0.786514 0.000000
C57   C     C_R   0.993761 0.646457 0.817361 0.000000
N20   N     N_R   0.112909 0.658277 0.815130 0.000000
C58   C     C_R   0.105153 0.718373 0.852481 0.000000
C59   C     C_R   0.200922 0.753004 0.868225 0.000000
C60   C     C_R   0.191187 0.803532 0.923266 0.000000
C61   C     C_R   0.082735 0.821484 0.957289 0.000000
C62   C     C_R   0.980673 0.789772 0.935511 0.000000
C63   C     C_R   0.991798 0.739338 0.881571 0.000000
N21   N     N_R   0.915176 0.695830 0.858847 0.000000
H61   H     H_    0.952505 0.476215 0.646430 0.000000
H62   H     H_    0.980991 0.465035 0.712781 0.000000
H63   H     H_    0.831757 0.510714 0.700694 0.000000
H64   H     H_    0.956895 0.584398 0.705737 0.000000
H65   H     H_    0.863142 0.588126 0.787793 0.000000
H66   H     H_    0.022903 0.556426 0.808721 0.000000
H67   H     H_    0.287910 0.736945 0.842639 0.000000
H68   H     H_    0.272028 0.825667 0.942553 0.000000
H69   H     H_    0.079351 0.859363 0.001620 0.000000
H70   H     H_    0.899147 0.802869 0.961752 0.000000
C64   C     C_3   0.905705 0.300221 0.975685 0.000000
N22   N     N_3   0.786411 0.276642 0.952669 0.000000
C65   C     C_3   0.712866 0.319932 0.932116 0.000000
C66   C     C_R   0.678272 0.294762 0.867408 0.000000
N23   N     N_R   0.709182 0.234803 0.822424 0.000000
C67   C     C_R   0.637376 0.239224 0.776174 0.000000
C68   C     C_R   0.617851 0.192165 0.721537 0.000000
C69   C     C_R   0.518543 0.203651 0.685401 0.000000
C70   C     C_R   0.436781 0.260618 0.705940 0.000000
C71   C     C_R   0.459489 0.307800 0.761133 0.000000
C72   C     C_R   0.565035 0.296769 0.793310 0.000000
N24   N     N_R   0.593754 0.333878 0.849548 0.000000
H71   H     H_    0.883298 0.347730 0.011999 0.000000
H72   H     H_    0.965414 0.272242 0.996592 0.000000
H73   H     H_    0.953183 0.301565 0.938992 0.000000
H74   H     H_    0.740455 0.287552 0.991980 0.000000
H75   H     H_    0.623256 0.342203 0.958300 0.000000
H76   H     H_    0.770497 0.355443 0.940378 0.000000
H77   H     H_    0.677409 0.147799 0.707596 0.000000
H78   H     H_    0.500244 0.166979 0.642250 0.000000
H79   H     H_    0.353430 0.267479 0.679433 0.000000
H80   H     H_    0.390742 0.349649 0.781630 0.000000
C73   C     C_3   0.566692 0.342091 0.682983 0.000000
N25   N     N_3   0.559097 0.400457 0.736968 0.000000
C74   C     C_3   0.426780 0.433637 0.745511 0.000000
C75   C     C_R   0.403138 0.483539 0.808413 0.000000
N26   N     N_R   0.461351 0.481122 0.859911 0.000000
C76   C     C_R   0.425675 0.539430 0.901297 0.000000
C77   C     C_R   0.478390 0.568411 0.957283 0.000000
C78   C     C_R   0.428757 0.629899 0.992044 0.000000
C79   C     C_R   0.318162 0.658688 0.973712 0.000000
C80   C     C_R   0.270283 0.628824 0.916095 0.000000
C81   C     C_R   0.335941 0.571606 0.879184 0.000000
N27   N     N_R   0.324180 0.539821 0.819771 0.000000
H81   H     H_    0.618070 0.303716 0.693211 0.000000
H82   H     H_    0.470313 0.332153 0.663242 0.000000
H83   H     H_    0.623135 0.344763 0.649462 0.000000
H84   H     H_    0.611032 0.426570 0.726449 0.000000
H85   H     H_    0.410269 0.456213 0.715063 0.000000
H86   H     H_    0.357389 0.401492 0.734094 0.000000
H87   H     H_    0.561405 0.546772 0.973015 0.000000
H88   H     H_    0.479109 0.655442 0.032493 0.000000
H89   H     H_    0.273764 0.705242 0.002748 0.000000
H90   H     H_    0.187553 0.651673 0.901278 0.000000
C82   C     C_3   0.143174 0.189133 0.876366 0.000000
N28   N     N_3   0.024033 0.196254 0.903600 0.000000
C83   C     C_3   0.029344 0.145050 0.918798 0.000000
C84   C     C_R   0.899573 0.147491 0.935952 0.000000
N29   N     N_R   0.871484 0.159358 0.992671 0.000000
C85   C     C_R   0.746576 0.183231 0.996803 0.000000
C86   C     C_R   0.672395 0.204969 0.045929 0.000000
C87   C     C_R   0.545894 0.229245 0.041259 0.000000
C88   C     C_R   0.504835 0.243022 0.994088 0.000000
C89   C     C_R   0.583203 0.221769 0.945280 0.000000
C90   C     C_R   0.700945 0.185840 0.945492 0.000000
N30   N     N_R   0.794735 0.159966 0.903994 0.000000
H91   H     H_    0.135687 0.223844 0.858613 0.000000
H92   H     H_    0.219792 0.193295 0.909913 0.000000
H93   H     H_    0.161714 0.143275 0.839650 0.000000
H94   H     H_    0.949962 0.195834 0.872878 0.000000
H95   H     H_    0.056999 0.101011 0.879667 0.000000
H96   H     H_    0.094101 0.151432 0.958035 0.000000
H97   H     H_    0.710674 0.204786 0.087274 0.000000
H98   H     H_    0.479486 0.238703 0.074814 0.000000
H99   H     H_    0.409123 0.268496 0.995812 0.000000
H100  H     H_    0.554762 0.233834 0.909177 0.000000
C91   C     C_3   0.433906 0.177157 0.799807 0.000000
N31   N     N_3   0.400104 0.142160 0.828664 0.000000
C92   C     C_3   0.517202 0.102823 0.834591 0.000000
C93   C     C_R   0.570689 0.068621 0.776627 0.000000
N32   N     N_R   0.506039 0.028590 0.730110 0.000000
C94   C     C_R   0.576781 0.016484 0.683382 0.000000
C95   C     C_R   0.550505 0.981925 0.624372 0.000000
C96   C     C_R   0.635537 0.977164 0.583339 0.000000
C97   C     C_R   0.743416 0.006572 0.602135 0.000000
C98   C     C_R   0.767952 0.041675 0.662245 0.000000
C99   C     C_R   0.680320 0.047300 0.702147 0.000000
N33   N     N_R   0.676628 0.082895 0.761817 0.000000
H101  H     H_    0.360855 0.219451 0.809224 0.000000
H102  H     H_    0.529601 0.189112 0.815321 0.000000
H103  H     H_    0.438622 0.148373 0.751062 0.000000
H104  H     H_    0.345862 0.111708 0.796004 0.000000
H105  H     H_    0.590230 0.129187 0.860599 0.000000
H106  H     H_    0.503858 0.070591 0.852513 0.000000
H107  H     H_    0.464715 0.960576 0.610430 0.000000
H108  H     H_    0.617422 0.950803 0.536229 0.000000
H109  H     H_    0.806592 0.003265 0.569195 0.000000
H110  H     H_    0.850377 0.065494 0.676874 0.000000
C100  C     C_3   0.826518 0.975920 0.789725 0.000000
N34   N     N_3   0.887802 0.028516 0.803608 0.000000
C101  C     C_3   0.010466 0.004489 0.773435 0.000000
C102  C     C_R   0.059915 0.056450 0.772577 0.000000
N35   N     N_R   0.975819 0.110033 0.779055 0.000000
C103  C     C_R   0.040023 0.133085 0.752089 0.000000
C104  C     C_R   0.998623 0.184557 0.742116 0.000000
C105  C     C_R   0.080199 0.198295 0.711390 0.000000
C106  C     C_R   0.198896 0.160537 0.691096 0.000000
C107  C     C_R   0.239082 0.108864 0.701922 0.000000
C108  C     C_R   0.158328 0.096747 0.733394 0.000000
N36   N     N_R   0.178344 0.049194 0.748665 0.000000
H111  H     H_    0.753926 0.989460 0.824347 0.000000
H112  H     H_    0.780986 0.962665 0.744903 0.000000
H113  H     H_    0.901537 0.937564 0.790241 0.000000
H114  H     H_    0.905131 0.047573 0.849284 0.000000
H115  H     H_    0.079844 0.980493 0.794708 0.000000
H116  H     H_    0.994900 0.970670 0.726722 0.000000
H117  H     H_    0.905490 0.213020 0.757168 0.000000
H118  H     H_    0.050650 0.238312 0.702388 0.000000
H119  H     H_    0.260004 0.171435 0.666272 0.000000
H120  H     H_    0.328812 0.078026 0.684618 0.000000
C109  C     C_3   0.527321 0.499841 0.389339 0.000000
N37   N     N_3   0.460276 0.560307 0.430262 0.000000
C110  C     C_3   0.343971 0.580482 0.403121 0.000000
C111  C     C_R   0.362258 0.632866 0.391749 0.000000
N38   N     N_R   0.396011 0.687211 0.435311 0.000000
C112  C     C_R   0.396501 0.721375 0.405869 0.000000
C113  C     C_R   0.430677 0.779137 0.428226 0.000000
C114  C     C_R   0.443543 0.802089 0.387937 0.000000
C115  C     C_R   0.428055 0.766019 0.327064 0.000000
C116  C     C_R   0.395384 0.707377 0.305725 0.000000
C117  C     C_R   0.369823 0.687952 0.346722 0.000000
N39   N     N_R   0.344548 0.631598 0.336462 0.000000
H121  H     H_    0.495657 0.462606 0.395844 0.000000
H122  H     H_    0.509070 0.491691 0.342502 0.000000
H123  H     H_    0.632612 0.497401 0.399049 0.000000
H124  H     H_    0.520691 0.593434 0.443495 0.000000
H125  H     H_    0.316169 0.542076 0.361378 0.000000
H126  H     H_    0.264511 0.598194 0.434912 0.000000
H127  H     H_    0.450737 0.804893 0.475241 0.000000
H128  H     H_    0.471025 0.847275 0.403661 0.000000
H129  H     H_    0.444129 0.783432 0.295955 0.000000
H130  H     H_    0.387921 0.678633 0.258297 0.000000
C118  C     C_3   0.372572 0.344843 0.285194 0.000000
N40   N     N_3   0.315832 0.405258 0.288616 0.000000
C119  C     C_3   0.204447 0.399437 0.248245 0.000000
C120  C     C_R   0.128624 0.461850 0.259033 0.000000
N41   N     N_R   0.996777 0.469850 0.255526 0.000000
C121  C     C_R   0.963609 0.526003 0.256119 0.000000
C122  C     C_R   0.849539 0.552730 0.239847 0.000000
C123  C     C_R   0.845959 0.610196 0.239962 0.000000
C124  C     C_R   0.948866 0.641675 0.261981 0.000000
C125  C     C_R   0.061994 0.612342 0.275979 0.000000
C126  C     C_R   0.068635 0.552810 0.266982 0.000000
N42   N     N_R   0.176580 0.513640 0.266298 0.000000
H131  H     H_    0.457070 0.349477 0.316109 0.000000
H132  H     H_    0.300432 0.325165 0.297625 0.000000
H133  H     H_    0.405414 0.314104 0.239661 0.000000
H134  H     H_    0.384609 0.424353 0.278823 0.000000
H135  H     H_    0.228556 0.372098 0.201536 0.000000
H136  H     H_    0.140915 0.371561 0.254520 0.000000
H137  H     H_    0.769440 0.528200 0.224644 0.000000
H138  H     H_    0.761889 0.633978 0.226774 0.000000
H139  H     H_    0.941369 0.688312 0.266499 0.000000
H140  H     H_    0.142980 0.634835 0.293937 0.000000
C127  C     C_3   0.642110 0.668254 0.328291 0.000000
N43   N     N_3   0.569325 0.617552 0.309229 0.000000
C128  C     C_3   0.639721 0.565695 0.319265 0.000000
C129  C     C_R   0.610687 0.506532 0.269588 0.000000
N44   N     N_R   0.490378 0.499157 0.242265 0.000000
C130  C     C_R   0.504766 0.437414 0.209606 0.000000
C131  C     C_R   0.410220 0.404270 0.179955 0.000000
C132  C     C_R   0.436653 0.340477 0.158704 0.000000
C133  C     C_R   0.553737 0.312121 0.172329 0.000000
C134  C     C_R   0.646819 0.347031 0.204264 0.000000
C135  C     C_R   0.623459 0.409219 0.218504 0.000000
N45   N     N_R   0.696019 0.451577 0.253951 0.000000
H141  H     H_    0.625267 0.689434 0.296813 0.000000
H142  H     H_    0.611689 0.704382 0.372865 0.000000
H143  H     H_    0.744837 0.652129 0.330832 0.000000
H144  H     H_    0.542926 0.602281 0.264618 0.000000
H145  H     H_    0.745056 0.564601 0.324353 0.000000
H146  H     H_    0.607831 0.570303 0.361519 0.000000
H147  H     H_    0.315868 0.428690 0.179516 0.000000
H148  H     H_    0.361279 0.313582 0.136181 0.000000
H149  H     H_    0.568926 0.263682 0.162886 0.000000
H150  H     H_    0.727921 0.326150 0.221780 0.000000
C136  C     C_3   0.324517 0.214444 0.186180 0.000000
N46   N     N_3   0.320835 0.149263 0.149876 0.000000
C137  C     C_3   0.290275 0.141139 0.089506 0.000000
C138  C     C_R   0.240231 0.082094 0.055183 0.000000
N47   N     N_R   0.318931 0.024972 0.029657 0.000000
C139  C     C_R   0.235095 0.987499 0.999116 0.000000
C140  C     C_R   0.274788 0.928409 0.960040 0.000000
C141  C     C_R   0.213407 0.905820 0.905366 0.000000
C142  C     C_R   0.118889 0.946017 0.892794 0.000000
C143  C     C_R   0.070675 0.003982 0.937669 0.000000
C144  C     C_R   0.118721 0.020853 0.995165 0.000000
N48   N     N_R   0.112678 0.080449 0.036940 0.000000
H151  H     H_    0.375155 0.220569 0.228928 0.000000
H152  H     H_    0.376615 0.230687 0.161263 0.000000
H153  H     H_    0.224845 0.240796 0.194996 0.000000
H154  H     H_    0.247737 0.136695 0.164764 0.000000
H155  H     H_    0.215465 0.180175 0.090219 0.000000
H156  H     H_    0.379036 0.139830 0.068536 0.000000
H157  H     H_    0.359037 0.904012 0.972729 0.000000
H158  H     H_    0.246319 0.860166 0.870578 0.000000
H159  H     H_    0.080884 0.931282 0.847959 0.000000
H160  H     H_    0.014134 0.038372 0.925286 0.000000
C145  C     C_3   0.919820 0.922626 0.934340 0.000000
N49   N     N_3   0.827250 0.963217 0.979490 0.000000
C146  C     C_3   0.783123 0.018999 0.971187 0.000000
C147  C     C_R   0.722545 0.063221 0.025685 0.000000
N50   N     N_R   0.617845 0.050725 0.042863 0.000000
C148  C     C_R   0.617362 0.086324 0.102004 0.000000
C149  C     C_R   0.537896 0.087910 0.142819 0.000000
C150  C     C_R   0.554841 0.128384 0.202014 0.000000
C151  C     C_R   0.649235 0.165981 0.218618 0.000000
C152  C     C_R   0.731554 0.161824 0.176727 0.000000
C153  C     C_R   0.716370 0.119848 0.118625 0.000000
N51   N     N_R   0.788409 0.104890 0.070897 0.000000
H161  H     H_    0.901791 0.874776 0.915926 0.000000
H162  H     H_    0.905760 0.936503 0.897529 0.000000
H163  H     H_    0.015762 0.923231 0.956367 0.000000
H164  H     H_    0.875547 0.976121 0.020667 0.000000
H165  H     H_    0.860715 0.040157 0.968271 0.000000
H166  H     H_    0.714447 0.011711 0.933414 0.000000
H167  H     H_    0.466847 0.057384 0.129309 0.000000
H168  H     H_    0.494115 0.130876 0.235546 0.000000
H169  H     H_    0.659849 0.198129 0.264886 0.000000
H170  H     H_    0.803785 0.190968 0.189759 0.000000
C154  C     C_3   0.371403 0.125610 0.946539 0.000000
N52   N     N_3   0.275988 0.096560 0.902068 0.000000
C155  C     C_3   0.270999 0.038210 0.900485 0.000000
C156  C     C_R   0.387659 0.996340 0.871982 0.000000
N53   N     N_R   0.417319 0.977680 0.813094 0.000000
C157  C     C_R   0.536955 0.946430 0.810408 0.000000
C158  C     C_R   0.613360 0.918438 0.762096 0.000000
C159  C     C_R   0.727683 0.881180 0.765347 0.000000
C160  C     C_R   0.763545 0.875631 0.817693 0.000000
C161  C     C_R   0.686043 0.908052 0.867407 0.000000
C162  C     C_R   0.574443 0.944235 0.862814 0.000000
N54   N     N_R   0.483582 0.977299 0.904247 0.000000
H171  H     H_    0.445496 0.090331 0.953302 0.000000
H172  H     H_    0.418299 0.152752 0.931593 0.000000
H173  H     H_    0.322091 0.157657 0.988966 0.000000
H174  H     H_    0.307275 0.084066 0.860083 0.000000
H175  H     H_    0.267244 0.044571 0.946256 0.000000
H176  H     H_    0.190006 0.019756 0.872074 0.000000
H177  H     H_    0.582875 0.926382 0.723725 0.000000
H178  H     H_    0.790841 0.856987 0.727635 0.000000
H179  H     H_    0.850577 0.844468 0.818720 0.000000
H180  H     H_    0.703028 0.900471 0.906291 0.000000
C163  C     C_3   0.348764 0.649190 0.657106 0.000000
N55   N     N_3   0.275726 0.671308 0.710601 0.000000
C164  C     C_3   0.144869 0.661439 0.690746 0.000000
C165  C     C_R   0.141658 0.593846 0.663457 0.000000
N56   N     N_R   0.082857 0.559838 0.609458 0.000000
C166  C     C_R   0.111265 0.501832 0.606153 0.000000
C167  C     C_R   0.087015 0.446680 0.560155 0.000000
C168  C     C_R   0.111646 0.394217 0.570210 0.000000
C169  C     C_R   0.154915 0.398283 0.625857 0.000000
C170  C     C_R   0.186647 0.453399 0.669850 0.000000
C171  C     C_R   0.175966 0.502398 0.656268 0.000000
N57   N     N_R   0.200252 0.559550 0.692705 0.000000
H181  H     H_    0.344078 0.599563 0.629159 0.000000
H182  H     H_    0.307659 0.677388 0.633480 0.000000
H183  H     H_    0.450375 0.654061 0.668438 0.000000
H184  H     H_    0.273976 0.719134 0.733623 0.000000
H185  H     H_    0.082025 0.685471 0.730306 0.000000
H186  H     H_    0.113081 0.680037 0.658077 0.000000
H187  H     H_    0.056192 0.443012 0.516724 0.000000
H188  H     H_    0.092021 0.350346 0.535265 0.000000
H189  H     H_    0.163569 0.358325 0.634822 0.000000
H190  H     H_    0.205701 0.460120 0.715052 0.000000
C172  C     C_3   0.777069 0.851696 0.618802 0.000000
N58   N     N_3   0.639142 0.874822 0.624952 0.000000
C173  C     C_3   0.578328 0.831016 0.633765 0.000000
C174  C     C_R   0.435901 0.845177 0.628185 0.000000
N59   N     N_R   0.360433 0.903812 0.656784 0.000000
C175  C     C_R   0.262631 0.899715 0.616489 0.000000
C176  C     C_R   0.170873 0.946945 0.614335 0.000000
C177  C     C_R   0.088326 0.933334 0.565184 0.000000
C178  C     C_R   0.098023 0.873636 0.519207 0.000000
C179  C     C_R   0.193448 0.826959 0.520974 0.000000
C180  C     C_R   0.274523 0.841623 0.569987 0.000000
N60   N     N_R   0.379821 0.804945 0.577369 0.000000
H191  H     H_    0.830711 0.888572 0.650311 0.000000
H192  H     H_    0.802053 0.810306 0.627648 0.000000
H193  H     H_    0.805212 0.838603 0.572677 0.000000
H194  H     H_    0.606830 0.871272 0.582965 0.000000
H195  H     H_    0.606297 0.786768 0.595261 0.000000
H196  H     H_    0.610471 0.825048 0.674253 0.000000
H197  H     H_    0.167517 0.994081 0.647080 0.000000
H198  H     H_    0.018501 0.970159 0.561663 0.000000
H199  H     H_    0.033704 0.864186 0.480872 0.000000
H200  H     H_    0.206517 0.781091 0.484150 0.000000
C181  C     C_3   0.045847 0.783828 0.649511 0.000000
N61   N     N_3   0.007786 0.741520 0.590037 0.000000
C182  C     C_3   0.110753 0.728660 0.549717 0.000000
C183  C     C_R   0.195004 0.668053 0.536947 0.000000
N62   N     N_R   0.326798 0.661651 0.535623 0.000000
C184  C     C_R   0.368146 0.604793 0.532807 0.000000
C185  C     C_R   0.492196 0.573956 0.532262 0.000000
C186  C     C_R   0.508311 0.513931 0.525438 0.000000
C187  C     C_R   0.403761 0.487437 0.525021 0.000000
C188  C     C_R   0.281049 0.520582 0.529135 0.000000
C189  C     C_R   0.265786 0.578177 0.530739 0.000000
N63   N     N_R   0.153995 0.615814 0.531916 0.000000
H201  H     H_    0.147297 0.768278 0.659626 0.000000
H202  H     H_    0.036761 0.831054 0.652363 0.000000
H203  H     H_    0.982124 0.785132 0.682769 0.000000
H204  H     H_    0.998759 0.700349 0.590872 0.000000
H205  H     H_    0.070525 0.729744 0.508021 0.000000
H206  H     H_    0.171599 0.764759 0.571122 0.000000
H207  H     H_    0.576491 0.592202 0.532961 0.000000
H208  H     H_    0.603744 0.487801 0.520632 0.000000
H209  H     H_    0.418000 0.440370 0.520059 0.000000
H210  H     H_    0.200364 0.499114 0.524374 0.000000
C190  C     C_3   0.903817 0.688992 0.415035 0.000000
N64   N     N_3   0.885266 0.680639 0.467356 0.000000
C191  C     C_3   0.781181 0.645109 0.455630 0.000000
C192  C     C_R   0.743410 0.651615 0.513795 0.000000
N65   N     N_R   0.834128 0.640490 0.552941 0.000000
C193  C     C_R   0.770563 0.667418 0.603958 0.000000
C194  C     C_R   0.821412 0.680275 0.659367 0.000000
C195  C     C_R   0.739518 0.715010 0.706323 0.000000
C196  C     C_R   0.608212 0.722128 0.695368 0.000000
C197  C     C_R   0.559699 0.715220 0.640056 0.000000
C198  C     C_R   0.646303 0.689465 0.595301 0.000000
N66   N     N_R   0.623809 0.680976 0.538760 0.000000
H211  H     H_    0.990104 0.710800 0.420962 0.000000
H212  H     H_    0.921257 0.643180 0.376041 0.000000
H213  H     H_    0.819807 0.720931 0.409165 0.000000
H214  H     H_    0.854528 0.724599 0.501475 0.000000
H215  H     H_    0.697253 0.663949 0.435160 0.000000
H216  H     H_    0.815033 0.595689 0.425769 0.000000
H217  H     H_    0.921177 0.665971 0.665810 0.000000
H218  H     H_    0.776409 0.734007 0.751558 0.000000
H219  H     H_    0.545548 0.729415 0.729306 0.000000
H220  H     H_    0.458405 0.727838 0.632044 0.000000
C199  C     C_3   0.871664 0.414212 0.129591 0.000000
N67   N     N_3   0.943705 0.351546 0.106608 0.000000
C200  C     C_3   0.861523 0.312468 0.110959 0.000000
C201  C     C_R   0.918052 0.289466 0.155181 0.000000
N68   N     N_R   0.954217 0.226609 0.139350 0.000000
C202  C     C_R   0.998192 0.226948 0.191868 0.000000
C203  C     C_R   0.035485 0.176497 0.203830 0.000000
C204  C     C_R   0.069960 0.187462 0.262112 0.000000
C205  C     C_R   0.063653 0.247826 0.306957 0.000000
C206  C     C_R   0.021014 0.298231 0.294421 0.000000
C207  C     C_R   0.988657 0.286378 0.236335 0.000000
N69   N     N_R   0.937367 0.327902 0.215219 0.000000
H221  H     H_    0.933182 0.446259 0.129773 0.000000
H222  H     H_    0.784822 0.416185 0.101207 0.000000
H223  H     H_    0.842173 0.428310 0.175542 0.000000
H224  H     H_    0.023341 0.351761 0.134974 0.000000
H225  H     H_    0.762824 0.338557 0.123349 0.000000
H226  H     H_    0.856169 0.271729 0.067431 0.000000
H227  H     H_    0.036232 0.129806 0.169093 0.000000
H228  H     H_    0.100740 0.148732 0.272989 0.000000
H229  H     H_    0.090122 0.255456 0.352235 0.000000
H230  H     H_    0.013116 0.345119 0.329259 0.000000
C208  C     C_3   0.240659 0.465186 0.407190 0.000000
N70   N     N_3   0.162411 0.477027 0.361911 0.000000
C209  C     C_3   0.057005 0.526649 0.389772 0.000000
C210  C     C_R   0.964108 0.498734 0.404782 0.000000
N71   N     N_R   0.902941 0.452121 0.362314 0.000000
C211  C     C_R   0.852113 0.431599 0.395584 0.000000
C212  C     C_R   0.783861 0.383457 0.375727 0.000000
C213  C     C_R   0.745019 0.368364 0.417896 0.000000
C214  C     C_R   0.770851 0.402710 0.478201 0.000000
C215  C     C_R   0.833417 0.453607 0.497608 0.000000
C216  C     C_R   0.879566 0.465167 0.454900 0.000000
N72   N     N_R   0.953121 0.507937 0.462310 0.000000
H231  H     H_    0.297409 0.502566 0.430424 0.000000
H232  H     H_    0.175662 0.458807 0.434710 0.000000
H233  H     H_    0.308082 0.420848 0.387165 0.000000
H234  H     H_    0.117315 0.438334 0.342599 0.000000
H235  H     H_    0.089752 0.563345 0.430953 0.000000
H236  H     H_    0.012680 0.545844 0.358675 0.000000
H237  H     H_    0.764048 0.357245 0.328767 0.000000
H238  H     H_    0.693451 0.329826 0.403906 0.000000
H239  H     H_    0.738051 0.390785 0.510554 0.000000
H240  H     H_    0.850050 0.481312 0.544625 0.000000

loop_
_geom_bond_atom_site_label_1
_geom_bond_atom_site_label_2
_geom_bond_distance
_geom_bond_site_symmetry_2
_ccdc_geom_bond_type
Zn1   N29   1.970 1_554  S
Zn1   N48   2.097 1_655  S
Zn1   N51   2.082 .      S
Zn1   N68   2.114 .      S
Zn2   N32   2.031 1_565  S
Zn2   N36   2.132 1_565  S
Zn2   N53   2.079 .      S
Zn2   N59   2.141 .      S
Zn3   N56   2.101 .      S
Zn3   N63   1.988 .      S
Zn3   N65   2.025 1_455  S
Zn3   N72   2.078 1_455  S
Zn4   N2    2.071 1_454  S
Zn4   N5    2.010 1_455  S
Zn4   N9    1.949 1_554  S
Zn4   N12   2.047 .      S
Zn5   N3    2.104 .      S
Zn5   N14   2.091 .      S
Zn5   N18   2.014 .      S
Zn5   N21   2.023 .      S
Zn6   N6    2.035 .      S
Zn6   N8    2.032 .      S
Zn6   N24   2.048 .      S
Zn6   N26   2.058 .      S
Zn7   N23   2.090 .      S
Zn7   N30   2.065 .      S
Zn7   N33   2.073 .      S
Zn7   N35   2.108 .      S
Zn8   N11   2.139 .      S
Zn8   N39   2.054 .      S
Zn8   N42   1.990 .      S
Zn8   N44   2.070 .      S
Zn9   N15   2.078 .      S
Zn9   N47   2.072 1_566  S
Zn9   N50   2.029 1_566  S
Zn9   N54   2.075 .      S
Zn10  N17   2.004 .      S
Zn10  N20   1.962 .      S
Zn10  N27   2.032 .      S
Zn10  N57   2.032 .      S
Zn11  N38   2.002 .      S
Zn11  N60   2.081 .      S
Zn11  N62   1.971 .      S
Zn11  N66   2.051 .      S
Zn12  N41   1.971 .      S
Zn12  N45   2.033 .      S
Zn12  N69   2.113 .      S
Zn12  N71   2.070 .      S
C1    N1    1.453 .      S
C1    H1    1.107 .      S
C1    H2    1.109 .      S
C1    H3    1.109 .      S
N1    C2    1.452 .      S
N1    H4    1.044 .      S
C2    C3    1.499 1_554  S
C2    H5    1.104 .      S
C2    H6    1.106 .      S
C3    C2    1.499 1_556  S
N2    Zn4   2.071 1_656  S
C5    H7    1.069 .      S
C6    H8    1.081 1_655  S
C7    H9    1.076 .      S
C8    H10   1.079 .      S
H8    C6    1.081 1_455  S
C10   N4    1.443 .      S
C10   H11   1.105 .      S
C10   H12   1.109 .      S
C10   H13   1.095 .      S
N4    C11   1.426 .      S
N4    H14   1.043 .      S
C11   C12   1.442 .      S
C11   H15   1.108 .      S
C11   H16   1.103 .      S
N5    Zn4   2.010 1_655  S
C14   H17   1.078 .      S
C15   H18   1.058 .      S
C16   H19   1.077 .      S
C17   H20   1.074 .      S
C19   N7    1.454 .      S
C19   H21   1.109 .      S
C19   H22   1.109 .      S
C19   H23   1.093 .      S
N7    C20   1.452 .      S
N7    H24   1.033 .      S
C20   C21   1.478 1_554  S
C20   H25   1.106 .      S
C20   H26   1.078 1_554  S
C21   C20   1.478 1_556  S
C23   H27   1.060 .      S
C24   H28   1.068 .      S
C25   H29   1.073 .      S
C26   H30   1.077 .      S
N9    Zn4   1.949 1_556  S
H26   C20   1.078 1_556  S
C28   N10   1.447 .      S
C28   H31   1.107 .      S
C28   H32   1.108 .      S
C28   H33   1.092 .      S
N10   C29   1.444 .      S
N10   H34   1.036 .      S
C29   C30   1.473 .      S
C29   H35   1.104 .      S
C29   H36   1.104 .      S
C32   H37   1.066 .      S
C33   H38   1.081 .      S
C34   H39   1.078 .      S
C35   H40   1.076 .      S
C37   N13   1.475 .      S
C37   H41   1.106 .      S
C37   H42   1.109 .      S
C37   H43   1.102 .      S
N13   C38   1.444 .      S
N13   H44   1.037 .      S
C38   C39   1.489 .      S
C38   H45   1.087 .      S
C38   H46   1.098 .      S
C41   H47   1.077 .      S
C42   H48   1.078 .      S
C43   H49   1.081 .      S
C44   H50   1.073 .      S
C46   N16   1.458 1_554  S
C46   H51   1.103 1_554  S
C46   H52   1.103 .      S
C46   H53   1.109 .      S
N16   C46   1.458 1_556  S
N16   C47   1.450 .      S
N16   H54   1.035 .      S
C47   C48   1.478 .      S
C47   H55   1.099 .      S
C47   H56   1.080 .      S
C50   H57   1.077 .      S
C51   H58   1.072 .      S
C52   H59   1.079 .      S
C53   H60   1.071 .      S
H51   C46   1.103 1_556  S
C55   N19   1.456 .      S
C55   H61   1.102 .      S
C55   H62   1.107 .      S
C55   H63   1.103 .      S
N19   C56   1.443 .      S
N19   H64   1.039 .      S
C56   C57   1.464 .      S
C56   H65   1.062 .      S
C56   H66   1.100 1_655  S
C59   H67   1.078 .      S
C60   H68   1.056 .      S
C61   H69   1.081 1_556  S
C62   H70   1.046 .      S
H66   C56   1.100 1_455  S
H69   C61   1.081 1_554  S
C64   N22   1.444 .      S
C64   H71   1.107 1_556  S
C64   H72   1.107 .      S
C64   H73   1.106 .      S
N22   C65   1.441 .      S
N22   H74   1.044 .      S
C65   C66   1.490 .      S
C65   H75   1.108 .      S
C65   H76   1.087 .      S
C68   H77   1.065 .      S
C69   H78   1.081 .      S
C70   H79   1.081 .      S
C71   H80   1.075 .      S
H71   C64   1.107 1_554  S
C73   N25   1.457 .      S
C73   H81   1.109 .      S
C73   H82   1.107 .      S
C73   H83   1.109 .      S
N25   C74   1.457 .      S
N25   H84   1.044 .      S
C74   C75   1.510 .      S
C74   H85   1.109 .      S
C74   H86   1.101 .      S
C77   H87   1.068 .      S
C78   H88   1.074 1_556  S
C79   H89   1.080 1_556  S
C80   H90   1.070 .      S
H88   C78   1.074 1_554  S
H89   C79   1.080 1_554  S
C82   N28   1.435 .      S
C82   H91   1.108 .      S
C82   H92   1.091 .      S
C82   H93   1.082 .      S
N28   C83   1.451 .      S
N28   H94   1.039 1_455  S
C83   C84   1.459 1_455  S
C83   H95   1.095 .      S
C83   H96   1.108 .      S
C84   C83   1.459 1_655  S
N29   Zn1   1.970 1_556  S
C86   H97   1.076 .      S
C87   H98   1.065 .      S
C88   H99   1.073 .      S
C89   H100  1.070 .      S
H94   N28   1.039 1_655  S
C91   N31   1.450 .      S
C91   H101  1.109 .      S
C91   H102  1.091 .      S
C91   H103  1.105 .      S
N31   C92   1.451 .      S
N31   H104  1.038 .      S
C92   C93   1.424 .      S
C92   H105  1.072 .      S
C92   H106  1.101 .      S
N32   Zn2   2.031 1_545  S
C95   H107  1.081 .      S
C96   H108  1.081 .      S
C97   H109  1.079 .      S
C98   H110  1.081 .      S
C100  N34   1.437 1_565  S
C100  H111  1.109 .      S
C100  H112  1.107 .      S
C100  H113  1.108 .      S
N34   C100  1.437 1_545  S
N34   C101  1.449 1_655  S
N34   H114  1.037 .      S
C101  N34   1.449 1_455  S
C101  C102  1.471 .      S
C101  H115  1.095 1_545  S
C101  H116  1.109 1_445  S
C104  H117  1.081 .      S
C105  H118  1.081 .      S
C106  H119  1.081 .      S
C107  H120  1.081 .      S
N36   Zn2   2.132 1_545  S
H115  C101  1.095 1_565  S
H116  C101  1.109 1_665  S
C109  N37   1.457 .      S
C109  H121  1.107 .      S
C109  H122  1.103 .      S
C109  H123  1.109 .      S
N37   C110  1.453 .      S
N37   H124  1.043 .      S
C110  C111  1.479 .      S
C110  H125  1.108 .      S
C110  H126  1.101 .      S
C113  H127  1.081 .      S
C114  H128  1.081 .      S
C115  H129  1.081 .      S
C116  H130  1.081 .      S
C118  N40   1.449 .      S
C118  H131  1.109 .      S
C118  H132  1.109 .      S
C118  H133  1.096 .      S
N40   C119  1.457 .      S
N40   H134  1.036 .      S
C119  C120  1.497 .      S
C119  H135  1.085 .      S
C119  H136  1.109 .      S
C122  H137  1.070 .      S
C123  H138  1.071 .      S
C124  H139  1.081 .      S
C125  H140  1.057 .      S
C127  N43   1.454 .      S
C127  H141  1.106 .      S
C127  H142  1.101 .      S
C127  H143  1.086 .      S
N43   C128  1.450 .      S
N43   H144  1.036 .      S
C128  C129  1.489 .      S
C128  H145  1.103 .      S
C128  H146  1.095 .      S
C131  H147  1.059 .      S
C132  H148  1.078 .      S
C133  H149  1.079 .      S
C134  H150  1.069 .      S
C136  N46   1.444 .      S
C136  H151  1.109 .      S
C136  H152  1.106 .      S
C136  H153  1.108 .      S
N46   C137  1.446 .      S
N46   H154  1.039 .      S
C137  C138  1.480 .      S
C137  H155  1.109 .      S
C137  H156  1.108 .      S
N47   Zn9   2.072 1_544  S
C140  H157  1.075 .      S
C141  H158  1.080 .      S
C142  H159  1.076 .      S
C143  H160  1.077 .      S
N48   Zn1   2.097 1_455  S
C145  N49   1.437 .      S
C145  H161  1.096 .      S
C145  H162  1.105 .      S
C145  H163  1.103 1_655  S
N49   C146  1.451 1_565  S
N49   H164  1.044 1_556  S
C146  N49   1.451 1_545  S
C146  C147  1.426 1_556  S
C146  H165  1.073 .      S
C146  H166  1.102 .      S
C147  C146  1.426 1_554  S
N50   Zn9   2.029 1_544  S
C149  H167  1.082 .      S
C150  H168  1.081 .      S
C151  H169  1.081 .      S
C152  H170  1.070 .      S
H163  C145  1.103 1_455  S
H164  N49   1.044 1_554  S
C154  N52   1.450 .      S
C154  H171  1.108 .      S
C154  H172  1.100 .      S
C154  H173  1.107 .      S
N52   C155  1.419 .      S
N52   H174  1.027 .      S
C155  C156  1.453 1_545  S
C155  H175  1.091 .      S
C155  H176  1.086 .      S
C156  C155  1.453 1_565  S
C158  H177  1.071 .      S
C159  H178  1.079 .      S
C160  H179  1.080 .      S
C161  H180  1.063 .      S
C163  N55   1.444 .      S
C163  H181  1.104 .      S
C163  H182  1.100 .      S
C163  H183  1.096 .      S
N55   C164  1.448 .      S
N55   H184  1.044 .      S
C164  C165  1.484 .      S
C164  H185  1.109 .      S
C164  H186  1.099 .      S
C167  H187  1.073 .      S
C168  H188  1.081 .      S
C169  H189  1.081 .      S
C170  H190  1.073 .      S
C172  N58   1.453 .      S
C172  H191  1.107 .      S
C172  H192  1.107 .      S
C172  H193  1.109 .      S
N58   C173  1.452 .      S
N58   H194  1.044 .      S
C173  C174  1.483 .      S
C173  H195  1.090 .      S
C173  H196  1.100 .      S
C176  H197  1.071 .      S
C177  H198  1.078 .      S
C178  H199  1.081 .      S
C179  H200  1.081 .      S
C181  N61   1.454 .      S
C181  H201  1.109 .      S
C181  H202  1.109 .      S
C181  H203  1.109 1_455  S
N61   C182  1.452 .      S
N61   H204  1.037 1_455  S
C182  C183  1.487 .      S
C182  H205  1.098 .      S
C182  H206  1.097 .      S
C185  H207  1.064 .      S
C186  H208  1.070 .      S
C187  H209  1.081 .      S
C188  H210  1.053 .      S
H203  C181  1.109 1_655  S
H204  N61   1.037 1_655  S
C190  N64   1.451 .      S
C190  H211  1.106 .      S
C190  H212  1.105 .      S
C190  H213  1.107 .      S
N64   C191  1.456 .      S
N64   H214  1.044 .      S
C191  C192  1.482 .      S
C191  H215  1.105 .      S
C191  H216  1.107 .      S
N65   Zn3   2.025 1_655  S
C194  H217  1.064 .      S
C195  H218  1.079 .      S
C196  H219  1.061 .      S
C197  H220  1.079 .      S
C199  N67   1.451 .      S
C199  H221  1.107 .      S
C199  H222  1.110 .      S
C199  H223  1.104 .      S
N67   C200  1.451 .      S
N67   H224  1.044 1_655  S
C200  C201  1.482 .      S
C200  H225  1.104 .      S
C200  H226  1.106 .      S
C203  H227  1.081 .      S
C204  H228  1.081 .      S
C205  H229  1.081 .      S
C206  H230  1.079 .      S
H224  N67   1.044 1_455  S
C208  N70   1.438 .      S
C208  H231  1.094 .      S
C208  H232  1.097 .      S
C208  H233  1.105 .      S
N70   C209  1.440 .      S
N70   H234  1.035 .      S
C209  C210  1.459 1_455  S
C209  H235  1.100 .      S
C209  H236  1.102 .      S
C210  C209  1.459 1_655  S
C212  H237  1.081 .      S
C213  H238  1.081 .      S
C214  H239  1.081 .      S
C215  H240  1.081 .      S
N72   Zn3   2.078 1_655  S
C3    N2    1.394 .      A
C3    N3    1.390 .      A
N2    C4    1.352 .      A
C4    C5    1.382 1_655  A
C4    C9    1.345 .      A
C5    C4    1.382 1_455  A
C5    C6    1.390 1_455  A
C6    C5    1.390 1_655  A
C6    C7    1.392 .      A
C7    C8    1.387 .      A
C8    C9    1.367 .      A
C9    N3    1.338 .      A
C12   N5    1.367 1_556  A
C12   N6    1.363 .      A
N5    C12   1.367 1_554  A
N5    C13   1.339 .      A
C13   C14   1.358 .      A
C13   C18   1.359 .      A
C14   C15   1.385 .      A
C15   C16   1.383 .      A
C16   C17   1.378 .      A
C17   C18   1.351 .      A
C18   N6    1.332 1_554  A
N6    C18   1.332 1_556  A
C21   N8    1.386 .      A
C21   N9    1.350 .      A
N8    C22   1.342 .      A
C22   C23   1.357 .      A
C22   C27   1.359 .      A
C23   C24   1.364 .      A
C24   C25   1.391 .      A
C25   C26   1.380 .      A
C26   C27   1.360 .      A
C27   N9    1.330 .      A
C30   N11   1.390 .      A
C30   N12   1.374 .      A
N11   C31   1.369 .      A
C31   C32   1.386 .      A
C31   C36   1.372 .      A
C32   C33   1.386 .      A
C33   C34   1.385 .      A
C34   C35   1.378 .      A
C35   C36   1.363 .      A
C36   N12   1.332 .      A
C39   N14   1.385 .      A
C39   N15   1.383 .      A
N14   C40   1.348 1_556  A
C40   N14   1.348 1_554  A
C40   C41   1.367 .      A
C40   C45   1.363 .      A
C41   C42   1.385 .      A
C42   C43   1.390 .      A
C43   C44   1.384 .      A
C44   C45   1.370 .      A
C45   N15   1.344 1_554  A
N15   C45   1.344 1_556  A
C48   N17   1.382 .      A
C48   N18   1.360 .      A
N17   C49   1.336 .      A
C49   C50   1.368 .      A
C49   C54   1.358 .      A
C50   C51   1.378 .      A
C51   C52   1.386 .      A
C52   C53   1.385 .      A
C53   C54   1.364 .      A
C54   N18   1.348 .      A
C57   N20   1.355 1_655  A
C57   N21   1.375 .      A
N20   C57   1.355 1_455  A
N20   C58   1.334 .      A
C58   C59   1.358 .      A
C58   C63   1.353 1_455  A
C59   C60   1.377 .      A
C60   C61   1.378 .      A
C61   C62   1.372 1_455  A
C62   C61   1.372 1_655  A
C62   C63   1.359 .      A
C63   C58   1.353 1_655  A
C63   N21   1.343 .      A
C66   N23   1.392 .      A
C66   N24   1.372 .      A
N23   C67   1.354 .      A
C67   C68   1.367 .      A
C67   C72   1.362 .      A
C68   C69   1.386 .      A
C69   C70   1.390 .      A
C70   C71   1.384 .      A
C71   C72   1.364 .      A
C72   N24   1.334 .      A
C75   N26   1.394 .      A
C75   N27   1.386 .      A
N26   C76   1.341 .      A
C76   C77   1.374 .      A
C76   C81   1.349 .      A
C77   C78   1.381 .      A
C78   C79   1.390 .      A
C79   C80   1.388 .      A
C80   C81   1.375 .      A
C81   N27   1.343 .      A
C84   N29   1.370 .      A
C84   N30   1.367 .      A
N29   C85   1.329 .      A
C85   C86   1.364 1_556  A
C85   C90   1.352 .      A
C86   C85   1.364 1_554  A
C86   C87   1.369 .      A
C87   C88   1.377 1_554  A
C88   C87   1.377 1_556  A
C88   C89   1.386 .      A
C89   C90   1.377 .      A
C90   N30   1.357 .      A
C93   N32   1.364 .      A
C93   N33   1.363 .      A
N32   C94   1.341 .      A
C94   C95   1.367 1_545  A
C94   C99   1.371 .      A
C95   C94   1.367 1_565  A
C95   C96   1.384 .      A
C96   C97   1.392 1_565  A
C97   C96   1.392 1_545  A
C97   C98   1.388 .      A
C98   C99   1.374 .      A
C99   N33   1.353 .      A
C102  N35   1.385 1_455  A
C102  N36   1.387 .      A
N35   C102  1.385 1_655  A
N35   C103  1.346 1_655  A
C103  N35   1.346 1_455  A
C103  C104  1.371 1_455  A
C103  C108  1.373 .      A
C104  C103  1.371 1_655  A
C104  C105  1.387 1_655  A
C105  C104  1.387 1_455  A
C105  C106  1.394 .      A
C106  C107  1.387 .      A
C107  C108  1.370 .      A
C108  N36   1.351 .      A
C111  N38   1.375 .      A
C111  N39   1.367 .      A
N38   C112  1.339 .      A
C112  C113  1.372 .      A
C112  C117  1.367 .      A
C113  C114  1.384 .      A
C114  C115  1.391 .      A
C115  C116  1.387 .      A
C116  C117  1.376 .      A
C117  N39   1.357 .      A
C120  N41   1.367 1_455  A
C120  N42   1.382 .      A
N41   C120  1.367 1_655  A
N41   C121  1.342 .      A
C121  C122  1.370 .      A
C121  C126  1.338 1_655  A
C122  C123  1.395 .      A
C123  C124  1.377 .      A
C124  C125  1.368 1_655  A
C125  C124  1.368 1_455  A
C125  C126  1.356 .      A
C126  C121  1.338 1_455  A
C126  N42   1.335 .      A
C129  N44   1.384 .      A
C129  N45   1.379 .      A
N44   C130  1.342 .      A
C130  C131  1.352 .      A
C130  C135  1.357 .      A
C131  C132  1.382 .      A
C132  C133  1.386 .      A
C133  C134  1.374 .      A
C134  C135  1.372 .      A
C135  N45   1.339 .      A
C138  N47   1.381 .      A
C138  N48   1.380 .      A
N47   C139  1.325 1_544  A
C139  N47   1.325 1_566  A
C139  C140  1.343 .      A
C139  C144  1.358 1_565  A
C140  C141  1.373 .      A
C141  C142  1.376 .      A
C142  C143  1.394 1_565  A
C143  C142  1.394 1_545  A
C143  C144  1.381 .      A
C144  C139  1.358 1_545  A
C144  N48   1.355 1_556  A
N48   C144  1.355 1_554  A
C147  N50   1.357 .      A
C147  N51   1.374 .      A
N50   C148  1.343 .      A
C148  C149  1.370 .      A
C148  C153  1.368 .      A
C149  C150  1.384 .      A
C150  C151  1.391 .      A
C151  C152  1.386 .      A
C152  C153  1.371 .      A
C153  N51   1.352 .      A
C156  N53   1.386 .      A
C156  N54   1.373 .      A
N53   C157  1.335 .      A
C157  C158  1.352 .      A
C157  C162  1.355 .      A
C158  C159  1.383 .      A
C159  C160  1.387 .      A
C160  C161  1.387 .      A
C161  C162  1.358 .      A
C162  N54   1.343 .      A
C165  N56   1.390 .      A
C165  N57   1.371 .      A
N56   C166  1.356 .      A
C166  C167  1.377 .      A
C166  C171  1.364 .      A
C167  C168  1.385 .      A
C168  C169  1.389 .      A
C169  C170  1.383 .      A
C170  C171  1.366 .      A
C171  N57   1.341 .      A
C174  N59   1.399 .      A
C174  N60   1.376 .      A
N59   C175  1.355 .      A
C175  C176  1.373 .      A
C175  C180  1.368 .      A
C176  C177  1.385 .      A
C177  C178  1.389 .      A
C178  C179  1.382 .      A
C179  C180  1.372 .      A
C180  N60   1.340 .      A
C183  N62   1.371 .      A
C183  N63   1.374 .      A
N62   C184  1.345 .      A
C184  C185  1.377 .      A
C184  C189  1.349 .      A
C185  C186  1.376 .      A
C186  C187  1.379 .      A
C187  C188  1.375 .      A
C188  C189  1.367 .      A
C189  N63   1.343 .      A
C192  N65   1.379 .      A
C192  N66   1.381 .      A
N65   C193  1.330 .      A
C193  C194  1.357 .      A
C193  C198  1.353 .      A
C194  C195  1.372 .      A
C195  C196  1.378 .      A
C196  C197  1.377 .      A
C197  C198  1.358 .      A
C198  N66   1.341 .      A
C201  N68   1.386 .      A
C201  N69   1.392 .      A
N68   C202  1.348 .      A
C202  C203  1.372 1_655  A
C202  C207  1.371 .      A
C203  C202  1.372 1_455  A
C203  C204  1.386 .      A
C204  C205  1.392 .      A
C205  C206  1.386 .      A
C206  C207  1.372 1_455  A
C207  C206  1.372 1_655  A
C207  N69   1.346 .      A
C210  N71   1.381 .      A
C210  N72   1.370 .      A
N71   C211  1.342 .      A
C211  C212  1.371 .      A
C211  C216  1.372 .      A
C212  C213  1.384 .      A
C213  C214  1.391 .      A
C214  C215  1.389 .      A
C215  C216  1.375 .      A
C216  N72   1.356 .      A
