data_str_m1_o12004_PUN
_audit_creation_date              2015-10-01T06:32:26-0700
_symmetry_space_group_name_H-M    P1
_symmetry_Int_Tables_number       1
_space_group_crystal_system       triclinic
loop_
_symmetry_equiv_pos_as_xyz
  x,y,z
_cell_length_a                    30.8120911
_cell_length_b                    17.8928132
_cell_length_c                    39.7990403
_cell_angle_alpha                 88.2255403
_cell_angle_beta                  90.7827839
_cell_angle_gamma                 88.5967200
_cell_volume                      21922.4250627

loop_
_atom_site_label
_atom_site_type_symbol
_atom_site_description
_atom_site_fract_x
_atom_site_fract_y
_atom_site_fract_z
_atom_type_partial_charge
Zn1   Zn    Zn3+2 0.132663 0.338560 0.721307 0.000000
Zn2   Zn    Zn3+2 0.757547 0.651152 0.778080 0.000000
Zn3   Zn    Zn3+2 0.960257 0.812544 0.272969 0.000000
Zn4   Zn    Zn3+2 0.245668 0.795386 0.475246 0.000000
Zn5   Zn    Zn3+2 0.108677 0.586796 0.523538 0.000000
Zn6   Zn    Zn3+2 0.607223 0.862306 0.027589 0.000000
Zn7   Zn    Zn3+2 0.618366 0.095066 0.530869 0.000000
Zn8   Zn    Zn3+2 0.102671 0.386925 0.020836 0.000000
Zn9   Zn    Zn3+2 0.475465 0.651195 0.976979 0.000000
Zn10  Zn    Zn3+2 0.483856 0.309296 0.476071 0.000000
Zn11  Zn    Zn3+2 0.621097 0.751669 0.881312 0.000000
Zn12  Zn    Zn3+2 0.612613 0.179940 0.377032 0.000000
Zn13  Zn    Zn3+2 0.102194 0.706767 0.374070 0.000000
Zn14  Zn    Zn3+2 0.234910 0.602880 0.100035 0.000000
Zn15  Zn    Zn3+2 0.485560 0.885398 0.604320 0.000000
Zn16  Zn    Zn3+2 0.732514 0.876659 0.150883 0.000000
Zn17  Zn    Zn3+2 0.997053 0.564855 0.658368 0.000000
Zn18  Zn    Zn3+2 0.974341 0.381501 0.145551 0.000000
Zn19  Zn    Zn3+2 0.749019 0.078938 0.657069 0.000000
Zn20  Zn    Zn3+2 0.339938 0.090224 0.528013 0.000000
Zn21  Zn    Zn3+2 0.249836 0.374366 0.591757 0.000000
Zn22  Zn    Zn3+2 0.846558 0.356454 0.719824 0.000000
Zn23  Zn    Zn3+2 0.385447 0.385796 0.052245 0.000000
Zn24  Zn    Zn3+2 0.898359 0.858415 0.708318 0.000000
Zn25  Zn    Zn3+2 0.869203 0.099358 0.198733 0.000000
Zn26  Zn    Zn3+2 0.392666 0.589629 0.540855 0.000000
Zn27  Zn    Zn3+2 0.829904 0.587332 0.209007 0.000000
Zn28  Zn    Zn3+2 0.102471 0.610300 0.224438 0.000000
Zn29  Zn    Zn3+2 0.620542 0.865831 0.729823 0.000000
Zn30  Zn    Zn3+2 0.996375 0.133581 0.771356 0.000000
Zn31  Zn    Zn3+2 0.245549 0.180359 0.983485 0.000000
Zn32  Zn    Zn3+2 0.120949 0.260018 0.873372 0.000000
Zn33  Zn    Zn3+2 0.481581 0.074327 0.096930 0.000000
Zn34  Zn    Zn3+2 0.335510 0.868544 0.029641 0.000000
Zn35  Zn    Zn3+2 0.601244 0.088122 0.227216 0.000000
Zn36  Zn    Zn3+2 0.728613 0.311298 0.266650 0.000000
C1    C     C_3   0.175284 0.099771 0.773315 0.000000
N1    N     N_3   0.147949 0.149045 0.751912 0.000000
C2    C     C_3   0.109292 0.170742 0.770277 0.000000
C3    C     C_R   0.077941 0.210600 0.746593 0.000000
N2    N     N_R   0.095272 0.245106 0.718677 0.000000
C4    C     C_R   0.075712 0.209859 0.693288 0.000000
C5    C     C_R   0.086275 0.209857 0.660110 0.000000
C6    C     C_R   0.063344 0.165147 0.638727 0.000000
C7    C     C_R   0.029014 0.123747 0.650691 0.000000
C8    C     C_R   0.018229 0.125450 0.684296 0.000000
C9    C     C_R   0.043720 0.166177 0.705322 0.000000
N3    N     N_R   0.041894 0.170936 0.739016 0.000000
H1    H     H_    0.156969 0.050471 0.782117 0.000000
H2    H     H_    0.203576 0.080080 0.758802 0.000000
H3    H     H_    0.187307 0.130686 0.794955 0.000000
H4    H     H_    0.137842 0.116860 0.731960 0.000000
H5    H     H_    0.094063 0.119793 0.779871 0.000000
H6    H     H_    0.117510 0.202322 0.792366 0.000000
H7    H     H_    0.112359 0.242225 0.651241 0.000000
H8    H     H_    0.071580 0.163860 0.612434 0.000000
H9    H     H_    0.010254 0.091001 0.633639 0.000000
H10   H     H_    0.990552 0.095695 0.693316 0.000000
C10   C     C_3   0.070014 0.488086 0.809531 0.000000
N4    N     N_3   0.062585 0.411326 0.820329 0.000000
C11   C     C_3   0.078248 0.359906 0.795283 0.000000
C12   C     C_R   0.125509 0.340119 0.799142 0.000000
N5    N     N_R   0.150240 0.335536 0.770658 0.000000
C13   C     C_R   0.187832 0.304817 0.781917 0.000000
C14   C     C_R   0.222161 0.281790 0.762645 0.000000
C15   C     C_R   0.257770 0.247583 0.778158 0.000000
C16   C     C_R   0.257651 0.234439 0.812364 0.000000
C17   C     C_R   0.221680 0.253461 0.830878 0.000000
C18   C     C_R   0.186082 0.289408 0.815538 0.000000
N6    N     N_R   0.145850 0.307918 0.827769 0.000000
H11   H     H_    0.050996 0.526008 0.825549 0.000000
H12   H     H_    0.104840 0.500401 0.812408 0.000000
H13   H     H_    0.058451 0.498530 0.783428 0.000000
H14   H     H_    0.028943 0.407511 0.820858 0.000000
H15   H     H_    0.060014 0.308485 0.796803 0.000000
H16   H     H_    0.071870 0.383433 0.769696 0.000000
H17   H     H_    0.221903 0.289389 0.735976 0.000000
H18   H     H_    0.285396 0.230348 0.763570 0.000000
H19   H     H_    0.285515 0.207340 0.824752 0.000000
H20   H     H_    0.224146 0.241032 0.856677 0.000000
C19   C     C_3   0.234789 0.528502 0.468448 0.000000
N7    N     N_3   0.203345 0.563329 0.490341 0.000000
C20   C     C_3   0.197516 0.640311 0.479824 0.000000
C21   C     C_R   0.185446 0.687827 0.507943 0.000000
N8    N     N_R   0.146869 0.680039 0.524598 0.000000
C22   C     C_R   0.137294 0.751572 0.532819 0.000000
C23   C     C_R   0.097765 0.781529 0.541697 0.000000
C24   C     C_R   0.092488 0.858204 0.543257 0.000000
C25   C     C_R   0.125529 0.904541 0.533443 0.000000
C26   C     C_R   0.163972 0.874232 0.521978 0.000000
C27   C     C_R   0.169735 0.797840 0.523075 0.000000
N9    N     N_R   0.201172 0.758668 0.507972 0.000000
H21   H     H_    0.234353 0.467242 0.472356 0.000000
H22   H     H_    0.226084 0.540757 0.442004 0.000000
H23   H     H_    0.267691 0.549043 0.473327 0.000000
H24   H     H_    0.216556 0.564222 0.514197 0.000000
H25   H     H_    0.227916 0.660727 0.469891 0.000000
H26   H     H_    0.172212 0.646211 0.460217 0.000000
H27   H     H_    0.070497 0.747188 0.545974 0.000000
H28   H     H_    0.061617 0.882170 0.550563 0.000000
H29   H     H_    0.120385 0.964451 0.533286 0.000000
H30   H     H_    0.188430 0.910105 0.511991 0.000000
C28   C     C_3   0.496877 0.907192 0.947378 0.000000
N10   N     N_3   0.515189 0.879060 0.979313 0.000000
C29   C     C_3   0.525783 0.801434 0.973998 0.000000
C30   C     C_R   0.535699 0.759366 0.005446 0.000000
N11   N     N_R   0.562718 0.780584 0.030895 0.000000
C31   C     C_R   0.554299 0.729550 0.055778 0.000000
C32   C     C_R   0.567838 0.728033 0.089037 0.000000
C33   C     C_R   0.553812 0.671710 0.110490 0.000000
C34   C     C_R   0.523424 0.622112 0.099520 0.000000
C35   C     C_R   0.507301 0.628122 0.066985 0.000000
C36   C     C_R   0.524796 0.679960 0.044909 0.000000
N12   N     N_R   0.513689 0.696208 0.012427 0.000000
H31   H     H_    0.463242 0.887746 0.944175 0.000000
H32   H     H_    0.497546 0.968652 0.945870 0.000000
H33   H     H_    0.516653 0.887438 0.926499 0.000000
H34   H     H_    0.490640 0.880712 0.997062 0.000000
H35   H     H_    0.496708 0.775862 0.963633 0.000000
H36   H     H_    0.552348 0.795617 0.956399 0.000000
H37   H     H_    0.587523 0.770976 0.099011 0.000000
H38   H     H_    0.564595 0.669288 0.136469 0.000000
H39   H     H_    0.510624 0.580971 0.116936 0.000000
H40   H     H_    0.480551 0.594180 0.060211 0.000000
C37   C     C_3   0.487524 0.820345 0.107319 0.000000
N13   N     N_3   0.509336 0.856366 0.079266 0.000000
C38   C     C_3   0.535592 0.914557 0.092578 0.000000
C39   C     C_R   0.546912 0.971108 0.066557 0.000000
N14   N     N_R   0.580659 0.961000 0.044814 0.000000
C40   C     C_R   0.593007 0.032355 0.038604 0.000000
C41   C     C_R   0.627766 0.057181 0.020323 0.000000
C42   C     C_R   0.634034 0.133495 0.017588 0.000000
C43   C     C_R   0.606367 0.183231 0.033454 0.000000
C44   C     C_R   0.571882 0.157188 0.051993 0.000000
C45   C     C_R   0.565634 0.081673 0.053647 0.000000
N15   N     N_R   0.535579 0.044610 0.071153 0.000000
H41   H     H_    0.508605 0.818632 0.130157 0.000000
H42   H     H_    0.456826 0.849790 0.112066 0.000000
H43   H     H_    0.479642 0.762876 0.100897 0.000000
H44   H     H_    0.486194 0.879351 0.062619 0.000000
H45   H     H_    0.517201 0.943830 0.111647 0.000000
H46   H     H_    0.565795 0.890707 0.104338 0.000000
H47   H     H_    0.649316 0.018470 0.008092 0.000000
H48   H     H_    0.660971 0.154482 0.003294 0.000000
H49   H     H_    0.612166 0.242552 0.031707 0.000000
H50   H     H_    0.551479 0.194753 0.065742 0.000000
C46   C     C_3   0.653216 0.338817 0.465500 0.000000
N16   N     N_3   0.610952 0.327215 0.480348 0.000000
C47   C     C_3   0.600511 0.248810 0.478640 0.000000
C48   C     C_R   0.566737 0.224001 0.502600 0.000000
N17   N     N_R   0.529034 0.264215 0.507676 0.000000
C49   C     C_R   0.528640 0.269369 0.541386 0.000000
C50   C     C_R   0.501915 0.313038 0.560408 0.000000
C51   C     C_R   0.515572 0.327659 0.592721 0.000000
C52   C     C_R   0.556167 0.301962 0.603976 0.000000
C53   C     C_R   0.580492 0.254194 0.584596 0.000000
C54   C     C_R   0.562729 0.230177 0.555286 0.000000
N18   N     N_R   0.583622 0.192610 0.531412 0.000000
H51   H     H_    0.656213 0.307088 0.442165 0.000000
H52   H     H_    0.656532 0.399174 0.459152 0.000000
H53   H     H_    0.679489 0.321593 0.483462 0.000000
H54   H     H_    0.589381 0.356785 0.464637 0.000000
H55   H     H_    0.594740 0.232189 0.453117 0.000000
H56   H     H_    0.629218 0.219630 0.488766 0.000000
H57   H     H_    0.472251 0.337979 0.550192 0.000000
H58   H     H_    0.496428 0.364471 0.607987 0.000000
H59   H     H_    0.569353 0.321074 0.627415 0.000000
H60   H     H_    0.614478 0.245698 0.589528 0.000000
C55   C     C_3   0.242398 0.441693 0.974114 0.000000
N19   N     N_3   0.223402 0.396194 0.000646 0.000000
C56   C     C_3   0.197412 0.340677 0.985361 0.000000
C57   C     C_R   0.178954 0.285099 0.009100 0.000000
N20   N     N_R   0.193512 0.212568 0.009864 0.000000
C58   C     C_R   0.164543 0.177581 0.029667 0.000000
C59   C     C_R   0.163848 0.103577 0.040060 0.000000
C60   C     C_R   0.127343 0.078364 0.056252 0.000000
C61   C     C_R   0.092089 0.126409 0.060770 0.000000
C62   C     C_R   0.094324 0.201315 0.051469 0.000000
C63   C     C_R   0.132407 0.226678 0.038165 0.000000
N21   N     N_R   0.140932 0.295923 0.025883 0.000000
H61   H     H_    0.257089 0.491033 0.985193 0.000000
H62   H     H_    0.267792 0.409313 0.961501 0.000000
H63   H     H_    0.217329 0.461166 0.955495 0.000000
H64   H     H_    0.202182 0.431393 0.012410 0.000000
H65   H     H_    0.170163 0.369122 0.972043 0.000000
H66   H     H_    0.219896 0.309207 0.970069 0.000000
H67   H     H_    0.190941 0.065907 0.036643 0.000000
H68   H     H_    0.125725 0.020326 0.064415 0.000000
H69   H     H_    0.062769 0.105330 0.071805 0.000000
H70   H     H_    0.066135 0.237291 0.053371 0.000000
C64   C     C_3   0.040350 0.138482 0.962292 0.000000
N22   N     N_3   0.052851 0.204994 0.943274 0.000000
C65   C     C_3   0.088703 0.238173 0.960974 0.000000
C66   C     C_R   0.095057 0.315172 0.947335 0.000000
N23   N     N_R   0.100400 0.330664 0.913173 0.000000
C67   C     C_R   0.094350 0.405558 0.911816 0.000000
C68   C     C_R   0.103661 0.453700 0.885786 0.000000
C69   C     C_R   0.094407 0.529161 0.889472 0.000000
C70   C     C_R   0.075871 0.554414 0.918750 0.000000
C71   C     C_R   0.071186 0.505956 0.946135 0.000000
C72   C     C_R   0.084030 0.432296 0.942729 0.000000
N24   N     N_R   0.088915 0.377805 0.966942 0.000000
H71   H     H_    0.017522 0.106366 0.946905 0.000000
H72   H     H_    0.069472 0.102835 0.968560 0.000000
H73   H     H_    0.023964 0.154683 0.985720 0.000000
H74   H     H_    0.064590 0.187528 0.920417 0.000000
H75   H     H_    0.079311 0.242772 0.987333 0.000000
H76   H     H_    0.118704 0.203453 0.958568 0.000000
H77   H     H_    0.119920 0.433500 0.863979 0.000000
H78   H     H_    0.101545 0.568890 0.869428 0.000000
H79   H     H_    0.068041 0.613245 0.921016 0.000000
H80   H     H_    0.060675 0.526886 0.969940 0.000000
C73   C     C_3   0.390696 0.695092 0.088155 0.000000
N25   N     N_3   0.390889 0.756071 0.063475 0.000000
C74   C     C_3   0.421989 0.737651 0.038039 0.000000
C75   C     C_R   0.403646 0.752925 0.004063 0.000000
N26   N     N_R   0.420421 0.718403 0.976587 0.000000
C76   C     C_R   0.392792 0.741971 0.951781 0.000000
C77   C     C_R   0.392422 0.721169 0.918968 0.000000
C78   C     C_R   0.360042 0.751896 0.897908 0.000000
C79   C     C_R   0.329491 0.802771 0.909845 0.000000
C80   C     C_R   0.330090 0.822291 0.943262 0.000000
C81   C     C_R   0.361815 0.789918 0.963868 0.000000
N27   N     N_R   0.367676 0.798253 0.997216 0.000000
H81   H     H_    0.368285 0.710782 0.108366 0.000000
H82   H     H_    0.379750 0.643657 0.076460 0.000000
H83   H     H_    0.423539 0.685028 0.099144 0.000000
H84   H     H_    0.404117 0.799710 0.076293 0.000000
H85   H     H_    0.451007 0.771668 0.041353 0.000000
H86   H     H_    0.430230 0.677416 0.039783 0.000000
H87   H     H_    0.415786 0.680635 0.910139 0.000000
H88   H     H_    0.358513 0.736240 0.871911 0.000000
H89   H     H_    0.304637 0.826432 0.892984 0.000000
H90   H     H_    0.305981 0.860565 0.952743 0.000000
C82   C     C_3   0.532699 0.662679 0.772536 0.000000
N28   N     N_3   0.563094 0.723373 0.769547 0.000000
C83   C     C_3   0.557967 0.768344 0.798825 0.000000
C84   C     C_R   0.596676 0.814218 0.805597 0.000000
N29   N     N_R   0.614702 0.866278 0.783360 0.000000
C85   C     C_R   0.641878 0.902564 0.804479 0.000000
C86   C     C_R   0.667667 0.963551 0.799240 0.000000
C87   C     C_R   0.690718 0.992353 0.825745 0.000000
C88   C     C_R   0.695194 0.952024 0.855598 0.000000
C89   C     C_R   0.673430 0.886413 0.859558 0.000000
C90   C     C_R   0.643406 0.868355 0.835308 0.000000
N30   N     N_R   0.614717 0.813567 0.837509 0.000000
H91   H     H_    0.500507 0.684758 0.780241 0.000000
H92   H     H_    0.528971 0.636192 0.747900 0.000000
H93   H     H_    0.545051 0.620028 0.791350 0.000000
H94   H     H_    0.552432 0.757043 0.749166 0.000000
H95   H     H_    0.528913 0.805136 0.795469 0.000000
H96   H     H_    0.553386 0.731503 0.821181 0.000000
H97   H     H_    0.673548 0.987347 0.775532 0.000000
H98   H     H_    0.709901 0.041487 0.821619 0.000000
H99   H     H_    0.717101 0.969937 0.875035 0.000000
H100  H     H_    0.679760 0.851649 0.881563 0.000000
C91   C     C_3   0.453002 0.782008 0.846942 0.000000
N31   N     N_3   0.475993 0.724029 0.867066 0.000000
C92   C     C_3   0.501624 0.759839 0.892650 0.000000
C93   C     C_R   0.530183 0.702646 0.910558 0.000000
N32   N     N_R   0.513243 0.647875 0.931837 0.000000
C94   C     C_R   0.542103 0.590850 0.927951 0.000000
C95   C     C_R   0.538295 0.517102 0.937711 0.000000
C96   C     C_R   0.573558 0.469153 0.933338 0.000000
C97   C     C_R   0.611549 0.495649 0.919502 0.000000
C98   C     C_R   0.613408 0.568860 0.907474 0.000000
C99   C     C_R   0.576985 0.613712 0.909923 0.000000
N33   N     N_R   0.570767 0.684396 0.898069 0.000000
H101  H     H_    0.433258 0.755679 0.827256 0.000000
H102  H     H_    0.431385 0.815243 0.863099 0.000000
H103  H     H_    0.476260 0.820072 0.834835 0.000000
H104  H     H_    0.496790 0.694670 0.851507 0.000000
H105  H     H_    0.522171 0.802908 0.880768 0.000000
H106  H     H_    0.478794 0.785288 0.910208 0.000000
H107  H     H_    0.508381 0.496162 0.947419 0.000000
H108  H     H_    0.571725 0.410976 0.941231 0.000000
H109  H     H_    0.639375 0.458296 0.917157 0.000000
H110  H     H_    0.642492 0.589448 0.896370 0.000000
C100  C     C_3   0.701415 0.653194 0.994052 0.000000
N34   N     N_3   0.683056 0.728958 0.991067 0.000000
C101  C     C_3   0.644337 0.728375 0.969691 0.000000
C102  C     C_R   0.633634 0.805357 0.956230 0.000000
N35   N     N_R   0.621977 0.864041 0.976449 0.000000
C103  C     C_R   0.608971 0.917897 0.953450 0.000000
C104  C     C_R   0.586887 0.984071 0.958713 0.000000
C105  C     C_R   0.573852 0.029959 0.931802 0.000000
C106  C     C_R   0.574804 0.002627 0.899924 0.000000
C107  C     C_R   0.589793 0.930583 0.895425 0.000000
C108  C     C_R   0.610707 0.891617 0.921739 0.000000
N36   N     N_R   0.626179 0.820233 0.922323 0.000000
H111  H     H_    0.727984 0.651261 0.013163 0.000000
H112  H     H_    0.676019 0.613695 0.001906 0.000000
H113  H     H_    0.714654 0.635636 0.969782 0.000000
H114  H     H_    0.705932 0.763981 0.980295 0.000000
H115  H     H_    0.649618 0.690921 0.948440 0.000000
H116  H     H_    0.616736 0.707054 0.984277 0.000000
H117  H     H_    0.574131 0.996245 0.982404 0.000000
H118  H     H_    0.557101 0.082526 0.936088 0.000000
H119  H     H_    0.559468 0.034320 0.879261 0.000000
H120  H     H_    0.581772 0.905575 0.872287 0.000000
C109  C     C_3   0.645107 0.523826 0.830456 0.000000
N37   N     N_3   0.652454 0.575718 0.802443 0.000000
C110  C     C_3   0.647352 0.652780 0.812792 0.000000
C111  C     C_R   0.684599 0.675264 0.833808 0.000000
N38   N     N_R   0.677875 0.698069 0.866133 0.000000
C112  C     C_R   0.717989 0.690549 0.879757 0.000000
C113  C     C_R   0.731816 0.711723 0.910654 0.000000
C114  C     C_R   0.773926 0.692693 0.920705 0.000000
C115  C     C_R   0.800963 0.652909 0.899691 0.000000
C116  C     C_R   0.787471 0.637859 0.867335 0.000000
C117  C     C_R   0.746636 0.663217 0.857009 0.000000
N39   N     N_R   0.727686 0.660657 0.826117 0.000000
H121  H     H_    0.669577 0.530493 0.850640 0.000000
H122  H     H_    0.611725 0.532072 0.839899 0.000000
H123  H     H_    0.648285 0.465882 0.821525 0.000000
H124  H     H_    0.626864 0.567320 0.785678 0.000000
H125  H     H_    0.644622 0.690271 0.790446 0.000000
H126  H     H_    0.617501 0.658185 0.827707 0.000000
H127  H     H_    0.710792 0.743737 0.926097 0.000000
H128  H     H_    0.785590 0.707806 0.945256 0.000000
H129  H     H_    0.833490 0.636848 0.908046 0.000000
H130  H     H_    0.809611 0.611690 0.850200 0.000000
C118  C     C_3   0.709415 0.981603 0.316660 0.000000
N40   N     N_3   0.663657 0.997404 0.309497 0.000000
C119  C     C_3   0.655039 0.076349 0.314207 0.000000
C120  C     C_R   0.608106 0.096239 0.308763 0.000000
N41   N     N_R   0.584870 0.091965 0.278498 0.000000
C121  C     C_R   0.546831 0.126527 0.285984 0.000000
C122  C     C_R   0.512649 0.145319 0.264414 0.000000
C123  C     C_R   0.480001 0.192773 0.274882 0.000000
C124  C     C_R   0.483394 0.225408 0.305651 0.000000
C125  C     C_R   0.518388 0.207863 0.326611 0.000000
C126  C     C_R   0.548228 0.153677 0.317659 0.000000
N42   N     N_R   0.586219 0.133926 0.333391 0.000000
H131  H     H_    0.716702 0.921567 0.312629 0.000000
H132  H     H_    0.729658 0.015849 0.299607 0.000000
H133  H     H_    0.717182 0.993967 0.343177 0.000000
H134  H     H_    0.645975 0.967777 0.327461 0.000000
H135  H     H_    0.663212 0.088358 0.340574 0.000000
H136  H     H_    0.675306 0.111078 0.297782 0.000000
H137  H     H_    0.510476 0.125442 0.239647 0.000000
H138  H     H_    0.453020 0.207742 0.258164 0.000000
H139  H     H_    0.459338 0.266614 0.312902 0.000000
H140  H     H_    0.522117 0.239279 0.348630 0.000000
C127  C     C_3   0.571669 0.386518 0.298358 0.000000
N43   N     N_3   0.617823 0.368806 0.302116 0.000000
C128  C     C_3   0.622945 0.289831 0.310509 0.000000
C129  C     C_R   0.665732 0.270751 0.326889 0.000000
N44   N     N_R   0.706840 0.283717 0.314227 0.000000
C130  C     C_R   0.732744 0.252869 0.338561 0.000000
C131  C     C_R   0.777050 0.249346 0.339472 0.000000
C132  C     C_R   0.797263 0.204789 0.364314 0.000000
C133  C     C_R   0.772753 0.158546 0.384737 0.000000
C134  C     C_R   0.727900 0.163044 0.382875 0.000000
C135  C     C_R   0.708864 0.217045 0.362317 0.000000
N45   N     N_R   0.666149 0.229251 0.356411 0.000000
H141  H     H_    0.567186 0.441865 0.285295 0.000000
H142  H     H_    0.555662 0.343437 0.283488 0.000000
H143  H     H_    0.556508 0.388979 0.323407 0.000000
H144  H     H_    0.628757 0.397878 0.322722 0.000000
H145  H     H_    0.598116 0.275896 0.329141 0.000000
H146  H     H_    0.617511 0.255638 0.288548 0.000000
H147  H     H_    0.795329 0.277955 0.320633 0.000000
H148  H     H_    0.832286 0.201032 0.365858 0.000000
H149  H     H_    0.788829 0.117454 0.401359 0.000000
H150  H     H_    0.708256 0.122256 0.395108 0.000000
C136  C     C_3   0.473964 0.068505 0.400097 0.000000
N46   N     N_3   0.496995 0.136010 0.391478 0.000000
C137  C     C_3   0.511912 0.168739 0.422303 0.000000
C138  C     C_R   0.530566 0.242929 0.415448 0.000000
N47   N     N_R   0.567246 0.255935 0.396561 0.000000
C139  C     C_R   0.569796 0.331337 0.397642 0.000000
C140  C     C_R   0.603469 0.375280 0.387709 0.000000
C141  C     C_R   0.600717 0.451135 0.393612 0.000000
C142  C     C_R   0.565703 0.481317 0.410624 0.000000
C143  C     C_R   0.533789 0.435452 0.423034 0.000000
C144  C     C_R   0.536702 0.360691 0.416213 0.000000
N48   N     N_R   0.513429 0.305516 0.430037 0.000000
H151  H     H_    0.471566 0.033568 0.377644 0.000000
H152  H     H_    0.491399 0.036403 0.420508 0.000000
H153  H     H_    0.440767 0.083852 0.408328 0.000000
H154  H     H_    0.473267 0.173081 0.381333 0.000000
H155  H     H_    0.483147 0.180165 0.437345 0.000000
H156  H     H_    0.535528 0.131585 0.436095 0.000000
H157  H     H_    0.632257 0.351678 0.377040 0.000000
H158  H     H_    0.626648 0.486901 0.385625 0.000000
H159  H     H_    0.564349 0.540458 0.415429 0.000000
H160  H     H_    0.507601 0.457954 0.437632 0.000000
C145  C     C_3   0.759939 0.096185 0.471789 0.000000
N49   N     N_3   0.720140 0.080343 0.453611 0.000000
C146  C     C_3   0.688928 0.141145 0.458864 0.000000
C147  C     C_R   0.644199 0.115666 0.451842 0.000000
N50   N     N_R   0.628715 0.106057 0.419164 0.000000
C148  C     C_R   0.605173 0.044786 0.423267 0.000000
C149  C     C_R   0.586264 0.005456 0.398092 0.000000
C150  C     C_R   0.563621 0.942556 0.406845 0.000000
C151  C     C_R   0.558670 0.922739 0.440374 0.000000
C152  C     C_R   0.577127 0.964236 0.465373 0.000000
C153  C     C_R   0.601764 0.024938 0.456707 0.000000
N51   N     N_R   0.624431 0.072238 0.476464 0.000000
H161  H     H_    0.786367 0.058146 0.463485 0.000000
H162  H     H_    0.769113 0.154925 0.466577 0.000000
H163  H     H_    0.755371 0.086601 0.499164 0.000000
H164  H     H_    0.707939 0.031389 0.464377 0.000000
H165  H     H_    0.690781 0.153497 0.485366 0.000000
H166  H     H_    0.696504 0.191626 0.443565 0.000000
H167  H     H_    0.590520 0.020735 0.372072 0.000000
H168  H     H_    0.548996 0.909693 0.387576 0.000000
H169  H     H_    0.539580 0.874849 0.447182 0.000000
H170  H     H_    0.570100 0.948734 0.490497 0.000000
C154  C     C_3   0.082272 0.417468 0.336877 0.000000
N52   N     N_3   0.111384 0.475564 0.325559 0.000000
C155  C     C_3   0.085229 0.540902 0.315112 0.000000
C156  C     C_R   0.113696 0.604530 0.306648 0.000000
N53   N     N_R   0.127491 0.656900 0.329556 0.000000
C157  C     C_R   0.155616 0.696703 0.310458 0.000000
C158  C     C_R   0.176576 0.761500 0.318030 0.000000
C159  C     C_R   0.201213 0.797371 0.294151 0.000000
C160  C     C_R   0.203228 0.770874 0.262189 0.000000
C161  C     C_R   0.179677 0.709628 0.253921 0.000000
C162  C     C_R   0.156273 0.672604 0.278306 0.000000
N54   N     N_R   0.127954 0.617224 0.274061 0.000000
H171  H     H_    0.067207 0.433236 0.360881 0.000000
H172  H     H_    0.056533 0.409482 0.317735 0.000000
H173  H     H_    0.101002 0.364174 0.340973 0.000000
H174  H     H_    0.127632 0.456620 0.304502 0.000000
H175  H     H_    0.067832 0.527149 0.291785 0.000000
H176  H     H_    0.062631 0.556450 0.335308 0.000000
H177  H     H_    0.173117 0.787885 0.341236 0.000000
H178  H     H_    0.217922 0.847692 0.300297 0.000000
H179  H     H_    0.221915 0.799757 0.243258 0.000000
H180  H     H_    0.180790 0.693022 0.228695 0.000000
C163  C     C_3   0.094286 0.942995 0.303010 0.000000
N55   N     N_3   0.068873 0.886643 0.286664 0.000000
C164  C     C_3   0.075585 0.814987 0.304406 0.000000
C165  C     C_R   0.037647 0.792452 0.324658 0.000000
N56   N     N_R   0.043517 0.757827 0.355771 0.000000
C166  C     C_R   0.002287 0.760483 0.367911 0.000000
C167  C     C_R   0.983976 0.719821 0.393849 0.000000
C168  C     C_R   0.941420 0.736797 0.402358 0.000000
C169  C     C_R   0.916515 0.788409 0.383184 0.000000
C170  C     C_R   0.932764 0.817633 0.353493 0.000000
C171  C     C_R   0.975268 0.800228 0.346268 0.000000
N57   N     N_R   0.995003 0.812316 0.317080 0.000000
H181  H     H_    0.081170 0.953867 0.328160 0.000000
H182  H     H_    0.129102 0.925673 0.304631 0.000000
H183  H     H_    0.091943 0.995741 0.287661 0.000000
H184  H     H_    0.083172 0.881046 0.263313 0.000000
H185  H     H_    0.083595 0.771815 0.286210 0.000000
H186  H     H_    0.102017 0.820042 0.322841 0.000000
H187  H     H_    0.000840 0.673685 0.406524 0.000000
H188  H     H_    0.927031 0.707790 0.423501 0.000000
H189  H     H_    0.883171 0.800150 0.389766 0.000000
H190  H     H_    0.912458 0.851009 0.336154 0.000000
C172  C     C_3   0.260138 0.648002 0.354068 0.000000
N58   N     N_3   0.247521 0.708228 0.375969 0.000000
C173  C     C_3   0.211478 0.684516 0.396510 0.000000
C174  C     C_R   0.187385 0.750429 0.409922 0.000000
N59   N     N_R   0.204702 0.801203 0.431845 0.000000
C175  C     C_R   0.177143 0.861005 0.426735 0.000000
C176  C     C_R   0.178267 0.930012 0.441017 0.000000
C177  C     C_R   0.146719 0.983293 0.431648 0.000000
C178  C     C_R   0.114574 0.967395 0.408431 0.000000
C179  C     C_R   0.113344 0.897542 0.394685 0.000000
C180  C     C_R   0.144577 0.845136 0.404664 0.000000
N60   N     N_R   0.148562 0.774078 0.394998 0.000000
H191  H     H_    0.268150 0.596594 0.369417 0.000000
H192  H     H_    0.289127 0.664502 0.339684 0.000000
H193  H     H_    0.233669 0.636456 0.336053 0.000000
H194  H     H_    0.239523 0.756536 0.361860 0.000000
H195  H     H_    0.188703 0.653914 0.380753 0.000000
H196  H     H_    0.224448 0.647310 0.416483 0.000000
H197  H     H_    0.202945 0.944198 0.458623 0.000000
H198  H     H_    0.147311 0.038003 0.442405 0.000000
H199  H     H_    0.090258 0.009648 0.401204 0.000000
H200  H     H_    0.088255 0.884516 0.376859 0.000000
C181  C     C_3   0.169419 0.477401 0.388004 0.000000
N61   N     N_3   0.144006 0.543235 0.397190 0.000000
C182  C     C_3   0.125076 0.527650 0.429611 0.000000
C183  C     C_R   0.099649 0.593407 0.441270 0.000000
N62   N     N_R   0.088829 0.654460 0.420298 0.000000
C184  C     C_R   0.066695 0.698448 0.441581 0.000000
C185  C     C_R   0.053007 0.771687 0.436832 0.000000
C186  C     C_R   0.027108 0.803953 0.460755 0.000000
C187  C     C_R   0.015766 0.762927 0.489147 0.000000
C188  C     C_R   0.033621 0.692133 0.495100 0.000000
C189  C     C_R   0.060870 0.663136 0.471561 0.000000
N63   N     N_R   0.084804 0.599777 0.474098 0.000000
H201  H     H_    0.184813 0.488289 0.363372 0.000000
H202  H     H_    0.195282 0.463884 0.406849 0.000000
H203  H     H_    0.148290 0.428415 0.386492 0.000000
H204  H     H_    0.118352 0.550065 0.380065 0.000000
H205  H     H_    0.103054 0.479942 0.427488 0.000000
H206  H     H_    0.151282 0.514338 0.447692 0.000000
H207  H     H_    0.059274 0.802011 0.414142 0.000000
H208  H     H_    0.014329 0.860338 0.456624 0.000000
H209  H     H_    0.994310 0.787322 0.507308 0.000000
H210  H     H_    0.025514 0.660957 0.517494 0.000000
C190  C     C_3   0.130644 0.764838 0.085636 0.000000
N64   N     N_3   0.146668 0.696050 0.102543 0.000000
C191  C     C_3   0.148674 0.708361 0.138361 0.000000
C192  C     C_R   0.168687 0.641702 0.158019 0.000000
N65   N     N_R   0.154128 0.613674 0.189077 0.000000
C193  C     C_R   0.185754 0.562783 0.197593 0.000000
C194  C     C_R   0.186806 0.514578 0.225263 0.000000
C195  C     C_R   0.220511 0.462341 0.228443 0.000000
C196  C     C_R   0.251055 0.456507 0.203376 0.000000
C197  C     C_R   0.248327 0.503078 0.174998 0.000000
C198  C     C_R   0.216116 0.557763 0.173071 0.000000
N66   N     N_R   0.206060 0.605486 0.147104 0.000000
H211  H     H_    0.123743 0.753952 0.058845 0.000000
H212  H     H_    0.100399 0.785717 0.097239 0.000000
H213  H     H_    0.155673 0.808196 0.086991 0.000000
H214  H     H_    0.178461 0.689592 0.094837 0.000000
H215  H     H_    0.167278 0.758582 0.142930 0.000000
H216  H     H_    0.116515 0.724842 0.146267 0.000000
H217  H     H_    0.161403 0.514542 0.243465 0.000000
H218  H     H_    0.222050 0.423853 0.249928 0.000000
H219  H     H_    0.276250 0.413433 0.205440 0.000000
H220  H     H_    0.270083 0.493745 0.154839 0.000000
C199  C     C_3   0.290135 0.643552 0.974650 0.000000
N67   N     N_3   0.288903 0.703017 0.998630 0.000000
C200  C     C_3   0.297261 0.671154 0.032192 0.000000
C201  C     C_R   0.285022 0.725690 0.058452 0.000000
N68   N     N_R   0.297636 0.799495 0.058470 0.000000
C202  C     C_R   0.277868 0.825146 0.085747 0.000000
C203  C     C_R   0.274034 0.897655 0.095283 0.000000
C204  C     C_R   0.255316 0.911040 0.125956 0.000000
C205  C     C_R   0.243903 0.851426 0.146901 0.000000
C206  C     C_R   0.246410 0.778975 0.135681 0.000000
C207  C     C_R   0.258831 0.768786 0.103198 0.000000
N69   N     N_R   0.260036 0.705395 0.085683 0.000000
H221  H     H_    0.257249 0.635203 0.964225 0.000000
H222  H     H_    0.311405 0.659355 0.953632 0.000000
H223  H     H_    0.302219 0.590831 0.986826 0.000000
H224  H     H_    0.257426 0.724136 0.997690 0.000000
H225  H     H_    0.277536 0.620942 0.036340 0.000000
H226  H     H_    0.331982 0.655121 0.034483 0.000000
H227  H     H_    0.284809 0.942535 0.079139 0.000000
H228  H     H_    0.252135 0.967634 0.134518 0.000000
H229  H     H_    0.232478 0.861685 0.171942 0.000000
H230  H     H_    0.239079 0.732660 0.152264 0.000000
C208  C     C_3   0.223107 0.351614 0.073690 0.000000
N70   N     N_3   0.247738 0.413365 0.085540 0.000000
C209  C     C_3   0.271718 0.450027 0.058932 0.000000
C210  C     C_R   0.305460 0.488547 0.076130 0.000000
N71   N     N_R   0.293038 0.540814 0.098580 0.000000
C211  C     C_R   0.330121 0.550101 0.116164 0.000000
C212  C     C_R   0.336236 0.594280 0.143350 0.000000
C213  C     C_R   0.377159 0.592956 0.158327 0.000000
C214  C     C_R   0.411002 0.550244 0.145307 0.000000
C215  C     C_R   0.404296 0.506757 0.117561 0.000000
C216  C     C_R   0.362993 0.505705 0.104174 0.000000
N72   N     N_R   0.348388 0.464170 0.078856 0.000000
H231  H     H_    0.239902 0.324006 0.054522 0.000000
H232  H     H_    0.214005 0.313913 0.094929 0.000000
H233  H     H_    0.194575 0.371660 0.059801 0.000000
H234  H     H_    0.268739 0.394912 0.104936 0.000000
H235  H     H_    0.285784 0.412163 0.041004 0.000000
H236  H     H_    0.250898 0.492412 0.045558 0.000000
H237  H     H_    0.310023 0.628309 0.152956 0.000000
H238  H     H_    0.383076 0.626574 0.179945 0.000000
H239  H     H_    0.442846 0.550936 0.157008 0.000000
H240  H     H_    0.430340 0.472976 0.107554 0.000000
C217  C     C_3   0.137901 0.424412 0.154528 0.000000
N73   N     N_3   0.125336 0.473452 0.125772 0.000000
C218  C     C_3   0.156281 0.452678 0.101099 0.000000
C219  C     C_R   0.157271 0.501433 0.070164 0.000000
N74   N     N_R   0.138592 0.482257 0.039362 0.000000
C220  C     C_R   0.150823 0.540624 0.019555 0.000000
C221  C     C_R   0.149805 0.545986 0.985398 0.000000
C222  C     C_R   0.162039 0.611714 0.969682 0.000000
C223  C     C_R   0.177568 0.668932 0.988600 0.000000
C224  C     C_R   0.187010 0.656259 0.022412 0.000000
C225  C     C_R   0.175227 0.589455 0.036897 0.000000
N75   N     N_R   0.184245 0.562585 0.068180 0.000000
H241  H     H_    0.111835 0.421771 0.172606 0.000000
H242  H     H_    0.145049 0.366576 0.146718 0.000000
H243  H     H_    0.167369 0.442637 0.166907 0.000000
H244  H     H_    0.131188 0.528235 0.131911 0.000000
H245  H     H_    0.187852 0.455004 0.113959 0.000000
H246  H     H_    0.148003 0.396815 0.093677 0.000000
H247  H     H_    0.144615 0.497349 0.971382 0.000000
H248  H     H_    0.160517 0.617892 0.942591 0.000000
H249  H     H_    0.186393 0.720536 0.976080 0.000000
H250  H     H_    0.201854 0.698656 0.036926 0.000000
C226  C     C_3   0.427290 0.946319 0.472499 0.000000
N76   N     N_3   0.420205 0.988809 0.502551 0.000000
C227  C     C_3   0.425464 0.941449 0.532718 0.000000
C228  C     C_R   0.414371 0.982676 0.563132 0.000000
N77   N     N_R   0.433589 0.963883 0.593929 0.000000
C229  C     C_R   0.408333 0.003259 0.614944 0.000000
C230  C     C_R   0.415322 0.015330 0.648224 0.000000
C231  C     C_R   0.383996 0.054063 0.665696 0.000000
C232  C     C_R   0.346479 0.080566 0.649344 0.000000
C233  C     C_R   0.342046 0.074598 0.614924 0.000000
C234  C     C_R   0.375005 0.039726 0.597935 0.000000
N78   N     N_R   0.378921 0.031837 0.564554 0.000000
H251  H     H_    0.456817 0.909942 0.475462 0.000000
H252  H     H_    0.398233 0.913803 0.466760 0.000000
H253  H     H_    0.431734 0.985510 0.450948 0.000000
H254  H     H_    0.388632 0.009558 0.501367 0.000000
H255  H     H_    0.401937 0.897552 0.532632 0.000000
H256  H     H_    0.458919 0.917478 0.534928 0.000000
H257  H     H_    0.446454 0.002068 0.659306 0.000000
H258  H     H_    0.388892 0.064008 0.692113 0.000000
H259  H     H_    0.321457 0.108902 0.663273 0.000000
H260  H     H_    0.313011 0.095560 0.602466 0.000000
C235  C     C_3   0.606496 0.708985 0.620706 0.000000
N79   N     N_3   0.570021 0.756886 0.630153 0.000000
C236  C     C_3   0.586470 0.825417 0.643776 0.000000
C237  C     C_R   0.553733 0.858416 0.666290 0.000000
N80   N     N_R   0.510416 0.873638 0.656967 0.000000
C238  C     C_R   0.492933 0.886377 0.688084 0.000000
C239  C     C_R   0.450228 0.894020 0.698735 0.000000
C240  C     C_R   0.441817 0.910950 0.731702 0.000000
C241  C     C_R   0.475164 0.919838 0.754461 0.000000
C242  C     C_R   0.517234 0.907307 0.744758 0.000000
C243  C     C_R   0.524935 0.886924 0.712371 0.000000
N81   N     N_R   0.563536 0.867494 0.699992 0.000000
H261  H     H_    0.594270 0.661814 0.606255 0.000000
H262  H     H_    0.629176 0.740978 0.604971 0.000000
H263  H     H_    0.624492 0.686339 0.643022 0.000000
H264  H     H_    0.552330 0.728599 0.648474 0.000000
H265  H     H_    0.616259 0.812258 0.658848 0.000000
H266  H     H_    0.594318 0.865971 0.623493 0.000000
H267  H     H_    0.422240 0.890272 0.683220 0.000000
H268  H     H_    0.408605 0.918910 0.739517 0.000000
H269  H     H_    0.468245 0.934862 0.779970 0.000000
H270  H     H_    0.543209 0.913344 0.762516 0.000000
C244  C     C_3   0.487187 0.127024 0.627720 0.000000
N82   N     N_3   0.491647 0.075015 0.600509 0.000000
C245  C     C_3   0.537152 0.056345 0.598534 0.000000
C246  C     C_R   0.548606 0.000150 0.573409 0.000000
N83   N     N_R   0.536633 0.926767 0.577066 0.000000
C247  C     C_R   0.568440 0.890635 0.560444 0.000000
C248  C     C_R   0.575509 0.815617 0.557609 0.000000
C249  C     C_R   0.611695 0.790912 0.540418 0.000000
C250  C     C_R   0.641427 0.841406 0.527956 0.000000
C251  C     C_R   0.634654 0.917206 0.532000 0.000000
C252  C     C_R   0.597276 0.939796 0.547673 0.000000
N84   N     N_R   0.584025 0.010173 0.552954 0.000000
H271  H     H_    0.452688 0.142978 0.630589 0.000000
H272  H     H_    0.499132 0.100679 0.651780 0.000000
H273  H     H_    0.505326 0.178239 0.621980 0.000000
H274  H     H_    0.483334 0.105199 0.578719 0.000000
H275  H     H_    0.553709 0.107434 0.591235 0.000000
H276  H     H_    0.548064 0.032128 0.623096 0.000000
H277  H     H_    0.554325 0.777146 0.569625 0.000000
H278  H     H_    0.617651 0.731608 0.537778 0.000000
H279  H     H_    0.670062 0.821377 0.515298 0.000000
H280  H     H_    0.657531 0.957285 0.522558 0.000000
C253  C     C_3   0.512589 0.684941 0.481267 0.000000
N85   N     N_3   0.475405 0.697036 0.502709 0.000000
C254  C     C_3   0.490515 0.727869 0.533987 0.000000
C255  C     C_R   0.457338 0.730134 0.561639 0.000000
N86   N     N_R   0.459383 0.784112 0.586278 0.000000
C256  C     C_R   0.427954 0.762094 0.606793 0.000000
C257  C     C_R   0.412425 0.801532 0.632609 0.000000
C258  C     C_R   0.380356 0.771611 0.652322 0.000000
C259  C     C_R   0.364915 0.702082 0.645276 0.000000
C260  C     C_R   0.378901 0.665880 0.617066 0.000000
C261  C     C_R   0.409380 0.698619 0.597017 0.000000
N87   N     N_R   0.425002 0.677125 0.567155 0.000000
H281  H     H_    0.501000 0.669652 0.455947 0.000000
H282  H     H_    0.531454 0.736796 0.478940 0.000000
H283  H     H_    0.533632 0.638670 0.491919 0.000000
H284  H     H_    0.461462 0.645854 0.507548 0.000000
H285  H     H_    0.518941 0.693953 0.543174 0.000000
H286  H     H_    0.499931 0.786172 0.528389 0.000000
H287  H     H_    0.424407 0.855963 0.635538 0.000000
H288  H     H_    0.367492 0.801784 0.673231 0.000000
H289  H     H_    0.340847 0.677090 0.661292 0.000000
H290  H     H_    0.366440 0.613012 0.612061 0.000000
C262  C     C_3   0.651539 0.105048 0.111493 0.000000
N88   N     N_3   0.653818 0.083852 0.146877 0.000000
C263  C     C_3   0.657833 0.004918 0.150134 0.000000
C264  C     C_R   0.669615 0.982285 0.185049 0.000000
N89   N     N_R   0.690373 0.914164 0.187812 0.000000
C265  C     C_R   0.671411 0.883240 0.215033 0.000000
C266  C     C_R   0.665134 0.808660 0.221426 0.000000
C267  C     C_R   0.640322 0.787409 0.248636 0.000000
C268  C     C_R   0.619383 0.840814 0.267296 0.000000
C269  C     C_R   0.620770 0.915208 0.257388 0.000000
C270  C     C_R   0.646302 0.935120 0.230736 0.000000
N90   N     N_R   0.644493 0.000279 0.212795 0.000000
H291  H     H_    0.642227 0.165096 0.108390 0.000000
H292  H     H_    0.683618 0.096921 0.100003 0.000000
H293  H     H_    0.627763 0.069877 0.099123 0.000000
H294  H     H_    0.624641 0.094549 0.158043 0.000000
H295  H     H_    0.626653 0.979310 0.143223 0.000000
H296  H     H_    0.683672 0.984927 0.133578 0.000000
H297  H     H_    0.676575 0.767807 0.204328 0.000000
H298  H     H_    0.635870 0.728994 0.254801 0.000000
H299  H     H_    0.599495 0.823875 0.288223 0.000000
H300  H     H_    0.601849 0.955717 0.270388 0.000000
C271  C     C_3   0.769539 0.153035 0.089586 0.000000
N91   N     N_3   0.775169 0.078846 0.105112 0.000000
C272  C     C_3   0.768086 0.081852 0.141300 0.000000
C273  C     C_R   0.790273 0.017731 0.158925 0.000000
N92   N     N_R   0.783553 0.952191 0.142943 0.000000
C274  C     C_R   0.824356 0.932305 0.134186 0.000000
C275  C     C_R   0.835701 0.912857 0.102018 0.000000
C276  C     C_R   0.878696 0.917236 0.092444 0.000000
C277  C     C_R   0.909924 0.942285 0.114528 0.000000
C278  C     C_R   0.897403 0.970594 0.144938 0.000000
C279  C     C_R   0.853752 0.972727 0.151736 0.000000
N93   N     N_R   0.833245 0.027127 0.168485 0.000000
H301  H     H_    0.800156 0.183573 0.092196 0.000000
H302  H     H_    0.762316 0.147790 0.062418 0.000000
H303  H     H_    0.742409 0.184159 0.101071 0.000000
H304  H     H_    0.807278 0.063160 0.100809 0.000000
H305  H     H_    0.779808 0.133607 0.150756 0.000000
H306  H     H_    0.733595 0.076593 0.145681 0.000000
H307  H     H_    0.811510 0.902971 0.083071 0.000000
H308  H     H_    0.887834 0.901989 0.067394 0.000000
H309  H     H_    0.943403 0.945099 0.106926 0.000000
H310  H     H_    0.920305 0.999995 0.160153 0.000000
C280  C     C_3   0.746474 0.996678 0.023318 0.000000
N94   N     N_3   0.719090 0.935459 0.033800 0.000000
C281  C     C_3   0.702255 0.950857 0.066920 0.000000
C282  C     C_R   0.680578 0.883674 0.080455 0.000000
N95   N     N_R   0.658364 0.837102 0.059721 0.000000
C283  C     C_R   0.663730 0.770075 0.075701 0.000000
C284  C     C_R   0.653483 0.700661 0.064477 0.000000
C285  C     C_R   0.659966 0.639176 0.086001 0.000000
C286  C     C_R   0.674305 0.648554 0.118663 0.000000
C287  C     C_R   0.684708 0.718746 0.129331 0.000000
C288  C     C_R   0.681819 0.778261 0.106563 0.000000
N96   N     N_R   0.694409 0.849502 0.110254 0.000000
H311  H     H_    0.756125 0.989292 0.996861 0.000000
H312  H     H_    0.728452 0.050721 0.025143 0.000000
H313  H     H_    0.776147 0.996763 0.039385 0.000000
H314  H     H_    0.738973 0.887420 0.036124 0.000000
H315  H     H_    0.729397 0.963789 0.084059 0.000000
H316  H     H_    0.679009 0.998123 0.065458 0.000000
H317  H     H_    0.638298 0.693933 0.040438 0.000000
H318  H     H_    0.651420 0.584247 0.077925 0.000000
H319  H     H_    0.677129 0.600847 0.135962 0.000000
H320  H     H_    0.694257 0.725300 0.154965 0.000000
C289  C     C_3   0.781170 0.760737 0.280760 0.000000
N97   N     N_3   0.793370 0.726964 0.249336 0.000000
C290  C     C_3   0.761604 0.750102 0.224039 0.000000
C291  C     C_R   0.775670 0.732998 0.189131 0.000000
N98   N     N_R   0.764937 0.779809 0.162117 0.000000
C292  C     C_R   0.783128 0.744809 0.136095 0.000000
C293  C     C_R   0.783307 0.768112 0.102818 0.000000
C294  C     C_R   0.807624 0.728288 0.080405 0.000000
C295  C     C_R   0.833360 0.668736 0.091970 0.000000
C296  C     C_R   0.832527 0.646422 0.125420 0.000000
C297  C     C_R   0.804080 0.681118 0.146713 0.000000
N99   N     N_R   0.799046 0.669775 0.180286 0.000000
H321  H     H_    0.796556 0.815548 0.282813 0.000000
H322  H     H_    0.745389 0.767696 0.282268 0.000000
H323  H     H_    0.792724 0.724139 0.302173 0.000000
H324  H     H_    0.788230 0.670041 0.253009 0.000000
H325  H     H_    0.732229 0.719910 0.230102 0.000000
H326  H     H_    0.754497 0.810205 0.225433 0.000000
H327  H     H_    0.766092 0.817383 0.093916 0.000000
H328  H     H_    0.808527 0.746456 0.054271 0.000000
H329  H     H_    0.855098 0.640826 0.075042 0.000000
H330  H     H_    0.856016 0.606112 0.134123 0.000000
C298  C     C_3   0.081223 0.358029 0.610547 0.000000
N100  N     N_3   0.093035 0.375811 0.644826 0.000000
C299  C     C_3   0.054271 0.396486 0.662910 0.000000
C300  C     C_R   0.065745 0.450841 0.687810 0.000000
N101  N     N_R   0.050782 0.523797 0.686225 0.000000
C301  C     C_R   0.077145 0.555769 0.708666 0.000000
C302  C     C_R   0.078662 0.629362 0.716381 0.000000
C303  C     C_R   0.108451 0.651062 0.740170 0.000000
C304  C     C_R   0.134859 0.597979 0.756861 0.000000
C305  C     C_R   0.132393 0.523366 0.749155 0.000000
C306  C     C_R   0.104176 0.503669 0.724068 0.000000
N102  N     N_R   0.097526 0.435570 0.711540 0.000000
H331  H     H_    0.107367 0.323007 0.599811 0.000000
H332  H     H_    0.050642 0.326638 0.610199 0.000000
H333  H     H_    0.077752 0.409788 0.594950 0.000000
H334  H     H_    0.113293 0.421432 0.644312 0.000000
H335  H     H_    0.029640 0.422086 0.645765 0.000000
H336  H     H_    0.042389 0.347753 0.676995 0.000000
H337  H     H_    0.057688 0.668937 0.703653 0.000000
H338  H     H_    0.110275 0.709270 0.746430 0.000000
H339  H     H_    0.156685 0.614646 0.776603 0.000000
H340  H     H_    0.149764 0.482342 0.764561 0.000000
C307  C     C_3   0.078539 0.753861 0.646702 0.000000
N103  N     N_3   0.072220 0.676235 0.638827 0.000000
C308  C     C_3   0.065543 0.675083 0.603016 0.000000
C309  C     C_R   0.050741 0.601773 0.591666 0.000000
N104  N     N_R   0.060693 0.576821 0.560001 0.000000
C310  C     C_R   0.033537 0.519842 0.556834 0.000000
C311  C     C_R   0.029064 0.475509 0.529575 0.000000
C312  C     C_R   0.001136 0.416373 0.532039 0.000000
C313  C     C_R   0.979441 0.401890 0.561761 0.000000
C314  C     C_R   0.984328 0.447879 0.588829 0.000000
C315  C     C_R   0.010448 0.508449 0.585430 0.000000
N105  N     N_R   0.020110 0.559749 0.608462 0.000000
H341  H     H_    0.094924 0.757350 0.671532 0.000000
H342  H     H_    0.099015 0.781499 0.627537 0.000000
H343  H     H_    0.046349 0.782669 0.647181 0.000000
H344  H     H_    0.043166 0.661430 0.649481 0.000000
H345  H     H_    0.040500 0.718227 0.595590 0.000000
H346  H     H_    0.096688 0.686048 0.591006 0.000000
H347  H     H_    0.046010 0.487327 0.506682 0.000000
H348  H     H_    0.996860 0.380412 0.510978 0.000000
H349  H     H_    0.958948 0.353854 0.563915 0.000000
H350  H     H_    0.969853 0.434068 0.612383 0.000000
C316  C     C_3   0.850218 0.403571 0.590657 0.000000
N106  N     N_3   0.875865 0.391282 0.621359 0.000000
C317  C     C_3   0.887478 0.463787 0.633482 0.000000
C318  C     C_R   0.909603 0.457582 0.667207 0.000000
N107  N     N_R   0.891004 0.424537 0.695618 0.000000
C319  C     C_R   0.914630 0.454339 0.720334 0.000000
C320  C     C_R   0.911017 0.442077 0.754379 0.000000
C321  C     C_R   0.938321 0.477511 0.775947 0.000000
C322  C     C_R   0.969258 0.523772 0.763186 0.000000
C323  C     C_R   0.973123 0.534106 0.728900 0.000000
C324  C     C_R   0.946547 0.496488 0.707953 0.000000
N108  N     N_R   0.946444 0.498186 0.674238 0.000000
H351  H     H_    0.859957 0.361082 0.572358 0.000000
H352  H     H_    0.815284 0.398464 0.596335 0.000000
H353  H     H_    0.855846 0.459675 0.579172 0.000000
H354  H     H_    0.904455 0.364476 0.614280 0.000000
H355  H     H_    0.908347 0.492331 0.615289 0.000000
H356  H     H_    0.858448 0.499881 0.634830 0.000000
H357  H     H_    0.888745 0.404130 0.764514 0.000000
H358  H     H_    0.935251 0.470132 0.802810 0.000000
H359  H     H_    0.989716 0.552963 0.780252 0.000000
H360  H     H_    0.994590 0.574656 0.719108 0.000000
C325  C     C_3   0.998870 0.706082 0.779320 0.000000
N109  N     N_3   0.974265 0.686695 0.749442 0.000000
C326  C     C_3   0.982327 0.741981 0.723222 0.000000
C327  C     C_R   0.959822 0.727138 0.690566 0.000000
N110  N     N_R   0.967960 0.670309 0.667858 0.000000
C328  C     C_R   0.938818 0.688770 0.643070 0.000000
C329  C     C_R   0.929623 0.648989 0.614976 0.000000
C330  C     C_R   0.896918 0.674783 0.593275 0.000000
C331  C     C_R   0.871657 0.736340 0.601244 0.000000
C332  C     C_R   0.878989 0.771992 0.631009 0.000000
C333  C     C_R   0.914547 0.750276 0.650496 0.000000
N111  N     N_R   0.927144 0.776602 0.680293 0.000000
H361  H     H_    0.982193 0.684578 0.802029 0.000000
H362  H     H_    0.031804 0.680047 0.778622 0.000000
H363  H     H_    0.001758 0.767486 0.780865 0.000000
H364  H     H_    0.941338 0.690464 0.755066 0.000000
H365  H     H_    0.967320 0.794145 0.731586 0.000000
H366  H     H_    0.017085 0.752855 0.720513 0.000000
H367  H     H_    0.946111 0.597765 0.609987 0.000000
H368  H     H_    0.889620 0.644526 0.570878 0.000000
H369  H     H_    0.844424 0.753643 0.585193 0.000000
H370  H     H_    0.855586 0.812479 0.639180 0.000000
C334  C     C_3   0.097060 0.322428 0.261208 0.000000
N112  N     N_3   0.089792 0.397486 0.246875 0.000000
C335  C     C_3   0.046243 0.401640 0.232251 0.000000
C336  C     C_R   0.043642 0.456262 0.203346 0.000000
N113  N     N_R   0.064424 0.525014 0.203227 0.000000
C337  C     C_R   0.055809 0.549390 0.171436 0.000000
C338  C     C_R   0.062380 0.619311 0.158522 0.000000
C339  C     C_R   0.047275 0.640165 0.126761 0.000000
C340  C     C_R   0.022259 0.591993 0.109330 0.000000
C341  C     C_R   0.012167 0.524769 0.124455 0.000000
C342  C     C_R   0.031710 0.501399 0.154179 0.000000
N114  N     N_R   0.021082 0.441764 0.173462 0.000000
H371  H     H_    0.126941 0.321119 0.277083 0.000000
H372  H     H_    0.069122 0.306263 0.276895 0.000000
H373  H     H_    0.101419 0.282175 0.240796 0.000000
H374  H     H_    0.112217 0.404151 0.227780 0.000000
H375  H     H_    0.037949 0.346282 0.222829 0.000000
H376  H     H_    0.023068 0.419146 0.251559 0.000000
H377  H     H_    0.077464 0.658083 0.173652 0.000000
H378  H     H_    0.051341 0.696294 0.116885 0.000000
H379  H     H_    0.005890 0.610920 0.086307 0.000000
H380  H     H_    0.982966 0.500133 0.116955 0.000000
C343  C     C_3   0.091172 0.215633 0.139875 0.000000
N115  N     N_3   0.055339 0.254719 0.122133 0.000000
C344  C     C_3   0.070893 0.325346 0.108763 0.000000
C345  C     C_R   0.039173 0.363005 0.084899 0.000000
N116  N     N_R   0.047484 0.379830 0.051274 0.000000
C346  C     C_R   0.009163 0.410337 0.040502 0.000000
C347  C     C_R   0.998248 0.436174 0.008634 0.000000
C348  C     C_R   0.958800 0.473259 0.003411 0.000000
C349  C     C_R   0.931985 0.486680 0.030278 0.000000
C350  C     C_R   0.943210 0.459112 0.062118 0.000000
C351  C     C_R   0.980809 0.416434 0.066385 0.000000
N117  N     N_R   0.998459 0.385996 0.095267 0.000000
H381  H     H_    0.079448 0.162470 0.151098 0.000000
H382  H     H_    0.117850 0.202676 0.122428 0.000000
H383  H     H_    0.103440 0.250525 0.160315 0.000000
H384  H     H_    0.033563 0.268556 0.140779 0.000000
H385  H     H_    0.073771 0.362334 0.129908 0.000000
H386  H     H_    0.101606 0.314821 0.095885 0.000000
H387  H     H_    0.018973 0.426315 0.987947 0.000000
H388  H     H_    0.949576 0.494198 0.978496 0.000000
H389  H     H_    0.902422 0.519801 0.026430 0.000000
H390  H     H_    0.924399 0.476245 0.083050 0.000000
C352  C     C_3   0.949490 0.320232 0.262962 0.000000
N118  N     N_3   0.959809 0.303449 0.228397 0.000000
C353  C     C_3   0.920399 0.284071 0.210525 0.000000
C354  C     C_R   0.931893 0.239346 0.180797 0.000000
N119  N     N_R   0.955440 0.270301 0.154764 0.000000
C355  C     C_R   0.948914 0.220838 0.129989 0.000000
C356  C     C_R   0.960612 0.225141 0.096574 0.000000
C357  C     C_R   0.942660 0.177659 0.073923 0.000000
C358  C     C_R   0.910392 0.130774 0.083989 0.000000
C359  C     C_R   0.899217 0.126908 0.117302 0.000000
C360  C     C_R   0.922063 0.165865 0.140543 0.000000
N120  N     N_R   0.912428 0.172215 0.173289 0.000000
H391  H     H_    0.979919 0.328377 0.277378 0.000000
H392  H     H_    0.929368 0.372293 0.263306 0.000000
H393  H     H_    0.932444 0.273299 0.275351 0.000000
H394  H     H_    0.981299 0.257510 0.228675 0.000000
H395  H     H_    0.898270 0.253140 0.227089 0.000000
H396  H     H_    0.903022 0.335707 0.201818 0.000000
H397  H     H_    0.983940 0.261683 0.087064 0.000000
H398  H     H_    0.951865 0.180955 0.047816 0.000000
H399  H     H_    0.893012 0.099004 0.065718 0.000000
H400  H     H_    0.870234 0.099857 0.124055 0.000000
C361  C     C_3   0.940055 0.607252 0.160247 0.000000
N121  N     N_3   0.963842 0.564434 0.186133 0.000000
C362  C     C_3   0.935992 0.513994 0.204454 0.000000
C363  C     C_R   0.904911 0.483833 0.180916 0.000000
N122  N     N_R   0.862753 0.509975 0.179882 0.000000
C364  C     C_R   0.846406 0.474611 0.153188 0.000000
C365  C     C_R   0.806338 0.486468 0.138105 0.000000
C366  C     C_R   0.799567 0.456550 0.106792 0.000000
C367  C     C_R   0.831013 0.410394 0.092800 0.000000
C368  C     C_R   0.869744 0.393870 0.109843 0.000000
C369  C     C_R   0.877885 0.431523 0.138698 0.000000
N123  N     N_R   0.916119 0.437250 0.155202 0.000000
H401  H     H_    0.909610 0.627304 0.170626 0.000000
H402  H     H_    0.960573 0.654161 0.152274 0.000000
H403  H     H_    0.933055 0.575522 0.137523 0.000000
H404  H     H_    0.977656 0.602368 0.201970 0.000000
H405  H     H_    0.955229 0.468094 0.217105 0.000000
H406  H     H_    0.917560 0.544179 0.223406 0.000000
H407  H     H_    0.781794 0.521620 0.149260 0.000000
H408  H     H_    0.769091 0.467476 0.093559 0.000000
H409  H     H_    0.824666 0.385501 0.068878 0.000000
H410  H     H_    0.894057 0.357400 0.099257 0.000000
C370  C     C_3   0.712006 0.799890 0.638685 0.000000
N124  N     N_3   0.709133 0.840331 0.669746 0.000000
C371  C     C_3   0.694862 0.915349 0.660265 0.000000
C372  C     C_R   0.688177 0.963096 0.689805 0.000000
N125  N     N_R   0.653755 0.953846 0.711088 0.000000
C373  C     C_R   0.646276 0.023317 0.721737 0.000000
C374  C     C_R   0.612571 0.047847 0.741241 0.000000
C375  C     C_R   0.615113 0.118418 0.754198 0.000000
C376  C     C_R   0.651712 0.160529 0.748665 0.000000
C377  C     C_R   0.684321 0.135193 0.727932 0.000000
C378  C     C_R   0.679042 0.068477 0.712406 0.000000
N126  N     N_R   0.704865 0.033894 0.690151 0.000000
H411  H     H_    0.710320 0.739115 0.644357 0.000000
H412  H     H_    0.684895 0.815890 0.621255 0.000000
H413  H     H_    0.742647 0.813718 0.625951 0.000000
H414  H     H_    0.740635 0.844717 0.679156 0.000000
H415  H     H_    0.719094 0.941062 0.643459 0.000000
H416  H     H_    0.663323 0.913422 0.646886 0.000000
H417  H     H_    0.586058 0.012242 0.747528 0.000000
H418  H     H_    0.589811 0.138900 0.770328 0.000000
H419  H     H_    0.654983 0.213261 0.760880 0.000000
H420  H     H_    0.714030 0.164868 0.726189 0.000000
C379  C     C_3   0.890278 0.169982 0.622560 0.000000
N127  N     N_3   0.870136 0.222013 0.645363 0.000000
C380  C     C_3   0.851015 0.180212 0.673137 0.000000
C381  C     C_R   0.808794 0.215903 0.680838 0.000000
N128  N     N_R   0.804057 0.286524 0.694205 0.000000
C382  C     C_R   0.760551 0.297166 0.692236 0.000000
C383  C     C_R   0.734801 0.345792 0.709410 0.000000
C384  C     C_R   0.690410 0.346157 0.703633 0.000000
C385  C     C_R   0.672406 0.295950 0.681973 0.000000
C386  C     C_R   0.698519 0.240426 0.669042 0.000000
C387  C     C_R   0.741732 0.240243 0.676220 0.000000
N129  N     N_R   0.770261 0.184100 0.671480 0.000000
H421  H     H_    0.909193 0.201286 0.603566 0.000000
H422  H     H_    0.912076 0.129543 0.636670 0.000000
H423  H     H_    0.865066 0.140605 0.608756 0.000000
H424  H     H_    0.845142 0.250723 0.632137 0.000000
H425  H     H_    0.845550 0.122502 0.665703 0.000000
H426  H     H_    0.872254 0.178557 0.695701 0.000000
H427  H     H_    0.747743 0.378172 0.728978 0.000000
H428  H     H_    0.669596 0.384067 0.716954 0.000000
H429  H     H_    0.637664 0.295863 0.677824 0.000000
H430  H     H_    0.685955 0.194604 0.656029 0.000000
C388  C     C_3   0.777620 0.056289 0.760660 0.000000
N130  N     N_3   0.796143 0.049171 0.727632 0.000000
C389  C     C_3   0.797916 0.970632 0.719233 0.000000
C390  C     C_R   0.817772 0.964984 0.685852 0.000000
N131  N     N_R   0.800834 0.004775 0.658426 0.000000
C391  C     C_R   0.830303 0.991074 0.634569 0.000000
C392  C     C_R   0.828471 0.011493 0.601055 0.000000
C393  C     C_R   0.864257 0.994945 0.581699 0.000000
C394  C     C_R   0.901022 0.960067 0.596183 0.000000
C395  C     C_R   0.901491 0.937359 0.629751 0.000000
C396  C     C_R   0.864620 0.950237 0.647949 0.000000
N132  N     N_R   0.856764 0.928396 0.680024 0.000000
H431  H     H_    0.772655 0.116163 0.765767 0.000000
H432  H     H_    0.745468 0.030620 0.761074 0.000000
H433  H     H_    0.799609 0.029716 0.780057 0.000000
H434  H     H_    0.827715 0.068703 0.728494 0.000000
H435  H     H_    0.816268 0.936221 0.738127 0.000000
H436  H     H_    0.764982 0.948874 0.718133 0.000000
H437  H     H_    0.800159 0.038612 0.589834 0.000000
H438  H     H_    0.863930 0.010755 0.555261 0.000000
H439  H     H_    0.929132 0.949185 0.580963 0.000000
H440  H     H_    0.929611 0.908984 0.640903 0.000000
C397  C     C_3   0.600289 0.119865 0.656508 0.000000
N133  N     N_3   0.618071 0.120664 0.622822 0.000000
C398  C     C_3   0.644266 0.054165 0.617715 0.000000
C399  C     C_R   0.680290 0.073904 0.595327 0.000000
N134  N     N_R   0.672412 0.105155 0.563416 0.000000
C400  C     C_R   0.706221 0.151275 0.560093 0.000000
C401  C     C_R   0.708322 0.214425 0.539908 0.000000
C402  C     C_R   0.744516 0.258201 0.542150 0.000000
C403  C     C_R   0.776364 0.241299 0.566235 0.000000
C404  C     C_R   0.770467 0.184271 0.589710 0.000000
C405  C     C_R   0.734845 0.140907 0.586350 0.000000
N135  N     N_R   0.719730 0.092171 0.609417 0.000000
H441  H     H_    0.622854 0.146147 0.673911 0.000000
H442  H     H_    0.570093 0.154530 0.656356 0.000000
H443  H     H_    0.593190 0.062166 0.665328 0.000000
H444  H     H_    0.639583 0.163904 0.621819 0.000000
H445  H     H_    0.658411 0.039195 0.641667 0.000000
H446  H     H_    0.625265 0.007594 0.608468 0.000000
H447  H     H_    0.681260 0.232545 0.524488 0.000000
H448  H     H_    0.747336 0.307126 0.525779 0.000000
H449  H     H_    0.804498 0.275520 0.567937 0.000000
H450  H     H_    0.792994 0.174079 0.610166 0.000000
C406  C     C_3   0.252338 0.867191 0.593600 0.000000
N136  N     N_3   0.245358 0.899516 0.559936 0.000000
C407  C     C_3   0.285838 0.930807 0.548856 0.000000
C408  C     C_R   0.286092 0.947457 0.511640 0.000000
N137  N     N_R   0.272326 0.900819 0.486120 0.000000
C409  C     C_R   0.288490 0.935666 0.458553 0.000000
C410  C     C_R   0.288997 0.909518 0.426421 0.000000
C411  C     C_R   0.311458 0.948506 0.402079 0.000000
C412  C     C_R   0.335072 0.010021 0.410571 0.000000
C413  C     C_R   0.335532 0.033869 0.443252 0.000000
C414  C     C_R   0.310331 0.998010 0.466717 0.000000
N138  N     N_R   0.308781 0.008555 0.500136 0.000000
H451  H     H_    0.220639 0.851542 0.604262 0.000000
H452  H     H_    0.273514 0.816320 0.592703 0.000000
H453  H     H_    0.267551 0.908625 0.609929 0.000000
H454  H     H_    0.223668 0.944681 0.562404 0.000000
H455  H     H_    0.290430 0.984187 0.561664 0.000000
H456  H     H_    0.313688 0.893837 0.556503 0.000000
H457  H     H_    0.273471 0.858965 0.420108 0.000000
H458  H     H_    0.312279 0.928809 0.376686 0.000000
H459  H     H_    0.354721 0.037622 0.391873 0.000000
H460  H     H_    0.358021 0.075318 0.450068 0.000000
C415  C     C_3   0.506255 0.059486 0.505703 0.000000
N139  N     N_3   0.479526 0.121112 0.493227 0.000000
C416  C     C_3   0.451139 0.148041 0.519024 0.000000
C417  C     C_R   0.417421 0.189869 0.501018 0.000000
N140  N     N_R   0.428063 0.244431 0.477802 0.000000
C418  C     C_R   0.391638 0.250241 0.458582 0.000000
C419  C     C_R   0.384064 0.295557 0.430531 0.000000
C420  C     C_R   0.342709 0.296614 0.416353 0.000000
C421  C     C_R   0.310097 0.253893 0.430549 0.000000
C422  C     C_R   0.318498 0.208184 0.458759 0.000000
C423  C     C_R   0.360042 0.206088 0.471805 0.000000
N141  N     N_R   0.375838 0.164172 0.498227 0.000000
H461  H     H_    0.504140 0.014417 0.487612 0.000000
H462  H     H_    0.539972 0.077786 0.507724 0.000000
H463  H     H_    0.494165 0.038493 0.529787 0.000000
H464  H     H_    0.459349 0.099627 0.474867 0.000000
H465  H     H_    0.435724 0.103577 0.533256 0.000000
H466  H     H_    0.467902 0.184007 0.536101 0.000000
H467  H     H_    0.409245 0.330064 0.420200 0.000000
H468  H     H_    0.335491 0.331940 0.394364 0.000000
H469  H     H_    0.277885 0.256277 0.419397 0.000000
H470  H     H_    0.293370 0.174652 0.469796 0.000000
C424  C     C_3   0.411477 0.261395 0.596568 0.000000
N142  N     N_3   0.369144 0.228376 0.594677 0.000000
C425  C     C_3   0.345529 0.262851 0.566302 0.000000
C426  C     C_R   0.302175 0.230604 0.564187 0.000000
N143  N     N_R   0.295107 0.162797 0.549694 0.000000
C427  C     C_R   0.251433 0.158438 0.551050 0.000000
C428  C     C_R   0.225099 0.107721 0.536217 0.000000
C429  C     C_R   0.180590 0.117803 0.538489 0.000000
C430  C     C_R   0.163008 0.178765 0.554648 0.000000
C431  C     C_R   0.189855 0.231013 0.568237 0.000000
C432  C     C_R   0.233951 0.219248 0.566435 0.000000
N144  N     N_R   0.265056 0.267431 0.574695 0.000000
H471  H     H_    0.422380 0.262414 0.623164 0.000000
H472  H     H_    0.434576 0.226904 0.582467 0.000000
H473  H     H_    0.410404 0.319107 0.585757 0.000000
H474  H     H_    0.352366 0.240665 0.616460 0.000000
H475  H     H_    0.341286 0.322881 0.569078 0.000000
H476  H     H_    0.363342 0.254695 0.543026 0.000000
H477  H     H_    0.237892 0.063101 0.521862 0.000000
H478  H     H_    0.159332 0.079034 0.526678 0.000000
H479  H     H_    0.128165 0.186809 0.555607 0.000000
H480  H     H_    0.176442 0.280753 0.579142 0.000000
C433  C     C_3   0.196446 0.117532 0.671651 0.000000
N145  N     N_3   0.198077 0.195561 0.680721 0.000000
C434  C     C_3   0.200060 0.240425 0.649771 0.000000
C435  C     C_R   0.197416 0.321858 0.656788 0.000000
N146  N     N_R   0.184232 0.347418 0.687701 0.000000
C436  C     C_R   0.209082 0.407621 0.691326 0.000000
C437  C     C_R   0.215740 0.446603 0.719961 0.000000
C438  C     C_R   0.243667 0.505634 0.719229 0.000000
C439  C     C_R   0.265381 0.523381 0.690084 0.000000
C440  C     C_R   0.260453 0.480264 0.662193 0.000000
C441  C     C_R   0.232563 0.421530 0.663451 0.000000
N147  N     N_R   0.225321 0.369529 0.640284 0.000000
H481  H     H_    0.201590 0.081220 0.694490 0.000000
H482  H     H_    0.164302 0.105981 0.660358 0.000000
H483  H     H_    0.222357 0.104506 0.653514 0.000000
H484  H     H_    0.227525 0.201683 0.693483 0.000000
H485  H     H_    0.231873 0.229312 0.638060 0.000000
H486  H     H_    0.174463 0.224380 0.632188 0.000000
H487  H     H_    0.202592 0.428157 0.743244 0.000000
H488  H     H_    0.249340 0.536758 0.741654 0.000000
H489  H     H_    0.287547 0.569282 0.689501 0.000000
H490  H     H_    0.278959 0.492881 0.640675 0.000000
C442  C     C_3   0.166013 0.621873 0.628167 0.000000
N148  N     N_3   0.162303 0.595587 0.593900 0.000000
C443  C     C_3   0.163879 0.514673 0.595932 0.000000
C444  C     C_R   0.173160 0.481111 0.563041 0.000000
N149  N     N_R   0.146558 0.494016 0.535346 0.000000
C445  C     C_R   0.156020 0.435023 0.516398 0.000000
C446  C     C_R   0.133253 0.409893 0.489389 0.000000
C447  C     C_R   0.150710 0.350596 0.472182 0.000000
C448  C     C_R   0.190498 0.318804 0.482104 0.000000
C449  C     C_R   0.211149 0.341585 0.510984 0.000000
C450  C     C_R   0.191148 0.396118 0.529357 0.000000
N150  N     N_R   0.202291 0.421909 0.559825 0.000000
H491  H     H_    0.197327 0.605097 0.640237 0.000000
H492  H     H_    0.162986 0.683728 0.627858 0.000000
H493  H     H_    0.140505 0.596566 0.643827 0.000000
H494  H     H_    0.187700 0.615026 0.579391 0.000000
H495  H     H_    0.188521 0.494585 0.614472 0.000000
H496  H     H_    0.131668 0.496340 0.603714 0.000000
H497  H     H_    0.102594 0.435197 0.481749 0.000000
H498  H     H_    0.134012 0.330700 0.450263 0.000000
H499  H     H_    0.205117 0.275105 0.467531 0.000000
H500  H     H_    0.242565 0.318321 0.517793 0.000000
C451  C     C_3   0.268574 0.623009 0.601289 0.000000
N151  N     N_3   0.284169 0.624045 0.567182 0.000000
C452  C     C_3   0.283099 0.549634 0.553425 0.000000
C453  C     C_R   0.315584 0.500245 0.570110 0.000000
N152  N     N_R   0.358282 0.519343 0.572313 0.000000
C454  C     C_R   0.373300 0.473864 0.597778 0.000000
C455  C     C_R   0.412824 0.475373 0.614039 0.000000
C456  C     C_R   0.418810 0.430674 0.642866 0.000000
C457  C     C_R   0.385848 0.385281 0.654506 0.000000
C458  C     C_R   0.346674 0.382814 0.637131 0.000000
C459  C     C_R   0.341299 0.428035 0.608805 0.000000
N153  N     N_R   0.304780 0.439600 0.590022 0.000000
H501  H     H_    0.295719 0.617787 0.619448 0.000000
H502  H     H_    0.250311 0.675886 0.605662 0.000000
H503  H     H_    0.248155 0.574643 0.605514 0.000000
H504  H     H_    0.316422 0.638035 0.569172 0.000000
H505  H     H_    0.251591 0.525451 0.557437 0.000000
H506  H     H_    0.290173 0.552872 0.526492 0.000000
H507  H     H_    0.437514 0.513126 0.605946 0.000000
H508  H     H_    0.449164 0.431955 0.656754 0.000000
H509  H     H_    0.390964 0.351235 0.677192 0.000000
H510  H     H_    0.320817 0.348134 0.646168 0.000000
C460  C     C_3   0.770103 0.488678 0.651503 0.000000
N154  N     N_3   0.797639 0.490960 0.681616 0.000000
C461  C     C_3   0.771105 0.518548 0.708351 0.000000
C462  C     C_R   0.791420 0.502346 0.742113 0.000000
N155  N     N_R   0.812672 0.434646 0.750651 0.000000
C463  C     C_R   0.808165 0.431684 0.784645 0.000000
C464  C     C_R   0.826298 0.382765 0.808490 0.000000
C465  C     C_R   0.813499 0.386445 0.841500 0.000000
C466  C     C_R   0.782372 0.438539 0.850314 0.000000
C467  C     C_R   0.767800 0.491799 0.826830 0.000000
C468  C     C_R   0.784274 0.491070 0.794997 0.000000
N156  N     N_R   0.776139 0.540370 0.769448 0.000000
H511  H     H_    0.787260 0.511747 0.629427 0.000000
H512  H     H_    0.761540 0.430094 0.646825 0.000000
H513  H     H_    0.739910 0.522865 0.654084 0.000000
H514  H     H_    0.820972 0.531178 0.677773 0.000000
H515  H     H_    0.764236 0.578925 0.704840 0.000000
H516  H     H_    0.739555 0.491453 0.707285 0.000000
H517  H     H_    0.852166 0.345755 0.802898 0.000000
H518  H     H_    0.827227 0.347452 0.860273 0.000000
H519  H     H_    0.770315 0.438849 0.875689 0.000000
H520  H     H_    0.742108 0.529286 0.833113 0.000000
C469  C     C_3   0.966676 0.290814 0.657041 0.000000
N157  N     N_3   0.939860 0.261391 0.683677 0.000000
C470  C     C_3   0.956713 0.283611 0.715855 0.000000
C471  C     C_R   0.928147 0.255651 0.742832 0.000000
N158  N     N_R   0.885058 0.277274 0.745238 0.000000
C472  C     C_R   0.871476 0.232944 0.770651 0.000000
C473  C     C_R   0.829867 0.224934 0.781962 0.000000
C474  C     C_R   0.824648 0.186298 0.812272 0.000000
C475  C     C_R   0.860538 0.156496 0.829956 0.000000
C476  C     C_R   0.901600 0.159795 0.816342 0.000000
C477  C     C_R   0.905642 0.194528 0.785320 0.000000
N159  N     N_R   0.941652 0.202448 0.766722 0.000000
H521  H     H_    0.953342 0.276677 0.632301 0.000000
H522  H     H_    0.968395 0.351794 0.658584 0.000000
H523  H     H_    0.999155 0.265185 0.658955 0.000000
H524  H     H_    0.942988 0.203378 0.683442 0.000000
H525  H     H_    0.989108 0.261383 0.720166 0.000000
H526  H     H_    0.960977 0.343642 0.716387 0.000000
H527  H     H_    0.802539 0.252457 0.769029 0.000000
H528  H     H_    0.792681 0.182060 0.822916 0.000000
H529  H     H_    0.856330 0.129780 0.854388 0.000000
H530  H     H_    0.929612 0.139959 0.830722 0.000000
C478  C     C_3   0.391641 0.278989 0.923814 0.000000
N160  N     N_3   0.385060 0.289704 0.959453 0.000000
C479  C     C_3   0.340558 0.315767 0.963625 0.000000
C480  C     C_R   0.325108 0.294999 0.997839 0.000000
N161  N     N_R   0.342352 0.321891 0.027345 0.000000
C481  C     C_R   0.319875 0.283883 0.050755 0.000000
C482  C     C_R   0.321431 0.290574 0.085035 0.000000
C483  C     C_R   0.297271 0.243503 0.105256 0.000000
C484  C     C_R   0.270975 0.191500 0.090780 0.000000
C485  C     C_R   0.267833 0.188658 0.056137 0.000000
C486  C     C_R   0.291925 0.237143 0.036632 0.000000
N162  N     N_R   0.292428 0.244437 0.002996 0.000000
H531  H     H_    0.426859 0.272001 0.919078 0.000000
H532  H     H_    0.374954 0.228051 0.915882 0.000000
H533  H     H_    0.378851 0.328552 0.909058 0.000000
H534  H     H_    0.404872 0.333351 0.966302 0.000000
H535  H     H_    0.338837 0.377060 0.959799 0.000000
H536  H     H_    0.319348 0.289189 0.945043 0.000000
H537  H     H_    0.338865 0.334145 0.095975 0.000000
H538  H     H_    0.298531 0.248025 0.132269 0.000000
H539  H     H_    0.252686 0.153617 0.106456 0.000000
H540  H     H_    0.249214 0.145814 0.045199 0.000000
C487  C     C_3   0.354059 0.519698 0.926735 0.000000
N163  N     N_3   0.390795 0.497577 0.948342 0.000000
C488  C     C_3   0.383343 0.523330 0.982214 0.000000
C489  C     C_R   0.423579 0.508934 0.002234 0.000000
N164  N     N_R   0.429185 0.449676 0.025100 0.000000
C490  C     C_R   0.472612 0.450452 0.031360 0.000000
C491  C     C_R   0.497052 0.411071 0.055432 0.000000
C492  C     C_R   0.541353 0.422760 0.057005 0.000000
C493  C     C_R   0.560433 0.475383 0.036289 0.000000
C494  C     C_R   0.535069 0.519145 0.014482 0.000000
C495  C     C_R   0.491332 0.505692 0.012684 0.000000
N165  N     N_R   0.460988 0.546891 0.995602 0.000000
H541  H     H_    0.356473 0.489591 0.902881 0.000000
H542  H     H_    0.323221 0.505674 0.939121 0.000000
H543  H     H_    0.354724 0.580393 0.920827 0.000000
H544  H     H_    0.417825 0.524613 0.938781 0.000000
H545  H     H_    0.376155 0.584166 0.981421 0.000000
H546  H     H_    0.356534 0.491998 0.993891 0.000000
H547  H     H_    0.483180 0.372827 0.073146 0.000000
H548  H     H_    0.561651 0.391723 0.074841 0.000000
H549  H     H_    0.594905 0.484523 0.038330 0.000000
H550  H     H_    0.549403 0.563882 0.000049 0.000000
C496  C     C_3   0.496149 0.254993 0.985259 0.000000
N166  N     N_3   0.492168 0.233708 0.020595 0.000000
C497  C     C_3   0.446675 0.238710 0.029349 0.000000
C498  C     C_R   0.441152 0.240412 0.066561 0.000000
N167  N     N_R   0.451652 0.182137 0.089646 0.000000
C499  C     C_R   0.433375 0.208063 0.117909 0.000000
C500  C     C_R   0.426361 0.168565 0.147463 0.000000
C501  C     C_R   0.407707 0.205388 0.173833 0.000000
C502  C     C_R   0.395079 0.279918 0.169993 0.000000
C503  C     C_R   0.398777 0.316893 0.139216 0.000000
C504  C     C_R   0.417069 0.279118 0.113026 0.000000
N168  N     N_R   0.419167 0.300346 0.080193 0.000000
H551  H     H_    0.529258 0.239736 0.976809 0.000000
H552  H     H_    0.472057 0.225390 0.970046 0.000000
H553  H     H_    0.490896 0.316287 0.981681 0.000000
H554  H     H_    0.508313 0.273731 0.034050 0.000000
H555  H     H_    0.432646 0.291751 0.018656 0.000000
H556  H     H_    0.428683 0.192295 0.018551 0.000000
H557  H     H_    0.432082 0.109277 0.149628 0.000000
H558  H     H_    0.402129 0.175475 0.197331 0.000000
H559  H     H_    0.380148 0.308200 0.190653 0.000000
H560  H     H_    0.385808 0.372686 0.136072 0.000000
C505  C     C_3   0.794866 0.683443 0.655337 0.000000
N169  N     N_3   0.794210 0.729812 0.684739 0.000000
C506  C     C_3   0.827134 0.701119 0.708387 0.000000
C507  C     C_R   0.829290 0.746835 0.738683 0.000000
N170  N     N_R   0.863441 0.794829 0.742477 0.000000
C508  C     C_R   0.871039 0.790152 0.775683 0.000000
C509  C     C_R   0.906445 0.814495 0.792995 0.000000
C510  C     C_R   0.907135 0.805112 0.827628 0.000000
C511  C     C_R   0.870673 0.779899 0.843838 0.000000
C512  C     C_R   0.836264 0.754055 0.825338 0.000000
C513  C     C_R   0.839733 0.750406 0.791347 0.000000
N171  N     N_R   0.811990 0.721152 0.768811 0.000000
H561  H     H_    0.792865 0.719244 0.632260 0.000000
H562  H     H_    0.824997 0.648676 0.654665 0.000000
H563  H     H_    0.766270 0.647471 0.655451 0.000000
H564  H     H_    0.764359 0.721971 0.696087 0.000000
H565  H     H_    0.820741 0.643254 0.716492 0.000000
H566  H     H_    0.859306 0.701403 0.696773 0.000000
H567  H     H_    0.933340 0.838810 0.780127 0.000000
H568  H     H_    0.934636 0.822774 0.842227 0.000000
H569  H     H_    0.868746 0.781919 0.870896 0.000000
H570  H     H_    0.805500 0.748733 0.836409 0.000000
C514  C     C_3   0.938192 0.981712 0.821553 0.000000
N172  N     N_3   0.897807 0.975593 0.802573 0.000000
C515  C     C_3   0.900615 0.005022 0.768023 0.000000
C516  C     C_R   0.942130 0.986316 0.751842 0.000000
N173  N     N_R   0.979936 0.025887 0.755839 0.000000
C517  C     C_R   0.007816 0.987001 0.736899 0.000000
C518  C     C_R   0.051433 0.997721 0.733399 0.000000
C519  C     C_R   0.072524 0.962739 0.707726 0.000000
C520  C     C_R   0.049519 0.918972 0.686066 0.000000
C521  C     C_R   0.006432 0.903043 0.691938 0.000000
C522  C     C_R   0.986639 0.935065 0.718944 0.000000
N174  N     N_R   0.944869 0.930328 0.728698 0.000000
H571  H     H_    0.960541 0.934288 0.816285 0.000000
H572  H     H_    0.954279 0.034309 0.815275 0.000000
H573  H     H_    0.931046 0.979986 0.848795 0.000000
H574  H     H_    0.873475 0.005641 0.814615 0.000000
H575  H     H_    0.876112 0.977374 0.753212 0.000000
H576  H     H_    0.893290 0.065017 0.766015 0.000000
H577  H     H_    0.068740 0.033383 0.749612 0.000000
H578  H     H_    0.106497 0.972709 0.703452 0.000000
H579  H     H_    0.065668 0.897806 0.664386 0.000000
H580  H     H_    0.989007 0.869088 0.674826 0.000000
C523  C     C_3   0.859955 0.084831 0.319192 0.000000
N175  N     N_3   0.849031 0.151475 0.298684 0.000000
C524  C     C_3   0.809651 0.137626 0.279598 0.000000
C525  C     C_R   0.806550 0.188981 0.249598 0.000000
N176  N     N_R   0.778300 0.250422 0.246854 0.000000
C526  C     C_R   0.785027 0.275807 0.215290 0.000000
C527  C     C_R   0.762395 0.332551 0.198107 0.000000
C528  C     C_R   0.767003 0.339262 0.163941 0.000000
C529  C     C_R   0.795976 0.293174 0.147974 0.000000
C530  C     C_R   0.821294 0.241527 0.166029 0.000000
C531  C     C_R   0.814115 0.231691 0.199735 0.000000
N177  N     N_R   0.828031 0.174444 0.220234 0.000000
H581  H     H_    0.885380 0.098174 0.337909 0.000000
H582  H     H_    0.830780 0.065262 0.332538 0.000000
H583  H     H_    0.872602 0.039984 0.303161 0.000000
H584  H     H_    0.874060 0.159344 0.281682 0.000000
H585  H     H_    0.810214 0.080027 0.271131 0.000000
H586  H     H_    0.780814 0.144904 0.295425 0.000000
H587  H     H_    0.735744 0.362419 0.208949 0.000000
H588  H     H_    0.745243 0.376394 0.149477 0.000000
H589  H     H_    0.796778 0.294040 0.120976 0.000000
H590  H     H_    0.840116 0.202314 0.152506 0.000000
C532  C     C_3   0.784175 0.948727 0.236159 0.000000
N178  N     N_3   0.827078 0.955693 0.251246 0.000000
C533  C     C_3   0.860088 0.909494 0.235530 0.000000
C534  C     C_R   0.901700 0.948597 0.238977 0.000000
N179  N     N_R   0.904031 0.024689 0.231699 0.000000
C535  C     C_R   0.938829 0.042950 0.250145 0.000000
C536  C     C_R   0.954417 0.112474 0.254310 0.000000
C537  C     C_R   0.987643 0.121655 0.277319 0.000000
C538  C     C_R   0.003716 0.060891 0.296299 0.000000
C539  C     C_R   0.988011 0.990323 0.291302 0.000000
C540  C     C_R   0.956423 0.982151 0.267120 0.000000
N180  N     N_R   0.935455 0.919672 0.259180 0.000000
H591  H     H_    0.770331 0.005322 0.230026 0.000000
H592  H     H_    0.785194 0.916875 0.212896 0.000000
H593  H     H_    0.762543 0.921462 0.254554 0.000000
H594  H     H_    0.825523 0.938811 0.276530 0.000000
H595  H     H_    0.862435 0.854767 0.249174 0.000000
H596  H     H_    0.853126 0.901026 0.208807 0.000000
H597  H     H_    0.939598 0.158306 0.240912 0.000000
H598  H     H_    0.999991 0.176630 0.281516 0.000000
H599  H     H_    0.028144 0.068962 0.315499 0.000000
H600  H     H_    0.998708 0.944995 0.307627 0.000000
C541  C     C_3   0.393161 0.776727 0.496564 0.000000
N181  N     N_3   0.354418 0.811610 0.509871 0.000000
C542  C     C_3   0.329370 0.756906 0.528891 0.000000
C543  C     C_R   0.319267 0.695314 0.506815 0.000000
N182  N     N_R   0.296852 0.715059 0.477802 0.000000
C544  C     C_R   0.319023 0.676723 0.454739 0.000000
C545  C     C_R   0.322663 0.698156 0.421650 0.000000
C546  C     C_R   0.354259 0.664316 0.402618 0.000000
C547  C     C_R   0.384133 0.614493 0.417662 0.000000
C548  C     C_R   0.383271 0.600025 0.451930 0.000000
C549  C     C_R   0.349678 0.629593 0.470085 0.000000
N183  N     N_R   0.349216 0.637216 0.503778 0.000000
H601  H     H_    0.388805 0.766844 0.469418 0.000000
H602  H     H_    0.421472 0.811779 0.499371 0.000000
H603  H     H_    0.401127 0.726000 0.510991 0.000000
H604  H     H_    0.337204 0.828692 0.488462 0.000000
H605  H     H_    0.347855 0.738146 0.551516 0.000000
H606  H     H_    0.298039 0.782019 0.536298 0.000000
H607  H     H_    0.304742 0.746168 0.411808 0.000000
H608  H     H_    0.357762 0.681031 0.376490 0.000000
H609  H     H_    0.410558 0.592240 0.403105 0.000000
H610  H     H_    0.410742 0.572564 0.463988 0.000000
C550  C     C_3   0.317999 0.409044 0.493861 0.000000
N184  N     N_3   0.355581 0.446421 0.506955 0.000000
C551  C     C_3   0.391530 0.426145 0.486302 0.000000
C552  C     C_R   0.432589 0.454481 0.499503 0.000000
N185  N     N_R   0.435871 0.514011 0.520715 0.000000
C553  C     C_R   0.478168 0.510307 0.529662 0.000000
C554  C     C_R   0.498498 0.546513 0.555274 0.000000
C555  C     C_R   0.542120 0.532276 0.561385 0.000000
C556  C     C_R   0.564305 0.480499 0.542756 0.000000
C557  C     C_R   0.542323 0.440855 0.519038 0.000000
C558  C     C_R   0.499228 0.455658 0.512963 0.000000
N186  N     N_R   0.471089 0.416250 0.494515 0.000000
H611  H     H_    0.289551 0.423772 0.509086 0.000000
H612  H     H_    0.311958 0.426298 0.467185 0.000000
H613  H     H_    0.323161 0.347667 0.496086 0.000000
H614  H     H_    0.362852 0.418879 0.529818 0.000000
H615  H     H_    0.395383 0.366157 0.489224 0.000000
H616  H     H_    0.385908 0.443954 0.459666 0.000000
H617  H     H_    0.481323 0.582931 0.571442 0.000000
H618  H     H_    0.558618 0.560114 0.581354 0.000000
H619  H     H_    0.598242 0.467931 0.548106 0.000000
H620  H     H_    0.557867 0.396335 0.507326 0.000000
C559  C     C_3   0.848894 0.393482 0.308615 0.000000
N187  N     N_3   0.834565 0.358224 0.278068 0.000000
C560  C     C_3   0.832570 0.412768 0.250220 0.000000
C561  C     C_R   0.788913 0.450484 0.247504 0.000000
N188  N     N_R   0.750701 0.422293 0.260508 0.000000
C562  C     C_R   0.723076 0.480748 0.255212 0.000000
C563  C     C_R   0.682939 0.491212 0.268360 0.000000
C564  C     C_R   0.657146 0.549698 0.255319 0.000000
C565  C     C_R   0.671996 0.592980 0.228543 0.000000
C566  C     C_R   0.714765 0.586063 0.218682 0.000000
C567  C     C_R   0.741151 0.534669 0.235657 0.000000
N189  N     N_R   0.783903 0.520160 0.231925 0.000000
H621  H     H_    0.878345 0.426576 0.304325 0.000000
H622  H     H_    0.821996 0.428700 0.318075 0.000000
H623  H     H_    0.857437 0.349602 0.328018 0.000000
H624  H     H_    0.857798 0.317420 0.272462 0.000000
H625  H     H_    0.857478 0.455592 0.253310 0.000000
H626  H     H_    0.839860 0.385064 0.226495 0.000000
H627  H     H_    0.672642 0.454939 0.288143 0.000000
H628  H     H_    0.624427 0.557914 0.264193 0.000000
H629  H     H_    0.650348 0.633067 0.215678 0.000000
H630  H     H_    0.725869 0.617500 0.197257 0.000000
C568  C     C_3   0.899908 0.789250 0.155443 0.000000
N190  N     N_3   0.880121 0.766173 0.186604 0.000000
C569  C     C_3   0.914257 0.749917 0.210527 0.000000
C570  C     C_R   0.897965 0.708837 0.240578 0.000000
N191  N     N_R   0.914474 0.729369 0.270792 0.000000
C571  C     C_R   0.897262 0.679071 0.292443 0.000000
C572  C     C_R   0.908458 0.663234 0.325361 0.000000
C573  C     C_R   0.884143 0.613730 0.343852 0.000000
C574  C     C_R   0.850192 0.578542 0.328654 0.000000
C575  C     C_R   0.844089 0.585646 0.294244 0.000000
C576  C     C_R   0.869630 0.633879 0.276126 0.000000
N192  N     N_R   0.869997 0.648205 0.242473 0.000000
H631  H     H_    0.874002 0.810515 0.138626 0.000000
H632  H     H_    0.925478 0.830067 0.160237 0.000000
H633  H     H_    0.913792 0.741841 0.142245 0.000000
H634  H     H_    0.867833 0.714864 0.182484 0.000000
H635  H     H_    0.941442 0.719232 0.199423 0.000000
H636  H     H_    0.927176 0.803420 0.218597 0.000000
H637  H     H_    0.937820 0.682067 0.335820 0.000000
H638  H     H_    0.891826 0.602136 0.370107 0.000000
H639  H     H_    0.829850 0.542506 0.343541 0.000000
H640  H     H_    0.818308 0.556775 0.282978 0.000000
C577  C     C_3   0.980912 0.545479 0.294336 0.000000
N193  N     N_3   0.993602 0.588642 0.264558 0.000000
C578  C     C_3   0.012132 0.658423 0.274524 0.000000
C579  C     C_R   0.023740 0.708069 0.245276 0.000000
N194  N     N_R   0.061075 0.700837 0.226953 0.000000
C580  C     C_R   0.064799 0.770002 0.212690 0.000000
C581  C     C_R   0.100780 0.800710 0.198506 0.000000
C582  C     C_R   0.098056 0.874547 0.187023 0.000000
C583  C     C_R   0.060397 0.917151 0.191389 0.000000
C584  C     C_R   0.026108 0.887467 0.208991 0.000000
C585  C     C_R   0.029785 0.813954 0.219915 0.000000
N195  N     N_R   0.004507 0.777301 0.241706 0.000000
H641  H     H_    0.945628 0.535507 0.292904 0.000000
H642  H     H_    0.997558 0.490071 0.295117 0.000000
H643  H     H_    0.988497 0.575075 0.317646 0.000000
H644  H     H_    0.964132 0.605494 0.253709 0.000000
H645  H     H_    0.988202 0.688233 0.289470 0.000000
H646  H     H_    0.040248 0.649917 0.290782 0.000000
H647  H     H_    0.130878 0.769394 0.197486 0.000000
H648  H     H_    0.125725 0.899585 0.175118 0.000000
H649  H     H_    0.058702 0.974842 0.182467 0.000000
H650  H     H_    0.997763 0.921400 0.213934 0.000000
C586  C     C_3   0.764538 0.873767 0.799442 0.000000
N196  N     N_3   0.739198 0.810722 0.789113 0.000000
C587  C     C_3   0.724577 0.825008 0.754672 0.000000
C588  C     C_R   0.697758 0.762954 0.742946 0.000000
N197  N     N_R   0.710757 0.689563 0.746413 0.000000
C589  C     C_R   0.678811 0.653688 0.730566 0.000000
C590  C     C_R   0.672386 0.578139 0.729995 0.000000
C591  C     C_R   0.634363 0.553755 0.715528 0.000000
C592  C     C_R   0.602638 0.604767 0.703951 0.000000
C593  C     C_R   0.608583 0.680618 0.706825 0.000000
C594  C     C_R   0.647517 0.703782 0.719180 0.000000
N198  N     N_R   0.658326 0.773706 0.726945 0.000000
H651  H     H_    0.769091 0.871831 0.827126 0.000000
H652  H     H_    0.796178 0.874094 0.787043 0.000000
H653  H     H_    0.748430 0.926129 0.791422 0.000000
H654  H     H_    0.712000 0.808002 0.804137 0.000000
H655  H     H_    0.705363 0.877510 0.752305 0.000000
H656  H     H_    0.753191 0.829147 0.738441 0.000000
H657  H     H_    0.694341 0.539014 0.742893 0.000000
H658  H     H_    0.628085 0.494755 0.714983 0.000000
H659  H     H_    0.572356 0.585078 0.693930 0.000000
H660  H     H_    0.582997 0.720086 0.699954 0.000000
C595  C     C_3   0.943050 0.326177 0.841227 0.000000
N199  N     N_3   0.974161 0.278961 0.824123 0.000000
C596  C     C_3   0.007898 0.258086 0.848456 0.000000
C597  C     C_R   0.039903 0.202610 0.835642 0.000000
N200  N     N_R   0.025911 0.141020 0.818548 0.000000
C598  C     C_R   0.048361 0.084191 0.834296 0.000000
C599  C     C_R   0.047410 0.009206 0.828051 0.000000
C600  C     C_R   0.070624 0.960345 0.849565 0.000000
C601  C     C_R   0.093692 0.987037 0.876714 0.000000
C602  C     C_R   0.096116 0.063172 0.881356 0.000000
C603  C     C_R   0.075378 0.110761 0.858279 0.000000
N201  N     N_R   0.073993 0.186169 0.857394 0.000000
H661  H     H_    0.919437 0.350016 0.822638 0.000000
H662  H     H_    0.925517 0.292628 0.860349 0.000000
H663  H     H_    0.959753 0.372560 0.853443 0.000000
H664  H     H_    0.987273 0.310721 0.804576 0.000000
H665  H     H_    0.025175 0.307590 0.856965 0.000000
H666  H     H_    0.992710 0.232030 0.870887 0.000000
H667  H     H_    0.028812 0.988247 0.807545 0.000000
H668  H     H_    0.069751 0.900833 0.845780 0.000000
H669  H     H_    0.110257 0.948140 0.894133 0.000000
H670  H     H_    0.113143 0.083974 0.902853 0.000000
C604  C     C_3   0.256439 0.403575 0.886921 0.000000
N202  N     N_3   0.249975 0.336414 0.907594 0.000000
C605  C     C_3   0.203677 0.321832 0.907945 0.000000
C606  C     C_R   0.195142 0.241908 0.919076 0.000000
N203  N     N_R   0.170749 0.204534 0.896566 0.000000
C607  C     C_R   0.193318 0.139604 0.893174 0.000000
C608  C     C_R   0.190435 0.090159 0.867553 0.000000
C609  C     C_R   0.221007 0.032298 0.866567 0.000000
C610  C     C_R   0.255064 0.027276 0.889804 0.000000
C611  C     C_R   0.259121 0.080614 0.914006 0.000000
C612  C     C_R   0.227401 0.135778 0.915225 0.000000
N204  N     N_R   0.227893 0.197232 0.933831 0.000000
H671  H     H_    0.249891 0.392362 0.860113 0.000000
H672  H     H_    0.234665 0.449635 0.895022 0.000000
H673  H     H_    0.290597 0.420536 0.889596 0.000000
H674  H     H_    0.266424 0.292836 0.895997 0.000000
H675  H     H_    0.186192 0.364175 0.921951 0.000000
H676  H     H_    0.190047 0.331744 0.882511 0.000000
H677  H     H_    0.166045 0.097442 0.848041 0.000000
H678  H     H_    0.219231 0.992265 0.846832 0.000000
H679  H     H_    0.279562 0.983332 0.888056 0.000000
H680  H     H_    0.287570 0.080800 0.930133 0.000000
C613  C     C_3   0.366102 0.108858 0.070065 0.000000
N205  N     N_3   0.337188 0.055972 0.055351 0.000000
C614  C     C_3   0.333861 0.072114 0.019546 0.000000
C615  C     C_R   0.297875 0.030835 0.005185 0.000000
N206  N     N_R   0.294283 0.953917 0.008173 0.000000
C616  C     C_R   0.253185 0.945127 0.996749 0.000000
C617  C     C_R   0.228556 0.882675 0.999222 0.000000
C618  C     C_R   0.185747 0.887681 0.988050 0.000000
C619  C     C_R   0.168196 0.954532 0.974790 0.000000
C620  C     C_R   0.192629 0.018189 0.974193 0.000000
C621  C     C_R   0.234695 0.012051 0.986113 0.000000
N207  N     N_R   0.261714 0.068142 0.991860 0.000000
H681  H     H_    0.372117 0.095463 0.096964 0.000000
H682  H     H_    0.395778 0.111824 0.055565 0.000000
H683  H     H_    0.352808 0.164111 0.068572 0.000000
H684  H     H_    0.306772 0.061027 0.066119 0.000000
H685  H     H_    0.329183 0.130565 0.014111 0.000000
H686  H     H_    0.363969 0.063002 0.006920 0.000000
H687  H     H_    0.241088 0.833000 0.011631 0.000000
H688  H     H_    0.165262 0.839846 0.990535 0.000000
H689  H     H_    0.134632 0.957685 0.966485 0.000000
H690  H     H_    0.178205 0.071588 0.966304 0.000000
C622  C     C_3   0.361312 0.885845 0.165264 0.000000
N208  N     N_3   0.379141 0.878305 0.131825 0.000000
C623  C     C_3   0.378097 0.951754 0.115113 0.000000
C624  C     C_R   0.402680 0.951922 0.082678 0.000000
N209  N     N_R   0.438004 0.997838 0.077345 0.000000
C625  C     C_R   0.441839 0.996559 0.043526 0.000000
C626  C     C_R   0.463025 0.047984 0.023695 0.000000
C627  C     C_R   0.455467 0.050735 0.989530 0.000000
C628  C     C_R   0.426081 0.003635 0.975434 0.000000
C629  C     C_R   0.405015 0.952105 0.995323 0.000000
C630  C     C_R   0.412428 0.951028 0.029641 0.000000
N210  N     N_R   0.385834 0.923102 0.053172 0.000000
H691  H     H_    0.358092 0.829558 0.177296 0.000000
H692  H     H_    0.382829 0.919428 0.180981 0.000000
H693  H     H_    0.329089 0.914289 0.163695 0.000000
H694  H     H_    0.358259 0.844619 0.118607 0.000000
H695  H     H_    0.344267 0.970062 0.110229 0.000000
H696  H     H_    0.391836 0.993367 0.131956 0.000000
H697  H     H_    0.480543 0.092356 0.034379 0.000000
H698  H     H_    0.470795 0.092493 0.973906 0.000000
H699  H     H_    0.417888 0.009725 0.948972 0.000000
H700  H     H_    0.377396 0.926765 0.984431 0.000000
C631  C     C_3   0.558137 0.300757 0.131302 0.000000
N211  N     N_3   0.530719 0.239157 0.141216 0.000000
C632  C     C_3   0.558716 0.173657 0.146023 0.000000
C633  C     C_R   0.536756 0.108732 0.162469 0.000000
N212  N     N_R   0.549980 0.079081 0.193600 0.000000
C634  C     C_R   0.524545 0.019614 0.197376 0.000000
C635  C     C_R   0.522556 0.971589 0.224808 0.000000
C636  C     C_R   0.495990 0.910845 0.222929 0.000000
C637  C     C_R   0.472005 0.899975 0.193909 0.000000
C638  C     C_R   0.472934 0.951654 0.167334 0.000000
C639  C     C_R   0.499198 0.011547 0.169689 0.000000
N213  N     N_R   0.506175 0.066280 0.146382 0.000000
H701  H     H_    0.584262 0.309528 0.149944 0.000000
H702  H     H_    0.573609 0.288024 0.107134 0.000000
H703  H     H_    0.537861 0.352669 0.128588 0.000000
H704  H     H_    0.513474 0.229811 0.119423 0.000000
H705  H     H_    0.570193 0.156240 0.121397 0.000000
H706  H     H_    0.585907 0.189478 0.162221 0.000000
H707  H     H_    0.539633 0.982440 0.247667 0.000000
H708  H     H_    0.494000 0.871709 0.244061 0.000000
H709  H     H_    0.452129 0.851275 0.192224 0.000000
H710  H     H_    0.454930 0.944086 0.144855 0.000000
C640  C     C_3   0.697339 0.200154 0.177045 0.000000
N214  N     N_3   0.713276 0.138988 0.200024 0.000000
C641  C     C_3   0.699127 0.145042 0.234665 0.000000
C642  C     C_R   0.666146 0.204185 0.236894 0.000000
N215  N     N_R   0.675331 0.278616 0.239676 0.000000
C643  C     C_R   0.638041 0.312286 0.227989 0.000000
C644  C     C_R   0.629529 0.386242 0.220265 0.000000
C645  C     C_R   0.587288 0.408033 0.211650 0.000000
C646  C     C_R   0.554756 0.355661 0.210680 0.000000
C647  C     C_R   0.564953 0.280146 0.215136 0.000000
C648  C     C_R   0.607534 0.260025 0.221905 0.000000
N216  N     N_R   0.625294 0.190788 0.225970 0.000000
H711  H     H_    0.703533 0.255042 0.185701 0.000000
H712  H     H_    0.713366 0.197350 0.152625 0.000000
H713  H     H_    0.662224 0.199683 0.172043 0.000000
H714  H     H_    0.746900 0.138680 0.200839 0.000000
H715  H     H_    0.685285 0.091708 0.242986 0.000000
H716  H     H_    0.725967 0.153983 0.252027 0.000000
H717  H     H_    0.655339 0.424894 0.218130 0.000000
H718  H     H_    0.579577 0.466202 0.205604 0.000000
H719  H     H_    0.521784 0.373533 0.204437 0.000000
H720  H     H_    0.540383 0.238882 0.212329 0.000000

loop_
_geom_bond_atom_site_label_1
_geom_bond_atom_site_label_2
_geom_bond_distance
_geom_bond_site_symmetry_2
_ccdc_geom_bond_type
Zn1   N2    2.058 .      S
Zn1   N5    2.029 .      S
Zn1   N102  2.047 .      S
Zn1   N146  2.097 .      S
Zn2   N39   2.143 .      S
Zn2   N156  2.090 .      S
Zn2   N171  2.147 .      S
Zn2   N197  1.997 .      S
Zn3   N57   2.044 .      S
Zn3   N180  2.100 .      S
Zn3   N191  2.078 .      S
Zn3   N195  1.964 1_655  S
Zn4   N9    2.012 .      S
Zn4   N59   2.124 .      S
Zn4   N137  2.130 .      S
Zn4   N182  2.107 .      S
Zn5   N8    2.066 .      S
Zn5   N63   2.095 .      S
Zn5   N104  2.093 .      S
Zn5   N149  2.045 .      S
Zn6   N11   2.032 .      S
Zn6   N14   2.068 .      S
Zn6   N35   2.091 1_554  S
Zn6   N95   2.048 .      S
Zn7   N18   2.026 .      S
Zn7   N51   2.225 .      S
Zn7   N84   2.054 .      S
Zn7   N134  2.110 .      S
Zn8   N21   1.990 .      S
Zn8   N24   2.193 1_554  S
Zn8   N74   2.197 .      S
Zn8   N116  2.105 .      S
Zn9   N12   2.024 1_556  S
Zn9   N26   2.055 .      S
Zn9   N32   2.156 .      S
Zn9   N165  2.048 .      S
Zn10  N17   2.001 .      S
Zn10  N48   2.060 .      S
Zn10  N140  2.098 .      S
Zn10  N186  2.101 .      S
Zn11  N30   2.041 .      S
Zn11  N33   2.090 .      S
Zn11  N36   2.079 .      S
Zn11  N38   2.080 .      S
Zn12  N42   2.107 .      S
Zn12  N45   2.058 .      S
Zn12  N47   2.100 .      S
Zn12  N50   2.148 .      S
Zn13  N53   2.155 .      S
Zn13  N56   2.116 .      S
Zn13  N60   2.073 .      S
Zn13  N62   2.089 .      S
Zn14  N66   2.086 .      S
Zn14  N69   2.075 .      S
Zn14  N71   2.087 .      S
Zn14  N75   2.150 .      S
Zn15  N77   2.131 .      S
Zn15  N80   2.223 .      S
Zn15  N83   2.063 .      S
Zn15  N86   2.142 .      S
Zn16  N89   2.090 .      S
Zn16  N92   2.119 .      S
Zn16  N96   2.063 .      S
Zn16  N98   2.014 .      S
Zn17  N101  2.086 1_655  S
Zn17  N105  2.122 1_655  S
Zn17  N108  2.080 .      S
Zn17  N110  2.116 .      S
Zn18  N114  2.139 1_655  S
Zn18  N117  2.144 .      S
Zn18  N119  2.109 .      S
Zn18  N123  2.077 .      S
Zn19  N126  2.067 .      S
Zn19  N129  2.101 .      S
Zn19  N131  2.050 .      S
Zn19  N135  2.093 .      S
Zn20  N78   2.109 .      S
Zn20  N138  2.104 .      S
Zn20  N141  2.095 .      S
Zn20  N143  2.086 .      S
Zn21  N144  2.095 .      S
Zn21  N147  2.083 .      S
Zn21  N150  2.075 .      S
Zn21  N153  2.080 .      S
Zn22  N107  2.081 .      S
Zn22  N128  2.108 .      S
Zn22  N155  2.150 .      S
Zn22  N158  2.058 .      S
Zn23  N72   2.107 .      S
Zn23  N161  2.040 .      S
Zn23  N164  2.081 .      S
Zn23  N168  2.107 .      S
Zn24  N111  2.059 .      S
Zn24  N132  2.067 .      S
Zn24  N170  2.075 .      S
Zn24  N174  2.119 .      S
Zn25  N93   2.116 .      S
Zn25  N120  2.130 .      S
Zn25  N177  2.041 .      S
Zn25  N179  2.107 .      S
Zn26  N87   2.165 .      S
Zn26  N152  2.068 .      S
Zn26  N183  2.123 .      S
Zn26  N185  2.062 .      S
Zn27  N99   2.045 .      S
Zn27  N122  2.085 .      S
Zn27  N189  2.082 .      S
Zn27  N192  2.144 .      S
Zn28  N54   2.124 .      S
Zn28  N65   2.140 .      S
Zn28  N113  2.134 .      S
Zn28  N194  2.043 .      S
Zn29  N29   2.141 .      S
Zn29  N81   2.106 .      S
Zn29  N125  2.027 .      S
Zn29  N198  2.002 .      S
Zn30  N3    2.028 1_655  S
Zn30  N159  2.067 .      S
Zn30  N173  2.113 .      S
Zn30  N200  2.085 1_655  S
Zn31  N20   2.011 1_556  S
Zn31  N162  2.027 1_556  S
Zn31  N204  2.054 .      S
Zn31  N207  2.073 .      S
Zn32  N6    2.143 .      S
Zn32  N23   2.149 .      S
Zn32  N201  2.089 .      S
Zn32  N203  2.006 .      S
Zn33  N15   2.035 .      S
Zn33  N167  2.128 .      S
Zn33  N209  2.100 1_545  S
Zn33  N213  2.099 .      S
Zn34  N27   2.075 1_554  S
Zn34  N68   2.055 .      S
Zn34  N206  2.115 .      S
Zn34  N210  2.080 .      S
Zn35  N41   2.112 .      S
Zn35  N90   2.133 .      S
Zn35  N212  2.069 .      S
Zn35  N216  1.997 .      S
Zn36  N44   2.067 .      S
Zn36  N176  2.038 .      S
Zn36  N188  2.123 .      S
Zn36  N215  2.056 .      S
C1    N1    1.452 .      S
C1    H1    1.109 .      S
C1    H2    1.109 .      S
C1    H3    1.103 .      S
N1    C2    1.457 .      S
N1    H4    1.044 .      S
C2    C3    1.493 .      S
C2    H5    1.096 .      S
C2    H6    1.090 .      S
C5    H7    1.060 .      S
C6    H8    1.081 .      S
C7    H9    1.081 .      S
C8    H10   1.076 1_455  S
N3    Zn30  2.028 1_455  S
H10   C8    1.076 1_655  S
C10   N4    1.451 .      S
C10   H11   1.108 .      S
C10   H12   1.106 .      S
C10   H13   1.103 .      S
N4    C11   1.456 .      S
N4    H14   1.041 .      S
C11   C12   1.495 .      S
C11   H15   1.090 .      S
C11   H16   1.103 .      S
C14   H17   1.066 .      S
C15   H18   1.081 .      S
C16   H19   1.081 .      S
C17   H20   1.045 .      S
C19   N7    1.454 .      S
C19   H21   1.103 .      S
C19   H22   1.097 .      S
C19   H23   1.104 .      S
N7    C20   1.433 .      S
N7    H24   1.029 .      S
C20   C21   1.473 .      S
C20   H25   1.089 .      S
C20   H26   1.096 .      S
C23   H27   1.065 .      S
C24   H28   1.081 .      S
C25   H29   1.080 .      S
C26   H30   1.074 .      S
C28   N10   1.454 .      S
C28   H31   1.108 .      S
C28   H32   1.100 .      S
C28   H33   1.099 .      S
N10   C29   1.442 .      S
N10   H34   1.042 .      S
C29   C30   1.465 1_556  S
C29   H35   1.097 .      S
C29   H36   1.090 .      S
C30   C29   1.465 1_554  S
C32   H37   1.073 .      S
C33   H38   1.081 .      S
C34   H39   1.081 .      S
C35   H40   1.072 .      S
N12   Zn9   2.024 1_554  S
C37   N13   1.453 .      S
C37   H41   1.109 .      S
C37   H42   1.093 .      S
C37   H43   1.099 .      S
N13   C38   1.443 .      S
N13   H44   1.036 .      S
C38   C39   1.477 .      S
C38   H45   1.092 .      S
C38   H46   1.106 .      S
C41   H47   1.079 .      S
C42   H48   1.081 .      S
C43   H49   1.081 .      S
C44   H50   1.076 .      S
C46   N16   1.454 .      S
C46   H51   1.107 .      S
C46   H52   1.109 .      S
C46   H53   1.104 .      S
N16   C47   1.450 .      S
N16   H54   1.031 .      S
C47   C48   1.488 .      S
C47   H55   1.081 .      S
C47   H56   1.083 .      S
C50   H57   1.076 .      S
C51   H58   1.080 .      S
C52   H59   1.081 .      S
C53   H60   1.069 .      S
C55   N19   1.452 1_556  S
C55   H61   1.103 .      S
C55   H62   1.098 .      S
C55   H63   1.106 .      S
N19   C55   1.452 1_554  S
N19   C56   1.436 1_554  S
N19   H64   1.025 .      S
C56   N19   1.436 1_556  S
C56   C57   1.480 1_556  S
C56   H65   1.093 .      S
C56   H66   1.087 .      S
C57   C56   1.480 1_554  S
N20   Zn31  2.011 1_554  S
C59   H67   1.073 .      S
C60   H68   1.081 .      S
C61   H69   1.081 .      S
C62   H70   1.073 .      S
C64   N22   1.453 .      S
C64   H71   1.109 .      S
C64   H72   1.109 .      S
C64   H73   1.109 .      S
N22   C65   1.451 .      S
N22   H74   1.038 .      S
C65   C66   1.484 .      S
C65   H75   1.097 .      S
C65   H76   1.108 .      S
C68   H77   1.076 .      S
C69   H78   1.080 .      S
C70   H79   1.081 .      S
C71   H80   1.080 .      S
N24   Zn8   2.193 1_556  S
C73   N25   1.445 .      S
C73   H81   1.106 .      S
C73   H82   1.102 .      S
C73   H83   1.105 .      S
N25   C74   1.443 .      S
N25   H84   1.035 .      S
C74   C75   1.473 .      S
C74   H85   1.103 .      S
C74   H86   1.101 .      S
C77   H87   1.079 .      S
C78   H88   1.081 .      S
C79   H89   1.081 .      S
C80   H90   1.078 .      S
N27   Zn34  2.075 1_556  S
C82   N28   1.454 .      S
C82   H91   1.109 .      S
C82   H92   1.108 .      S
C82   H93   1.109 .      S
N28   C83   1.445 .      S
N28   H94   1.040 .      S
C83   C84   1.491 .      S
C83   H95   1.102 .      S
C83   H96   1.104 .      S
C86   H97   1.043 .      S
C87   H98   1.081 1_565  S
C88   H99   1.081 .      S
C89   H100  1.071 .      S
H98   C87   1.081 1_545  S
C91   N31   1.455 .      S
C91   H101  1.109 .      S
C91   H102  1.108 .      S
C91   H103  1.106 .      S
N31   C92   1.454 .      S
N31   H104  1.041 .      S
C92   C93   1.491 .      S
C92   H105  1.108 .      S
C92   H106  1.099 .      S
C95   H107  1.076 .      S
C96   H108  1.081 .      S
C97   H109  1.081 .      S
C98   H110  1.073 .      S
C100  N34   1.457 .      S
C100  H111  1.109 1_556  S
C100  H112  1.109 1_556  S
C100  H113  1.105 .      S
N34   C101  1.456 .      S
N34   H114  1.042 .      S
C101  C102  1.490 .      S
C101  H115  1.107 .      S
C101  H116  1.105 .      S
N35   Zn6   2.091 1_556  S
C104  H117  1.053 .      S
C105  H118  1.081 .      S
C106  H119  1.081 .      S
C107  H120  1.065 .      S
H111  C100  1.109 1_554  S
H112  C100  1.109 1_554  S
C109  N37   1.452 .      S
C109  H121  1.105 .      S
C109  H122  1.108 .      S
C109  H123  1.109 .      S
N37   C110  1.457 .      S
N37   H124  1.043 .      S
C110  C111  1.482 .      S
C110  H125  1.098 .      S
C110  H126  1.105 .      S
C113  H127  1.068 .      S
C114  H128  1.081 .      S
C115  H129  1.081 .      S
C116  H130  1.080 .      S
C118  N40   1.454 .      S
C118  H131  1.109 .      S
C118  H132  1.109 1_565  S
C118  H133  1.109 .      S
N40   C119  1.449 1_565  S
N40   H134  1.044 .      S
C119  N40   1.449 1_545  S
C119  C120  1.492 .      S
C119  H135  1.105 .      S
C119  H136  1.099 .      S
C122  H137  1.060 .      S
C123  H138  1.081 .      S
C124  H139  1.081 .      S
C125  H140  1.062 .      S
H132  C118  1.109 1_545  S
C127  N43   1.454 .      S
C127  H141  1.109 .      S
C127  H142  1.108 .      S
C127  H143  1.108 .      S
N43   C128  1.446 .      S
N43   H144  1.041 .      S
C128  C129  1.490 .      S
C128  H145  1.100 .      S
C128  H146  1.096 .      S
C131  H147  1.069 .      S
C132  H148  1.080 .      S
C133  H149  1.080 .      S
C134  H150  1.069 .      S
C136  N46   1.450 .      S
C136  H151  1.109 .      S
C136  H152  1.106 .      S
C136  H153  1.109 .      S
N46   C137  1.450 .      S
N46   H154  1.044 .      S
C137  C138  1.479 .      S
C137  H155  1.095 .      S
C137  H156  1.103 .      S
C140  H157  1.072 .      S
C141  H158  1.081 .      S
C142  H159  1.081 .      S
C143  H160  1.078 .      S
C145  N49   1.454 .      S
C145  H161  1.109 .      S
C145  H162  1.109 .      S
C145  H163  1.109 .      S
N49   C146  1.456 .      S
N49   H164  1.044 .      S
C146  C147  1.488 .      S
C146  H165  1.085 .      S
C146  H166  1.105 .      S
C149  H167  1.073 .      S
C150  H168  1.081 .      S
C151  H169  1.081 .      S
C152  H170  1.056 .      S
C154  N52   1.455 .      S
C154  H171  1.109 .      S
C154  H172  1.107 .      S
C154  H173  1.109 .      S
N52   C155  1.450 .      S
N52   H174  1.043 .      S
C155  C156  1.487 .      S
C155  H175  1.103 .      S
C155  H176  1.108 .      S
C158  H177  1.056 .      S
C159  H178  1.081 .      S
C160  H179  1.081 .      S
C161  H180  1.057 .      S
C163  N55   1.455 .      S
C163  H181  1.106 .      S
C163  H182  1.110 .      S
C163  H183  1.109 .      S
N55   C164  1.453 .      S
N55   H184  1.040 .      S
C164  C165  1.486 .      S
C164  H185  1.101 .      S
C164  H186  1.096 .      S
C167  H187  1.073 1_655  S
C168  H188  1.081 .      S
C169  H189  1.081 .      S
C170  H190  1.081 .      S
H187  C167  1.073 1_455  S
C172  N58   1.456 .      S
C172  H191  1.109 .      S
C172  H192  1.109 .      S
C172  H193  1.106 .      S
N58   C173  1.452 .      S
N58   H194  1.039 .      S
C173  C174  1.495 .      S
C173  H195  1.102 .      S
C173  H196  1.086 .      S
C176  H197  1.067 .      S
C177  H198  1.081 1_565  S
C178  H199  1.081 1_565  S
C179  H200  1.077 .      S
H198  C177  1.081 1_545  S
H199  C178  1.081 1_545  S
C181  N61   1.457 .      S
C181  H201  1.109 .      S
C181  H202  1.104 .      S
C181  H203  1.107 .      S
N61   C182  1.445 .      S
N61   H204  1.039 .      S
C182  C183  1.487 .      S
C182  H205  1.108 .      S
C182  H206  1.091 .      S
C185  H207  1.061 .      S
C186  H208  1.081 .      S
C187  H209  1.081 1_455  S
C188  H210  1.072 .      S
H209  C187  1.081 1_655  S
C190  N64   1.456 .      S
C190  H211  1.109 .      S
C190  H212  1.108 .      S
C190  H213  1.109 .      S
N64   C191  1.450 .      S
N64   H214  1.035 .      S
C191  C192  1.519 .      S
C191  H215  1.096 .      S
C191  H216  1.081 .      S
C194  H217  1.074 .      S
C195  H218  1.081 .      S
C196  H219  1.081 .      S
C197  H220  1.067 .      S
C199  N67   1.451 .      S
C199  H221  1.105 .      S
C199  H222  1.104 .      S
C199  H223  1.101 .      S
N67   C200  1.453 1_556  S
N67   H224  1.032 .      S
C200  N67   1.453 1_554  S
C200  C201  1.498 .      S
C200  H225  1.106 .      S
C200  H226  1.103 .      S
C203  H227  1.075 .      S
C204  H228  1.081 .      S
C205  H229  1.081 .      S
C206  H230  1.074 .      S
C208  N70   1.443 .      S
C208  H231  1.056 .      S
C208  H232  1.108 .      S
C208  H233  1.080 .      S
N70   C209  1.449 .      S
N70   H234  1.041 .      S
C209  C210  1.438 .      S
C209  H235  1.086 .      S
C209  H236  1.101 .      S
C212  H237  1.081 .      S
C213  H238  1.081 .      S
C214  H239  1.081 .      S
C215  H240  1.081 .      S
C217  N73   1.462 .      S
C217  H241  1.086 .      S
C217  H242  1.108 .      S
C217  H243  1.089 .      S
N73   C218  1.429 .      S
N73   H244  1.037 .      S
C218  C219  1.488 .      S
C218  H245  1.095 .      S
C218  H246  1.086 .      S
C221  H247  1.062 .      S
C222  H248  1.081 .      S
C223  H249  1.078 .      S
C224  H250  1.075 .      S
C226  N76   1.453 .      S
C226  H251  1.108 .      S
C226  H252  1.105 .      S
C226  H253  1.103 .      S
N76   C227  1.453 .      S
N76   H254  1.033 1_565  S
C227  C228  1.477 .      S
C227  H255  1.082 .      S
C227  H256  1.108 .      S
C230  H257  1.069 .      S
C231  H258  1.081 .      S
C232  H259  1.081 .      S
C233  H260  1.071 .      S
H254  N76   1.033 1_545  S
C235  N79   1.457 .      S
C235  H261  1.107 .      S
C235  H262  1.103 .      S
C235  H263  1.102 .      S
N79   C236  1.456 .      S
N79   H264  1.042 .      S
C236  C237  1.482 .      S
C236  H265  1.106 .      S
C236  H266  1.102 .      S
C239  H267  1.058 .      S
C240  H268  1.081 .      S
C241  H269  1.081 .      S
C242  H270  1.070 .      S
C244  N82   1.455 .      S
C244  H271  1.102 .      S
C244  H272  1.108 .      S
C244  H273  1.105 .      S
N82   C245  1.437 .      S
N82   H274  1.033 .      S
C245  C246  1.480 .      S
C245  H275  1.091 .      S
C245  H276  1.102 .      S
C248  H277  1.067 .      S
C249  H278  1.081 .      S
C250  H279  1.081 .      S
C251  H280  1.081 .      S
C253  N85   1.454 .      S
C253  H281  1.109 .      S
C253  H282  1.109 .      S
C253  H283  1.109 .      S
N85   C254  1.453 .      S
N85   H284  1.035 .      S
C254  C255  1.513 .      S
C254  H285  1.105 .      S
C254  H286  1.106 .      S
C257  H287  1.059 .      S
C258  H288  1.080 .      S
C259  H289  1.081 .      S
C260  H290  1.053 .      S
C262  N88   1.447 .      S
C262  H291  1.108 .      S
C262  H292  1.103 .      S
C262  H293  1.099 .      S
N88   C263  1.417 .      S
N88   H294  1.025 .      S
C263  C264  1.473 1_545  S
C263  H295  1.109 1_545  S
C263  H296  1.100 1_545  S
C264  C263  1.473 1_565  S
C266  H297  1.071 .      S
C267  H298  1.079 .      S
C268  H299  1.081 .      S
C269  H300  1.069 .      S
H295  C263  1.109 1_565  S
H296  C263  1.100 1_565  S
C271  N91   1.452 .      S
C271  H301  1.107 .      S
C271  H302  1.108 .      S
C271  H303  1.105 .      S
N91   C272  1.462 .      S
N91   H304  1.040 .      S
C272  C273  1.475 .      S
C272  H305  1.079 .      S
C272  H306  1.085 .      S
C275  H307  1.075 .      S
C276  H308  1.081 .      S
C277  H309  1.081 .      S
C278  H310  1.081 .      S
C280  N94   1.453 .      S
C280  H311  1.109 1_554  S
C280  H312  1.108 1_565  S
C280  H313  1.109 .      S
N94   C281  1.455 .      S
N94   H314  1.044 .      S
C281  C282  1.480 .      S
C281  H315  1.105 .      S
C281  H316  1.094 .      S
C284  H317  1.071 .      S
C285  H318  1.081 .      S
C286  H319  1.081 .      S
C287  H320  1.069 .      S
H311  C280  1.109 1_556  S
H312  C280  1.108 1_545  S
C289  N97   1.456 .      S
C289  H321  1.105 .      S
C289  H322  1.109 .      S
C289  H323  1.108 .      S
N97   C290  1.439 .      S
N97   H324  1.041 .      S
C290  C291  1.499 .      S
C290  H325  1.091 .      S
C290  H326  1.095 .      S
C293  H327  1.066 .      S
C294  H328  1.081 .      S
C295  H329  1.081 .      S
C296  H330  1.056 .      S
C298  N100  1.454 .      S
C298  H331  1.107 .      S
C298  H332  1.109 .      S
C298  H333  1.101 .      S
N100  C299  1.449 .      S
N100  H334  1.040 .      S
C299  C300  1.456 .      S
C299  H335  1.096 .      S
C299  H336  1.095 .      S
N101  Zn17  2.086 1_455  S
C302  H337  1.059 .      S
C303  H338  1.081 .      S
C304  H339  1.081 .      S
C305  H340  1.070 .      S
C307  N103  1.450 .      S
C307  H341  1.108 .      S
C307  H342  1.109 .      S
C307  H343  1.107 .      S
N103  C308  1.438 .      S
N103  H344  1.033 .      S
C308  C309  1.481 .      S
C308  H345  1.109 .      S
C308  H346  1.097 .      S
C311  H347  1.074 .      S
C312  H348  1.081 1_455  S
C313  H349  1.081 .      S
C314  H350  1.068 .      S
N105  Zn17  2.122 1_455  S
H348  C312  1.081 1_655  S
C316  N106  1.454 .      S
C316  H351  1.108 .      S
C316  H352  1.108 .      S
C316  H353  1.109 .      S
N106  C317  1.449 .      S
N106  H354  1.039 .      S
C317  C318  1.497 .      S
C317  H355  1.097 .      S
C317  H356  1.093 .      S
C320  H357  1.053 .      S
C321  H358  1.079 .      S
C322  H359  1.076 .      S
C323  H360  1.062 .      S
C325  N109  1.457 .      S
C325  H361  1.109 .      S
C325  H362  1.107 1_655  S
C325  H363  1.108 1_655  S
N109  C326  1.444 .      S
N109  H364  1.043 .      S
C326  C327  1.499 .      S
C326  H365  1.095 .      S
C326  H366  1.099 1_655  S
C329  H367  1.062 .      S
C330  H368  1.081 .      S
C331  H369  1.081 .      S
C332  H370  1.070 .      S
H362  C325  1.107 1_455  S
H363  C325  1.108 1_455  S
H366  C326  1.099 1_455  S
C334  N112  1.454 .      S
C334  H371  1.109 .      S
C334  H372  1.109 .      S
C334  H373  1.110 .      S
N112  C335  1.455 .      S
N112  H374  1.040 .      S
C335  C336  1.486 .      S
C335  H375  1.104 .      S
C335  H376  1.103 .      S
C338  H377  1.046 .      S
C339  H378  1.078 .      S
C340  H379  1.081 .      S
C341  H380  1.055 1_455  S
N114  Zn18  2.139 1_455  S
H380  C341  1.055 1_655  S
C343  N115  1.455 .      S
C343  H381  1.109 .      S
C343  H382  1.108 .      S
C343  H383  1.109 .      S
N115  C344  1.451 .      S
N115  H384  1.039 .      S
C344  C345  1.488 .      S
C344  H385  1.091 .      S
C344  H386  1.097 .      S
C347  H387  1.065 1_654  S
C348  H388  1.081 1_554  S
C349  H389  1.081 .      S
C350  H390  1.070 .      S
H387  C347  1.065 1_456  S
H388  C348  1.081 1_556  S
C352  N118  1.455 .      S
C352  H391  1.108 .      S
C352  H392  1.107 .      S
C352  H393  1.108 .      S
N118  C353  1.454 .      S
N118  H394  1.042 .      S
C353  C354  1.491 .      S
C353  H395  1.102 .      S
C353  H396  1.101 .      S
C356  H397  1.050 .      S
C357  H398  1.081 .      S
C358  H399  1.081 .      S
C359  H400  1.060 .      S
C361  N121  1.445 .      S
C361  H401  1.087 .      S
C361  H402  1.104 .      S
C361  H403  1.104 .      S
N121  C362  1.448 .      S
N121  H404  1.036 .      S
C362  C363  1.455 .      S
C362  H405  1.105 .      S
C362  H406  1.098 .      S
C365  H407  1.081 .      S
C366  H408  1.081 .      S
C367  H409  1.081 .      S
C368  H410  1.080 .      S
C370  N124  1.454 .      S
C370  H411  1.106 .      S
C370  H412  1.105 .      S
C370  H413  1.107 .      S
N124  C371  1.440 .      S
N124  H414  1.041 .      S
C371  C372  1.488 .      S
C371  H415  1.108 .      S
C371  H416  1.104 .      S
C374  H417  1.076 .      S
C375  H418  1.081 .      S
C376  H419  1.081 .      S
C377  H420  1.071 .      S
C379  N127  1.454 .      S
C379  H421  1.108 .      S
C379  H422  1.109 .      S
C379  H423  1.099 .      S
N127  C380  1.455 .      S
N127  H424  1.043 .      S
C380  C381  1.475 .      S
C380  H425  1.099 .      S
C380  H426  1.103 .      S
C383  H427  1.064 .      S
C384  H428  1.078 .      S
C385  H429  1.081 .      S
C386  H430  1.061 .      S
C388  N130  1.448 .      S
C388  H431  1.104 .      S
C388  H432  1.102 .      S
C388  H433  1.108 .      S
N130  C389  1.454 1_545  S
N130  H434  1.042 .      S
C389  N130  1.454 1_565  S
C389  C390  1.475 .      S
C389  H435  1.099 .      S
C389  H436  1.097 .      S
C392  H437  1.073 .      S
C393  H438  1.081 1_565  S
C394  H439  1.081 .      S
C395  H440  1.077 .      S
H438  C393  1.081 1_545  S
C397  N133  1.455 .      S
C397  H441  1.099 .      S
C397  H442  1.105 .      S
C397  H443  1.108 .      S
N133  C398  1.443 .      S
N133  H444  1.031 .      S
C398  C399  1.476 .      S
C398  H445  1.067 .      S
C398  H446  1.100 .      S
C401  H447  1.067 .      S
C402  H448  1.081 .      S
C403  H449  1.076 .      S
C404  H450  1.071 .      S
C406  N136  1.454 .      S
C406  H451  1.109 .      S
C406  H452  1.109 .      S
C406  H453  1.109 .      S
N136  C407  1.448 .      S
N136  H454  1.044 .      S
C407  C408  1.502 .      S
C407  H455  1.108 .      S
C407  H456  1.104 .      S
C410  H457  1.069 .      S
C411  H458  1.081 .      S
C412  H459  1.081 .      S
C413  H460  1.066 .      S
C415  N139  1.432 .      S
C415  H461  1.100 .      S
C415  H462  1.100 .      S
C415  H463  1.092 .      S
N139  C416  1.444 .      S
N139  H464  1.042 .      S
C416  C417  1.436 .      S
C416  H465  1.085 .      S
C416  H466  1.085 .      S
C419  H467  1.081 .      S
C420  H468  1.081 .      S
C421  H469  1.081 .      S
C422  H470  1.081 .      S
C424  N142  1.447 .      S
C424  H471  1.107 .      S
C424  H472  1.101 .      S
C424  H473  1.106 .      S
N142  C425  1.448 .      S
N142  H474  1.042 .      S
C425  C426  1.470 .      S
C425  H475  1.088 .      S
C425  H476  1.095 .      S
C428  H477  1.067 .      S
C429  H478  1.079 .      S
C430  H479  1.081 .      S
C431  H480  1.078 .      S
C433  N145  1.455 .      S
C433  H481  1.108 .      S
C433  H482  1.109 .      S
C433  H483  1.109 .      S
N145  C434  1.452 .      S
N145  H484  1.044 .      S
C434  C435  1.493 .      S
C434  H485  1.107 .      S
C434  H486  1.097 .      S
C437  H487  1.063 .      S
C438  H488  1.081 .      S
C439  H489  1.081 .      S
C440  H490  1.057 .      S
C442  N148  1.460 .      S
C442  H491  1.103 .      S
C442  H492  1.108 .      S
C442  H493  1.107 .      S
N148  C443  1.447 .      S
N148  H494  1.039 .      S
C443  C444  1.485 .      S
C443  H495  1.098 .      S
C443  H496  1.098 .      S
C446  H497  1.074 .      S
C447  H498  1.081 .      S
C448  H499  1.081 .      S
C449  H500  1.072 .      S
C451  N151  1.446 .      S
C451  H501  1.098 .      S
C451  H502  1.109 .      S
C451  H503  1.092 .      S
N151  C452  1.456 .      S
N151  H504  1.033 .      S
C452  C453  1.458 .      S
C452  H505  1.084 .      S
C452  H506  1.097 .      S
C455  H507  1.076 .      S
C456  H508  1.081 .      S
C457  H509  1.081 .      S
C458  H510  1.080 .      S
C460  N154  1.461 .      S
C460  H511  1.106 .      S
C460  H512  1.108 .      S
C460  H513  1.109 .      S
N154  C461  1.442 .      S
N154  H514  1.039 .      S
C461  C462  1.492 .      S
C461  H515  1.100 .      S
C461  H516  1.098 .      S
C464  H517  1.054 .      S
C465  H518  1.081 .      S
C466  H519  1.081 .      S
C467  H520  1.062 .      S
C469  N157  1.447 .      S
C469  H521  1.101 .      S
C469  H522  1.097 .      S
C469  H523  1.091 .      S
N157  C470  1.446 .      S
N157  H524  1.040 .      S
C470  C471  1.480 .      S
C470  H525  1.075 .      S
C470  H526  1.086 .      S
C473  H527  1.081 .      S
C474  H528  1.081 .      S
C475  H529  1.081 .      S
C476  H530  1.076 .      S
C478  N160  1.453 .      S
C478  H531  1.109 .      S
C478  H532  1.110 .      S
C478  H533  1.109 .      S
N160  C479  1.451 .      S
N160  H534  1.043 .      S
C479  C480  1.488 .      S
C479  H535  1.102 .      S
C479  H536  1.106 .      S
C482  H537  1.059 .      S
C483  H538  1.081 .      S
C484  H539  1.081 .      S
C485  H540  1.069 .      S
N162  Zn31  2.027 1_554  S
C487  N163  1.452 .      S
C487  H541  1.108 .      S
C487  H542  1.107 .      S
C487  H543  1.105 .      S
N163  C488  1.457 .      S
N163  H544  1.044 .      S
C488  C489  1.477 1_556  S
C488  H545  1.105 .      S
C488  H546  1.109 .      S
C489  C488  1.477 1_554  S
C491  H547  1.068 .      S
C492  H548  1.072 .      S
C493  H549  1.081 .      S
C494  H550  1.078 .      S
C496  N166  1.453 1_556  S
C496  H551  1.109 .      S
C496  H552  1.107 .      S
C496  H553  1.109 .      S
N166  C496  1.453 1_554  S
N166  C497  1.450 .      S
N166  H554  1.040 .      S
C497  C498  1.494 .      S
C497  H555  1.104 .      S
C497  H556  1.104 .      S
C500  H557  1.072 .      S
C501  H558  1.081 .      S
C502  H559  1.081 .      S
C503  H560  1.069 .      S
C505  N169  1.455 .      S
C505  H561  1.104 .      S
C505  H562  1.106 .      S
C505  H563  1.104 .      S
N169  C506  1.448 .      S
N169  H564  1.041 .      S
C506  C507  1.479 .      S
C506  H565  1.098 .      S
C506  H566  1.100 .      S
C509  H567  1.074 .      S
C510  H568  1.080 .      S
C511  H569  1.081 .      S
C512  H570  1.056 .      S
C514  N172  1.455 .      S
C514  H571  1.107 .      S
C514  H572  1.098 1_565  S
C514  H573  1.109 .      S
N172  C515  1.462 1_565  S
N172  H574  1.043 1_565  S
C515  N172  1.462 1_545  S
C515  C516  1.476 1_545  S
C515  H575  1.089 1_545  S
C515  H576  1.092 .      S
C516  C515  1.476 1_565  S
C518  H577  1.068 1_565  S
C519  H578  1.081 .      S
C520  H579  1.076 .      S
C521  H580  1.074 1_455  S
H572  C514  1.098 1_545  S
H574  N172  1.043 1_545  S
H575  C515  1.089 1_565  S
H577  C518  1.068 1_545  S
H580  C521  1.074 1_655  S
C523  N175  1.454 .      S
C523  H581  1.109 .      S
C523  H582  1.109 .      S
C523  H583  1.107 .      S
N175  C524  1.453 .      S
N175  H584  1.042 .      S
C524  C525  1.484 .      S
C524  H585  1.094 .      S
C524  H586  1.104 .      S
C527  H587  1.072 .      S
C528  H588  1.080 .      S
C529  H589  1.075 .      S
C530  H590  1.063 .      S
C532  N178  1.454 .      S
C532  H591  1.108 1_565  S
C532  H592  1.103 .      S
C532  H593  1.107 .      S
N178  C533  1.455 .      S
N178  H594  1.044 .      S
C533  C534  1.482 .      S
C533  H595  1.105 .      S
C533  H596  1.098 .      S
C536  H597  1.055 .      S
C537  H598  1.080 .      S
C538  H599  1.081 .      S
C539  H600  1.066 .      S
H591  C532  1.108 1_545  S
C541  N181  1.448 .      S
C541  H601  1.107 .      S
C541  H602  1.093 .      S
C541  H603  1.080 .      S
N181  C542  1.461 .      S
N181  H604  1.032 .      S
C542  C543  1.467 .      S
C542  H605  1.098 .      S
C542  H606  1.102 .      S
C545  H607  1.071 .      S
C546  H608  1.081 .      S
C547  H609  1.081 .      S
C548  H610  1.069 .      S
C550  N184  1.450 .      S
C550  H611  1.104 .      S
C550  H612  1.108 .      S
C550  H613  1.106 .      S
N184  C551  1.435 .      S
N184  H614  1.040 .      S
C551  C552  1.471 .      S
C551  H615  1.080 .      S
C551  H616  1.108 .      S
C554  H617  1.066 .      S
C555  H618  1.079 .      S
C556  H619  1.081 .      S
C557  H620  1.045 .      S
C559  N187  1.455 .      S
C559  H621  1.108 .      S
C559  H622  1.106 .      S
C559  H623  1.109 .      S
N187  C560  1.454 .      S
N187  H624  1.041 .      S
C560  C561  1.491 .      S
C560  H625  1.106 .      S
C560  H626  1.103 .      S
C563  H627  1.062 .      S
C564  H628  1.081 .      S
C565  H629  1.080 .      S
C566  H630  1.072 .      S
C568  N190  1.443 .      S
C568  H631  1.088 .      S
C568  H632  1.106 .      S
C568  H633  1.093 .      S
N190  C569  1.428 .      S
N190  H634  1.019 .      S
C569  C570  1.484 .      S
C569  H635  1.096 .      S
C569  H636  1.101 .      S
C572  H637  1.058 .      S
C573  H638  1.081 .      S
C574  H639  1.080 .      S
C575  H640  1.060 .      S
C577  N193  1.458 .      S
C577  H641  1.107 .      S
C577  H642  1.104 .      S
C577  H643  1.107 .      S
N193  C578  1.450 1_655  S
N193  H644  1.034 .      S
C578  N193  1.450 1_455  S
C578  C579  1.495 .      S
C578  H645  1.093 1_455  S
C578  H646  1.079 .      S
C581  H647  1.074 .      S
C582  H648  1.081 .      S
C583  H649  1.081 .      S
C584  H650  1.075 1_455  S
N195  Zn3   1.964 1_455  S
H645  C578  1.093 1_655  S
H650  C584  1.075 1_655  S
C586  N196  1.454 .      S
C586  H651  1.108 .      S
C586  H652  1.099 .      S
C586  H653  1.086 .      S
N196  C587  1.450 .      S
N196  H654  1.037 .      S
C587  C588  1.483 .      S
C587  H655  1.099 .      S
C587  H656  1.103 .      S
C590  H657  1.075 .      S
C591  H658  1.079 .      S
C592  H659  1.081 .      S
C593  H660  1.072 .      S
C595  N199  1.453 .      S
C595  H661  1.100 .      S
C595  H662  1.109 .      S
C595  H663  1.109 .      S
N199  C596  1.445 1_655  S
N199  H664  1.041 .      S
C596  N199  1.445 1_455  S
C596  C597  1.488 .      S
C596  H665  1.104 .      S
C596  H666  1.109 1_455  S
N200  Zn30  2.085 1_455  S
C599  H667  1.073 1_545  S
C600  H668  1.081 .      S
C601  H669  1.081 .      S
C602  H670  1.078 .      S
H666  C596  1.109 1_655  S
H667  C599  1.073 1_565  S
C604  N202  1.455 .      S
C604  H671  1.108 .      S
C604  H672  1.108 .      S
C604  H673  1.107 .      S
N202  C605  1.457 .      S
N202  H674  1.043 .      S
C605  C606  1.514 .      S
C605  H675  1.091 .      S
C605  H676  1.098 .      S
C608  H677  1.076 .      S
C609  H678  1.081 1_545  S
C610  H679  1.081 1_545  S
C611  H680  1.079 .      S
H678  C609  1.081 1_565  S
H679  C610  1.081 1_565  S
C613  N205  1.447 .      S
C613  H681  1.102 .      S
C613  H682  1.089 .      S
C613  H683  1.060 .      S
N205  C614  1.447 .      S
N205  H684  1.039 .      S
C614  C615  1.466 .      S
C614  H685  1.067 .      S
C614  H686  1.072 .      S
C617  H687  1.065 1_556  S
C618  H688  1.079 .      S
C619  H689  1.081 .      S
C620  H690  1.080 .      S
H687  C617  1.065 1_554  S
C622  N208  1.456 .      S
C622  H691  1.109 .      S
C622  H692  1.106 .      S
C622  H693  1.105 .      S
N208  C623  1.454 .      S
N208  H694  1.041 .      S
C623  C624  1.506 .      S
C623  H695  1.098 .      S
C623  H696  1.105 .      S
N209  Zn33  2.100 1_565  S
C626  H697  1.067 .      S
C627  H698  1.079 .      S
C628  H699  1.081 .      S
C629  H700  1.067 .      S
C631  N211  1.453 .      S
C631  H701  1.105 .      S
C631  H702  1.107 .      S
C631  H703  1.108 .      S
N211  C632  1.444 .      S
N211  H704  1.031 .      S
C632  C633  1.496 .      S
C632  H705  1.098 .      S
C632  H706  1.098 .      S
C635  H707  1.070 .      S
C636  H708  1.081 .      S
C637  H709  1.081 .      S
C638  H710  1.060 .      S
C640  N214  1.475 .      S
C640  H711  1.071 .      S
C640  H712  1.098 .      S
C640  H713  1.098 .      S
N214  C641  1.458 .      S
N214  H714  1.036 .      S
C641  C642  1.455 .      S
C641  H715  1.098 .      S
C641  H716  1.088 .      S
C644  H717  1.069 .      S
C645  H718  1.081 .      S
C646  H719  1.081 .      S
C647  H720  1.077 .      S
C3    N2    1.375 .      A
C3    N3    1.368 .      A
N2    C4    1.350 .      A
C4    C5    1.364 .      A
C4    C9    1.356 .      A
C5    C6    1.385 .      A
C6    C7    1.387 .      A
C7    C8    1.384 .      A
C8    C9    1.377 .      A
C9    N3    1.348 .      A
C12   N5    1.378 .      A
C12   N6    1.395 .      A
N5    C13   1.336 .      A
C13   C14   1.377 .      A
C13   C18   1.360 .      A
C14   C15   1.373 .      A
C15   C16   1.374 .      A
C16   C17   1.381 .      A
C17   C18   1.383 .      A
C18   N6    1.375 .      A
C21   N8    1.377 .      A
C21   N9    1.368 .      A
N8    C22   1.357 .      A
C22   C23   1.374 .      A
C22   C27   1.366 .      A
C23   C24   1.381 .      A
C24   C25   1.381 .      A
C25   C26   1.380 .      A
C26   C27   1.373 .      A
C27   N9    1.341 .      A
C30   N11   1.371 .      A
C30   N12   1.356 .      A
N11   C31   1.358 .      A
C31   C32   1.382 .      A
C31   C36   1.361 .      A
C32   C33   1.382 .      A
C33   C34   1.381 .      A
C34   C35   1.381 .      A
C35   C36   1.382 .      A
C36   N12   1.354 .      A
C39   N14   1.374 .      A
C39   N15   1.371 1_565  A
N14   C40   1.357 1_565  A
C40   N14   1.357 1_545  A
C40   C41   1.378 .      A
C40   C45   1.363 .      A
C41   C42   1.385 .      A
C42   C43   1.389 .      A
C43   C44   1.384 .      A
C44   C45   1.369 .      A
C45   N15   1.342 .      A
N15   C39   1.371 1_545  A
C48   N17   1.372 .      A
C48   N18   1.353 .      A
N17   C49   1.348 .      A
C49   C50   1.373 .      A
C49   C54   1.351 .      A
C50   C51   1.382 .      A
C51   C52   1.386 .      A
C52   C53   1.383 .      A
C53   C54   1.368 .      A
C54   N18   1.343 .      A
C57   N20   1.362 .      A
C57   N21   1.369 .      A
N20   C58   1.351 .      A
C58   C59   1.376 .      A
C58   C63   1.361 .      A
C59   C60   1.382 .      A
C60   C61   1.386 .      A
C61   C62   1.383 .      A
C62   C63   1.375 .      A
C63   N21   1.351 .      A
C66   N23   1.392 .      A
C66   N24   1.396 .      A
N23   C67   1.348 .      A
C67   C68   1.365 .      A
C67   C72   1.372 .      A
C68   C69   1.386 .      A
C69   C70   1.388 .      A
C70   C71   1.383 .      A
C71   C72   1.378 .      A
C72   N24   1.354 .      A
C75   N26   1.373 1_554  A
C75   N27   1.376 1_554  A
N26   C75   1.373 1_556  A
N26   C76   1.346 .      A
C76   C77   1.369 .      A
C76   C81   1.370 .      A
C77   C78   1.386 .      A
C78   C79   1.392 .      A
C79   C80   1.385 .      A
C80   C81   1.373 .      A
C81   N27   1.350 .      A
N27   C75   1.376 1_556  A
C84   N29   1.395 .      A
C84   N30   1.379 .      A
N29   C85   1.368 .      A
C85   C86   1.378 .      A
C85   C90   1.354 .      A
C86   C87   1.383 .      A
C87   C88   1.374 .      A
C88   C89   1.372 .      A
C89   C90   1.379 .      A
C90   N30   1.338 .      A
C93   N32   1.391 .      A
C93   N33   1.387 .      A
N32   C94   1.351 .      A
C94   C95   1.372 .      A
C94   C99   1.364 .      A
C95   C96   1.384 .      A
C96   C97   1.388 .      A
C97   C98   1.383 .      A
C98   C99   1.370 .      A
C99   N33   1.344 .      A
C102  N35   1.386 .      A
C102  N36   1.382 .      A
N35   C103  1.358 .      A
C103  C104  1.374 .      A
C103  C108  1.362 .      A
C104  C105  1.378 1_565  A
C105  C104  1.378 1_545  A
C105  C106  1.374 .      A
C106  C107  1.376 1_545  A
C107  C106  1.376 1_565  A
C107  C108  1.383 .      A
C108  N36   1.352 .      A
C111  N38   1.378 .      A
C111  N39   1.387 .      A
N38   C112  1.345 .      A
C112  C113  1.364 .      A
C112  C117  1.366 .      A
C113  C114  1.384 .      A
C114  C115  1.388 .      A
C115  C116  1.384 .      A
C116  C117  1.380 .      A
C117  N39   1.356 .      A
C120  N41   1.398 .      A
C120  N42   1.381 .      A
N41   C121  1.353 .      A
C121  C122  1.378 .      A
C121  C126  1.365 .      A
C122  C123  1.378 .      A
C123  C124  1.377 .      A
C124  C125  1.378 .      A
C125  C126  1.378 .      A
C126  N42   1.354 .      A
C129  N44   1.392 .      A
C129  N45   1.370 .      A
N44   C130  1.343 .      A
C130  C131  1.365 .      A
C130  C135  1.360 .      A
C131  C132  1.382 .      A
C132  C133  1.386 .      A
C133  C134  1.383 .      A
C134  C135  1.363 .      A
C135  N45   1.345 .      A
C138  N47   1.386 .      A
C138  N48   1.375 .      A
N47   C139  1.355 .      A
C139  C140  1.372 .      A
C139  C144  1.371 .      A
C140  C141  1.385 .      A
C141  C142  1.389 .      A
C142  C143  1.383 .      A
C143  C144  1.374 .      A
C144  N48   1.343 .      A
C147  N50   1.396 .      A
C147  N51   1.388 .      A
N50   C148  1.336 .      A
C148  C149  1.373 .      A
C148  C153  1.373 .      A
C149  C150  1.377 1_545  A
C150  C149  1.377 1_565  A
C150  C151  1.382 .      A
C151  C152  1.384 .      A
C152  C153  1.378 1_565  A
C153  C152  1.378 1_545  A
C153  N51   1.370 .      A
C156  N53   1.397 .      A
C156  N54   1.389 .      A
N53   C157  1.360 .      A
C157  C158  1.380 .      A
C157  C162  1.363 .      A
C158  C159  1.377 .      A
C159  C160  1.373 .      A
C160  C161  1.375 .      A
C161  C162  1.380 .      A
C162  N54   1.349 .      A
C165  N56   1.375 .      A
C165  N57   1.380 1_455  A
N56   C166  1.366 .      A
C166  C167  1.379 1_455  A
C166  C171  1.362 1_455  A
C167  C166  1.379 1_655  A
C167  C168  1.388 .      A
C168  C169  1.389 .      A
C169  C170  1.382 .      A
C170  C171  1.375 .      A
C171  C166  1.362 1_655  A
C171  N57   1.333 .      A
N57   C165  1.380 1_655  A
C174  N59   1.390 .      A
C174  N60   1.380 .      A
N59   C175  1.358 .      A
C175  C176  1.376 .      A
C175  C180  1.365 .      A
C176  C177  1.384 .      A
C177  C178  1.386 .      A
C178  C179  1.381 .      A
C179  C180  1.373 .      A
C180  N60   1.343 .      A
C183  N62   1.385 .      A
C183  N63   1.397 .      A
N62   C184  1.354 .      A
C184  C185  1.373 .      A
C184  C189  1.349 .      A
C185  C186  1.382 .      A
C186  C187  1.382 .      A
C187  C188  1.381 .      A
C188  C189  1.372 .      A
C189  N63   1.338 .      A
C192  N65   1.403 .      A
C192  N66   1.389 .      A
N65   C193  1.350 .      A
C193  C194  1.377 .      A
C193  C198  1.365 .      A
C194  C195  1.382 .      A
C195  C196  1.385 .      A
C196  C197  1.383 .      A
C197  C198  1.376 .      A
C198  N66   1.348 .      A
C201  N68   1.386 .      A
C201  N69   1.382 .      A
N68   C202  1.340 .      A
C202  C203  1.366 .      A
C202  C207  1.356 .      A
C203  C204  1.382 .      A
C204  C205  1.388 .      A
C205  C206  1.385 .      A
C206  C207  1.370 .      A
C207  N69   1.350 .      A
C210  N71   1.365 .      A
C210  N72   1.384 .      A
N71   C211  1.348 .      A
C211  C212  1.373 .      A
C211  C216  1.372 .      A
C212  C213  1.387 .      A
C213  C214  1.393 .      A
C214  C215  1.387 .      A
C215  C216  1.374 .      A
C216  N72   1.349 .      A
C219  N74   1.403 .      A
C219  N75   1.391 .      A
N74   C220  1.353 .      A
C220  C221  1.360 1_554  A
C220  C225  1.364 .      A
C221  C220  1.360 1_556  A
C221  C222  1.378 .      A
C222  C223  1.381 .      A
C223  C224  1.384 1_556  A
C224  C223  1.384 1_554  A
C224  C225  1.370 .      A
C225  N75   1.344 .      A
C228  N77   1.382 .      A
C228  N78   1.388 1_565  A
N77   C229  1.352 1_565  A
C229  N77   1.352 1_545  A
C229  C230  1.364 .      A
C229  C234  1.364 .      A
C230  C231  1.382 .      A
C231  C232  1.385 .      A
C232  C233  1.383 .      A
C233  C234  1.375 .      A
C234  N78   1.347 .      A
N78   C228  1.388 1_545  A
C237  N80   1.398 .      A
C237  N81   1.386 .      A
N80   C238  1.380 .      A
C238  C239  1.393 .      A
C238  C243  1.372 .      A
C239  C240  1.382 .      A
C240  C241  1.376 .      A
C241  C242  1.373 .      A
C242  C243  1.373 .      A
C243  N81   1.336 .      A
C246  N83   1.376 1_545  A
C246  N84   1.382 .      A
N83   C246  1.376 1_565  A
N83   C247  1.353 .      A
C247  C248  1.363 .      A
C247  C252  1.358 .      A
C248  C249  1.386 .      A
C249  C250  1.388 .      A
C250  C251  1.382 .      A
C251  C252  1.375 .      A
C252  N84   1.338 1_565  A
N84   C252  1.338 1_545  A
C255  N86   1.399 .      A
C255  N87   1.407 .      A
N86   C256  1.334 .      A
C256  C257  1.351 .      A
C256  C261  1.350 .      A
C257  C258  1.378 .      A
C258  C259  1.378 .      A
C259  C260  1.382 .      A
C260  C261  1.371 .      A
C261  N87   1.352 .      A
C264  N89   1.363 .      A
C264  N90   1.398 1_565  A
N89   C265  1.348 .      A
C265  C266  1.370 .      A
C265  C270  1.366 .      A
C266  C267  1.383 .      A
C267  C268  1.381 .      A
C268  C269  1.378 .      A
C269  C270  1.373 .      A
C270  N90   1.348 1_565  A
N90   C264  1.398 1_545  A
N90   C270  1.348 1_545  A
C273  N92   1.370 1_545  A
C273  N93   1.388 .      A
N92   C273  1.370 1_565  A
N92   C274  1.351 .      A
C274  C275  1.384 .      A
C274  C279  1.370 .      A
C275  C276  1.387 .      A
C276  C277  1.386 .      A
C277  C278  1.383 .      A
C278  C279  1.375 .      A
C279  N93   1.346 1_565  A
N93   C279  1.346 1_545  A
C282  N95   1.378 .      A
C282  N96   1.375 .      A
N95   C283  1.345 .      A
C283  C284  1.375 .      A
C283  C288  1.355 .      A
C284  C285  1.382 .      A
C285  C286  1.384 .      A
C286  C287  1.382 .      A
C287  C288  1.377 .      A
C288  N96   1.353 .      A
C291  N98   1.374 .      A
C291  N99   1.384 .      A
N98   C292  1.348 .      A
C292  C293  1.376 .      A
C292  C297  1.349 .      A
C293  C294  1.377 .      A
C294  C295  1.376 .      A
C295  C296  1.379 .      A
C296  C297  1.378 .      A
C297  N99   1.357 .      A
C300  N101  1.373 .      A
C300  N102  1.368 .      A
N101  C301  1.349 .      A
C301  C302  1.363 .      A
C301  C306  1.361 .      A
C302  C303  1.381 .      A
C303  C304  1.383 .      A
C304  C305  1.383 .      A
C305  C306  1.375 .      A
C306  N102  1.350 .      A
C309  N104  1.386 .      A
C309  N105  1.387 .      A
N104  C310  1.342 .      A
C310  C311  1.371 .      A
C310  C315  1.363 .      A
C311  C312  1.382 .      A
C312  C313  1.387 1_455  A
C313  C312  1.387 1_655  A
C313  C314  1.385 .      A
C314  C315  1.370 1_655  A
C315  C314  1.370 1_455  A
C315  N105  1.353 .      A
C318  N107  1.396 .      A
C318  N108  1.392 .      A
N107  C319  1.347 .      A
C319  C320  1.372 .      A
C319  C324  1.344 .      A
C320  C321  1.374 .      A
C321  C322  1.370 .      A
C322  C323  1.378 .      A
C323  C324  1.364 .      A
C324  N108  1.341 .      A
C327  N110  1.401 .      A
C327  N111  1.374 .      A
N110  C328  1.353 .      A
C328  C329  1.374 .      A
C328  C333  1.358 .      A
C329  C330  1.380 .      A
C330  C331  1.381 .      A
C331  C332  1.381 .      A
C332  C333  1.375 .      A
C333  N111  1.345 .      A
C336  N113  1.401 .      A
C336  N114  1.404 .      A
N113  C337  1.346 .      A
C337  C338  1.359 .      A
C337  C342  1.347 .      A
C338  C339  1.378 .      A
C339  C340  1.369 .      A
C340  C341  1.373 .      A
C341  C342  1.369 .      A
C342  N114  1.345 .      A
C345  N116  1.391 .      A
C345  N117  1.383 1_455  A
N116  C346  1.348 .      A
C346  C347  1.371 1_455  A
C346  C351  1.365 1_455  A
C347  C346  1.371 1_655  A
C347  C348  1.381 .      A
C348  C349  1.383 .      A
C349  C350  1.382 .      A
C350  C351  1.377 .      A
C351  C346  1.365 1_655  A
C351  N117  1.358 .      A
N117  C345  1.383 1_655  A
C354  N119  1.383 .      A
C354  N120  1.394 .      A
N119  C355  1.361 .      A
C355  C356  1.383 .      A
C355  C360  1.361 .      A
C356  C357  1.377 .      A
C357  C358  1.372 .      A
C358  C359  1.374 .      A
C359  C360  1.372 .      A
C360  N120  1.348 .      A
C363  N122  1.369 .      A
C363  N123  1.382 .      A
N122  C364  1.351 .      A
C364  C365  1.374 .      A
C364  C369  1.369 .      A
C365  C366  1.387 .      A
C366  C367  1.391 .      A
C367  C368  1.386 .      A
C368  C369  1.373 .      A
C369  N123  1.349 .      A
C372  N125  1.376 .      A
C372  N126  1.379 1_565  A
N125  C373  1.341 1_565  A
C373  N125  1.341 1_545  A
C373  C374  1.376 .      A
C373  C378  1.357 .      A
C374  C375  1.382 .      A
C375  C376  1.388 .      A
C376  C377  1.385 .      A
C377  C378  1.373 .      A
C378  N126  1.353 .      A
N126  C372  1.379 1_545  A
C381  N128  1.391 .      A
C381  N129  1.381 .      A
N128  C382  1.350 .      A
C382  C383  1.368 .      A
C382  C387  1.356 .      A
C383  C384  1.384 .      A
C384  C385  1.385 .      A
C385  C386  1.379 .      A
C386  C387  1.358 .      A
C387  N129  1.338 .      A
C390  N131  1.374 1_565  A
C390  N132  1.380 .      A
N131  C390  1.374 1_545  A
N131  C391  1.347 1_545  A
C391  N131  1.347 1_565  A
C391  C392  1.372 1_565  A
C391  C396  1.363 .      A
C392  C391  1.372 1_545  A
C392  C393  1.385 1_545  A
C393  C392  1.385 1_565  A
C393  C394  1.389 .      A
C394  C395  1.384 .      A
C395  C396  1.374 .      A
C396  N132  1.350 .      A
C399  N134  1.388 .      A
C399  N135  1.382 .      A
N134  C400  1.350 .      A
C400  C401  1.369 .      A
C400  C405  1.363 .      A
C401  C402  1.382 .      A
C402  C403  1.384 .      A
C403  C404  1.379 .      A
C404  C405  1.367 .      A
C405  N135  1.342 .      A
C408  N137  1.402 .      A
C408  N138  1.382 1_565  A
N137  C409  1.352 .      A
C409  C410  1.375 .      A
C409  C414  1.362 .      A
C410  C411  1.380 .      A
C411  C412  1.382 1_565  A
C412  C411  1.382 1_545  A
C412  C413  1.381 .      A
C413  C414  1.376 1_545  A
C414  C413  1.376 1_565  A
C414  N138  1.350 1_565  A
N138  C408  1.382 1_545  A
N138  C414  1.350 1_545  A
C417  N140  1.372 .      A
C417  N141  1.376 .      A
N140  C418  1.350 .      A
C418  C419  1.373 .      A
C418  C423  1.369 .      A
C419  C420  1.386 .      A
C420  C421  1.393 .      A
C421  C422  1.386 .      A
C422  C423  1.374 .      A
C423  N141  1.351 .      A
C426  N143  1.380 .      A
C426  N144  1.382 .      A
N143  C427  1.352 .      A
C427  C428  1.374 .      A
C427  C432  1.368 .      A
C428  C429  1.383 .      A
C429  C430  1.386 .      A
C430  C431  1.381 .      A
C431  C432  1.373 .      A
C432  N144  1.349 .      A
C435  N146  1.388 .      A
C435  N147  1.384 .      A
N146  C436  1.347 .      A
C436  C437  1.370 .      A
C436  C441  1.353 .      A
C437  C438  1.378 .      A
C438  C439  1.379 .      A
C439  C440  1.380 .      A
C440  C441  1.374 .      A
C441  N147  1.350 .      A
C444  N149  1.375 .      A
C444  N150  1.382 .      A
N149  C445  1.345 .      A
C445  C446  1.369 .      A
C445  C450  1.359 .      A
C446  C447  1.382 .      A
C447  C448  1.386 .      A
C448  C449  1.383 .      A
C449  C450  1.376 .      A
C450  N150  1.354 .      A
C453  N152  1.370 .      A
C453  N153  1.374 .      A
N152  C454  1.349 .      A
C454  C455  1.373 .      A
C454  C459  1.366 .      A
C455  C456  1.386 .      A
C456  C457  1.391 .      A
C457  C458  1.385 .      A
C458  C459  1.373 .      A
C459  N153  1.351 .      A
C462  N155  1.393 .      A
C462  N156  1.383 .      A
N155  C463  1.361 .      A
C463  C464  1.374 .      A
C463  C468  1.356 .      A
C464  C465  1.380 .      A
C465  C466  1.377 .      A
C466  C467  1.377 .      A
C467  C468  1.372 .      A
C468  N156  1.342 .      A
C471  N158  1.379 .      A
C471  N159  1.377 .      A
N158  C472  1.344 .      A
C472  C473  1.374 .      A
C472  C477  1.358 .      A
C473  C474  1.385 .      A
C474  C475  1.389 .      A
C475  C476  1.385 .      A
C476  C477  1.374 .      A
C477  N159  1.350 .      A
C480  N161  1.387 1_556  A
C480  N162  1.383 1_556  A
N161  C480  1.387 1_554  A
N161  C481  1.346 .      A
C481  C482  1.374 .      A
C481  C486  1.345 .      A
C482  C483  1.384 .      A
C483  C484  1.383 .      A
C484  C485  1.383 .      A
C485  C486  1.383 .      A
C486  N162  1.341 .      A
N162  C480  1.383 1_554  A
C489  N164  1.382 .      A
C489  N165  1.377 1_554  A
N164  C490  1.358 .      A
C490  C491  1.376 .      A
C490  C495  1.362 .      A
C491  C492  1.387 .      A
C492  C493  1.380 .      A
C493  C494  1.373 .      A
C494  C495  1.376 .      A
C495  N165  1.341 1_554  A
N165  C489  1.377 1_556  A
N165  C495  1.341 1_556  A
C498  N167  1.397 .      A
C498  N168  1.383 .      A
N167  C499  1.354 .      A
C499  C500  1.376 .      A
C499  C504  1.363 .      A
C500  C501  1.381 .      A
C501  C502  1.383 .      A
C502  C503  1.381 .      A
C503  C504  1.379 .      A
C504  N168  1.352 .      A
C507  N170  1.384 .      A
C507  N171  1.389 .      A
N170  C508  1.339 .      A
C508  C509  1.370 .      A
C508  C513  1.359 .      A
C509  C510  1.383 .      A
C510  C511  1.381 .      A
C511  C512  1.380 .      A
C512  C513  1.362 .      A
C513  N171  1.356 .      A
C516  N173  1.388 1_565  A
C516  N174  1.384 .      A
N173  C516  1.388 1_545  A
N173  C517  1.346 1_645  A
C517  N173  1.346 1_465  A
C517  C518  1.371 .      A
C517  C522  1.363 1_455  A
C518  C519  1.377 .      A
C519  C520  1.382 .      A
C520  C521  1.386 .      A
C521  C522  1.376 1_455  A
C522  C517  1.363 1_655  A
C522  C521  1.376 1_655  A
C522  N174  1.353 .      A
C525  N176  1.386 .      A
C525  N177  1.380 .      A
N176  C526  1.343 .      A
C526  C527  1.376 .      A
C526  C531  1.349 .      A
C527  C528  1.371 .      A
C528  C529  1.376 .      A
C529  C530  1.374 .      A
C530  C531  1.369 .      A
C531  N177  1.348 .      A
C534  N179  1.387 1_565  A
C534  N180  1.386 .      A
N179  C534  1.387 1_545  A
N179  C535  1.344 .      A
C535  C536  1.358 .      A
C535  C540  1.360 1_545  A
C536  C537  1.380 .      A
C537  C538  1.382 1_655  A
C538  C537  1.382 1_455  A
C538  C539  1.382 1_445  A
C539  C538  1.382 1_665  A
C539  C540  1.373 .      A
C540  C535  1.360 1_565  A
C540  N180  1.349 .      A
C543  N182  1.370 .      A
C543  N183  1.382 .      A
N182  C544  1.346 .      A
C544  C545  1.367 .      A
C544  C549  1.375 .      A
C545  C546  1.381 .      A
C546  C547  1.383 .      A
C547  C548  1.381 .      A
C548  C549  1.375 .      A
C549  N183  1.352 .      A
C552  N185  1.384 .      A
C552  N186  1.375 .      A
N185  C553  1.346 .      A
C553  C554  1.376 .      A
C553  C558  1.356 .      A
C554  C555  1.379 .      A
C555  C556  1.379 .      A
C556  C557  1.379 .      A
C557  C558  1.364 .      A
C558  N186  1.354 .      A
C561  N188  1.392 .      A
C561  N189  1.379 .      A
N188  C562  1.342 .      A
C562  C563  1.360 .      A
C562  C567  1.356 .      A
C563  C564  1.382 .      A
C564  C565  1.387 .      A
C565  C566  1.384 .      A
C566  C567  1.369 .      A
C567  N189  1.347 .      A
C570  N191  1.364 .      A
C570  N192  1.403 .      A
N191  C571  1.350 .      A
C571  C572  1.370 .      A
C571  C576  1.361 .      A
C572  C573  1.376 .      A
C573  C574  1.377 .      A
C574  C575  1.381 .      A
C575  C576  1.376 .      A
C576  N192  1.356 .      A
C579  N194  1.376 .      A
C579  N195  1.363 .      A
N194  C580  1.354 .      A
C580  C581  1.370 .      A
C580  C585  1.359 .      A
C581  C582  1.385 .      A
C582  C583  1.389 .      A
C583  C584  1.383 .      A
C584  C585  1.374 .      A
C585  N195  1.341 .      A
C588  N197  1.366 .      A
C588  N198  1.371 .      A
N197  C589  1.348 .      A
C589  C590  1.372 .      A
C589  C594  1.363 .      A
C590  C591  1.384 .      A
C591  C592  1.385 .      A
C592  C593  1.382 .      A
C593  C594  1.369 .      A
C594  N198  1.347 .      A
C597  N200  1.387 .      A
C597  N201  1.372 .      A
N200  C598  1.349 .      A
C598  C599  1.373 .      A
C598  C603  1.362 .      A
C599  C600  1.384 1_545  A
C600  C599  1.384 1_565  A
C600  C601  1.389 .      A
C601  C602  1.384 1_565  A
C602  C601  1.384 1_545  A
C602  C603  1.373 .      A
C603  N201  1.348 .      A
C606  N203  1.363 .      A
C606  N204  1.385 .      A
N203  C607  1.351 .      A
C607  C608  1.374 .      A
C607  C612  1.358 .      A
C608  C609  1.384 .      A
C609  C610  1.389 .      A
C610  C611  1.383 .      A
C611  C612  1.374 .      A
C612  N204  1.345 .      A
C615  N206  1.385 1_545  A
C615  N207  1.376 1_554  A
N206  C615  1.385 1_565  A
N206  C616  1.354 1_554  A
C616  N206  1.354 1_556  A
C616  C617  1.368 .      A
C616  C621  1.366 1_565  A
C617  C618  1.386 .      A
C618  C619  1.387 .      A
C619  C620  1.380 1_565  A
C620  C619  1.380 1_545  A
C620  C621  1.375 .      A
C621  C616  1.366 1_545  A
C621  N207  1.343 .      A
N207  C615  1.376 1_556  A
C624  N209  1.394 .      A
C624  N210  1.396 .      A
N209  C625  1.354 .      A
C625  C626  1.376 1_565  A
C625  C630  1.357 .      A
C626  C625  1.376 1_545  A
C626  C627  1.376 1_554  A
C627  C626  1.376 1_556  A
C627  C628  1.378 .      A
C628  C629  1.377 1_545  A
C629  C628  1.377 1_565  A
C629  C630  1.381 1_556  A
C630  C629  1.381 1_554  A
C630  N210  1.345 .      A
C633  N212  1.385 .      A
C633  N213  1.387 .      A
N212  C634  1.343 .      A
C634  C635  1.371 1_545  A
C634  C639  1.355 .      A
C635  C634  1.371 1_565  A
C635  C636  1.380 .      A
C636  C637  1.384 .      A
C637  C638  1.384 .      A
C638  C639  1.363 1_565  A
C639  C638  1.363 1_545  A
C639  N213  1.351 .      A
C642  N215  1.376 .      A
C642  N216  1.355 .      A
N215  C643  1.354 .      A
C643  C644  1.367 .      A
C643  C648  1.367 .      A
C644  C645  1.385 .      A
C645  C646  1.390 .      A
C646  C647  1.385 .      A
C647  C648  1.373 .      A
C648  N216  1.346 .      A
