data_str_m1_o12014_SAO
_audit_creation_date              2015-10-01T06:38:00-0700
_symmetry_space_group_name_H-M    P1
_symmetry_Int_Tables_number       1
_space_group_crystal_system       triclinic
loop_
_symmetry_equiv_pos_as_xyz
  x,y,z
_cell_length_a                    29.0364412
_cell_length_b                    29.2922128
_cell_length_c                    30.1751041
_cell_angle_alpha                 118.487939
_cell_angle_beta                  62.0794966
_cell_angle_gamma                 93.7653896
_cell_volume                      19516.7315313

loop_
_atom_site_label
_atom_site_type_symbol
_atom_site_description
_atom_site_fract_x
_atom_site_fract_y
_atom_site_fract_z
_atom_type_partial_charge
Zn1   Zn    Zn3+2 0.090582 0.227562 0.703346 0.000000
Zn2   Zn    Zn3+2 0.170511 0.442179 0.588380 0.000000
Zn3   Zn    Zn3+2 0.926312 0.659736 0.587890 0.000000
Zn4   Zn    Zn3+2 0.015000 0.890400 0.847311 0.000000
Zn5   Zn    Zn3+2 0.306193 0.189787 0.462856 0.000000
Zn6   Zn    Zn3+2 0.783281 0.039227 0.331201 0.000000
Zn7   Zn    Zn3+2 0.862357 0.001117 0.709814 0.000000
Zn8   Zn    Zn3+2 0.910622 0.190467 0.463893 0.000000
Zn9   Zn    Zn3+2 0.995949 0.911936 0.084953 0.000000
Zn10  Zn    Zn3+2 0.593469 0.693512 0.074359 0.000000
Zn11  Zn    Zn3+2 0.560598 0.821302 0.336222 0.000000
Zn12  Zn    Zn3+2 0.338055 0.756419 0.228582 0.000000
Zn13  Zn    Zn3+2 0.584563 0.915052 0.077478 0.000000
Zn14  Zn    Zn3+2 0.798743 0.472824 0.862193 0.000000
Zn15  Zn    Zn3+2 0.122204 0.760249 0.227309 0.000000
Zn16  Zn    Zn3+2 0.303232 0.800300 0.478491 0.000000
Zn17  Zn    Zn3+2 0.554154 0.057009 0.339474 0.000000
Zn18  Zn    Zn3+2 0.336461 0.979866 0.222897 0.000000
Zn19  Zn    Zn3+2 0.859878 0.217977 0.713660 0.000000
Zn20  Zn    Zn3+2 0.780664 0.815234 0.341043 0.000000
Zn21  Zn    Zn3+2 0.933568 0.442105 0.594690 0.000000
Zn22  Zn    Zn3+2 0.028916 0.477895 0.853603 0.000000
Zn23  Zn    Zn3+2 0.144290 0.667057 0.599857 0.000000
Zn24  Zn    Zn3+2 0.799597 0.876979 0.839228 0.000000
Zn25  Zn    Zn3+2 0.906343 0.784010 0.463202 0.000000
Zn26  Zn    Zn3+2 0.096380 0.006522 0.704083 0.000000
Zn27  Zn    Zn3+2 0.111497 0.983548 0.230744 0.000000
Zn28  Zn    Zn3+2 0.999899 0.694979 0.086363 0.000000
C1    C     C_3   0.117494 0.830872 0.880000 0.000000
C2    C     C_3   0.095067 0.888219 0.928080 0.000000
C3    C     C_3   0.120855 0.926401 0.908127 0.000000
C4    C     C_R   0.036134 0.902515 0.956357 0.000000
N1    N     N_R   0.008605 0.906707 0.930084 0.000000
C5    C     C_R   0.959436 0.930007 0.977313 0.000000
C6    C     C_R   0.910635 0.923426 0.982291 0.000000
C7    C     C_R   0.867020 0.959764 0.033442 0.000000
C8    C     C_R   0.875263 0.998149 0.077109 0.000000
C9    C     C_R   0.921112 0.987625 0.076781 0.000000
C10   C     C_R   0.960121 0.946367 0.026514 0.000000
N2    N     N_R   0.004691 0.922691 0.016015 0.000000
C11   C     C_2   0.836975 0.048406 0.120769 0.000000
O1    O     O_2   0.799207 0.057415 0.116698 0.000000
O2    O     O_2   0.846902 0.087384 0.160502 0.000000
H1    H     H_    0.115611 0.824672 0.841963 0.000000
H2    H     H_    0.159527 0.820266 0.867186 0.000000
H3    H     H_    0.094441 0.805199 0.896147 0.000000
H4    H     H_    0.104791 0.894239 0.961240 0.000000
H5    H     H_    0.100812 0.935130 0.889049 0.000000
H6    H     H_    0.116023 0.964265 0.946197 0.000000
H7    H     H_    0.163875 0.909925 0.876928 0.000000
H8    H     H_    0.905427 0.892403 0.948827 0.000000
H9    H     H_    0.828594 0.960909 0.036304 0.000000
H10   H     H_    0.927317 0.011567 0.112445 0.000000
H11   H     H_    0.823174 0.121635 0.186673 0.000000
C12   C     C_3   0.130397 0.202992 0.537428 0.000000
C13   C     C_3   0.176404 0.225794 0.544031 0.000000
C14   C     C_3   0.167012 0.283212 0.578656 0.000000
C15   C     C_R   0.195796 0.208155 0.571272 0.000000
N3    N     N_R   0.167339 0.207804 0.624031 0.000000
C16   C     C_R   0.207121 0.180938 0.619340 0.000000
C17   C     C_R   0.207158 0.169631 0.658492 0.000000
C18   C     C_R   0.248512 0.132948 0.639855 0.000000
C19   C     C_R   0.283875 0.103355 0.581173 0.000000
C20   C     C_R   0.284242 0.118250 0.544103 0.000000
C21   C     C_R   0.252446 0.164511 0.567853 0.000000
N4    N     N_R   0.249238 0.186485 0.539193 0.000000
C22   C     C_2   0.316395 0.053758 0.557732 0.000000
O3    O     O_2   0.321108 0.015803 0.513385 0.000000
O4    O     O_2   0.340048 0.049163 0.584997 0.000000
H12   H     H_    0.105907 0.194349 0.572485 0.000000
H13   H     H_    0.106739 0.230422 0.536818 0.000000
H14   H     H_    0.146161 0.166030 0.494745 0.000000
H15   H     H_    0.209430 0.213547 0.499743 0.000000
H16   H     H_    0.203689 0.292604 0.579894 0.000000
H17   H     H_    0.155151 0.303743 0.562512 0.000000
H18   H     H_    0.139898 0.293329 0.622280 0.000000
H19   H     H_    0.178893 0.191375 0.703443 0.000000
H20   H     H_    0.248228 0.122577 0.669775 0.000000
H21   H     H_    0.305811 0.093413 0.497816 0.000000
H22   H     H_    0.339043 0.079771 0.618332 0.000000
C23   C     C_3   0.181974 0.295660 0.457479 0.000000
C24   C     C_3   0.238246 0.280673 0.440213 0.000000
C25   C     C_3   0.275903 0.294831 0.395164 0.000000
C26   C     C_R   0.246996 0.306457 0.491003 0.000000
N5    N     N_R   0.235054 0.362557 0.530552 0.000000
C27   C     C_R   0.273637 0.364421 0.544141 0.000000
C28   C     C_R   0.293743 0.408056 0.565500 0.000000
C29   C     C_R   0.336044 0.402499 0.573085 0.000000
C30   C     C_R   0.358610 0.353183 0.557869 0.000000
C31   C     C_R   0.340352 0.308436 0.532162 0.000000
C32   C     C_R   0.299497 0.314666 0.523298 0.000000
N6    N     N_R   0.282826 0.275698 0.490376 0.000000
C33   C     C_2   0.404619 0.348061 0.564560 0.000000
O5    O     O_2   0.419126 0.387531 0.589617 0.000000
O6    O     O_2   0.431608 0.299799 0.542270 0.000000
H23   H     H_    0.167066 0.335423 0.495803 0.000000
H24   H     H_    0.180136 0.296106 0.422003 0.000000
H25   H     H_    0.159089 0.266913 0.467662 0.000000
H26   H     H_    0.248052 0.237134 0.420440 0.000000
H27   H     H_    0.317427 0.279697 0.380402 0.000000
H28   H     H_    0.269841 0.276266 0.357055 0.000000
H29   H     H_    0.269652 0.338323 0.414210 0.000000
H30   H     H_    0.280987 0.444086 0.569467 0.000000
H31   H     H_    0.352883 0.436684 0.588628 0.000000
H32   H     H_    0.359454 0.269489 0.516457 0.000000
H33   H     H_    0.462058 0.296547 0.546429 0.000000
C34   C     C_3   0.916807 0.087162 0.214893 0.000000
C35   C     C_3   0.932357 0.041420 0.218708 0.000000
C36   C     C_3   0.940730 0.059547 0.270153 0.000000
C37   C     C_R   0.898891 0.999195 0.209131 0.000000
N7    N     N_R   0.843779 0.005149 0.242171 0.000000
C38   C     C_R   0.833823 0.966382 0.201572 0.000000
C39   C     C_R   0.786164 0.958129 0.204242 0.000000
C40   C     C_R   0.785407 0.919727 0.154656 0.000000
C41   C     C_R   0.832019 0.891702 0.102752 0.000000
C42   C     C_R   0.879684 0.900503 0.101032 0.000000
C43   C     C_R   0.879195 0.936544 0.151114 0.000000
N8    N     N_R   0.921400 0.953667 0.154916 0.000000
C44   C     C_2   0.830640 0.853312 0.050131 0.000000
O7    O     O_2   0.788462 0.842796 0.052855 0.000000
O8    O     O_2   0.876106 0.827388 0.999115 0.000000
H34   H     H_    0.874708 0.090935 0.226331 0.000000
H35   H     H_    0.925118 0.124359 0.241885 0.000000
H36   H     H_    0.942224 0.079891 0.170260 0.000000
H37   H     H_    0.972490 0.022436 0.180448 0.000000
H38   H     H_    0.910117 0.049891 0.301843 0.000000
H39   H     H_    0.980917 0.039595 0.253791 0.000000
H40   H     H_    0.942621 0.101747 0.290383 0.000000
H41   H     H_    0.750179 0.980348 0.244115 0.000000
H42   H     H_    0.748412 0.912814 0.155311 0.000000
H43   H     H_    0.916852 0.880197 0.061272 0.000000
H44   H     H_    0.875697 0.798311 0.965813 0.000000
C45   C     C_3   0.785592 0.132789 0.527669 0.000000
C46   C     C_3   0.773933 0.130455 0.483066 0.000000
C47   C     C_3   0.735754 0.180834 0.509359 0.000000
C48   C     C_R   0.821084 0.122567 0.427700 0.000000
N9    N     N_R   0.857470 0.156815 0.428977 0.000000
C49   C     C_R   0.861412 0.168062 0.389185 0.000000
C50   C     C_R   0.889395 0.202945 0.374806 0.000000
C51   C     C_R   0.877542 0.219641 0.344967 0.000000
C52   C     C_R   0.839745 0.199825 0.328468 0.000000
C53   C     C_R   0.817823 0.158562 0.336220 0.000000
C54   C     C_R   0.831366 0.141715 0.364755 0.000000
N10   N     N_R   0.810892 0.106561 0.381889 0.000000
C55   C     C_2   0.824893 0.221763 0.301160 0.000000
O9    O     O_2   0.848673 0.253403 0.288576 0.000000
O10   O     O_2   0.783967 0.208552 0.291527 0.000000
H45   H     H_    0.828738 0.127887 0.512111 0.000000
H46   H     H_    0.761649 0.168763 0.569656 0.000000
H47   H     H_    0.769300 0.102063 0.537878 0.000000
H48   H     H_    0.754098 0.096696 0.472098 0.000000
H49   H     H_    0.720978 0.176183 0.479973 0.000000
H50   H     H_    0.701698 0.190867 0.552406 0.000000
H51   H     H_    0.756664 0.214052 0.514205 0.000000
H52   H     H_    0.916820 0.219907 0.389920 0.000000
H53   H     H_    0.896555 0.249913 0.336854 0.000000
H54   H     H_    0.790121 0.140958 0.321781 0.000000
H55   H     H_    0.773893 0.223858 0.274410 0.000000
C56   C     C_3   0.494389 0.699657 0.252902 0.000000
C57   C     C_3   0.508020 0.742455 0.236799 0.000000
C58   C     C_3   0.478738 0.797024 0.287301 0.000000
C59   C     C_R   0.566047 0.740578 0.209933 0.000000
N11   N     N_R   0.591233 0.764096 0.242542 0.000000
C60   C     C_R   0.642502 0.752446 0.199029 0.000000
C61   C     C_R   0.686383 0.768816 0.203104 0.000000
C62   C     C_R   0.732928 0.760224 0.154212 0.000000
C63   C     C_R   0.733737 0.741770 0.102501 0.000000
C64   C     C_R   0.688193 0.729122 0.099604 0.000000
C65   C     C_R   0.645422 0.730293 0.146467 0.000000
N12   N     N_R   0.598565 0.721019 0.150456 0.000000
C66   C     C_2   0.781564 0.739822 0.053436 0.000000
O11   O     O_2   0.816909 0.760201 0.061002 0.000000
O12   O     O_2   0.786926 0.716845 0.000354 0.000000
H56   H     H_    0.529694 0.682218 0.248966 0.000000
H57   H     H_    0.459345 0.715052 0.296729 0.000000
H58   H     H_    0.483928 0.667647 0.222595 0.000000
H59   H     H_    0.495186 0.736027 0.205966 0.000000
H60   H     H_    0.499567 0.816815 0.311274 0.000000
H61   H     H_    0.478034 0.820788 0.268550 0.000000
H62   H     H_    0.437875 0.796176 0.316285 0.000000
H63   H     H_    0.684205 0.792917 0.243841 0.000000
H64   H     H_    0.767360 0.772186 0.158230 0.000000
H65   H     H_    0.685184 0.719824 0.061996 0.000000
H66   H     H_    0.819194 0.716176 0.968835 0.000000
C67   C     C_3   0.500458 0.736332 0.046301 0.000000
C68   C     C_3   0.451646 0.728014 0.087084 0.000000
C69   C     C_3   0.435448 0.681192 0.050171 0.000000
C70   C     C_R   0.461113 0.717785 0.126495 0.000000
N13   N     N_R   0.511016 0.689709 0.105200 0.000000
C71   C     C_R   0.497561 0.652270 0.119422 0.000000
C72   C     C_R   0.532612 0.611361 0.104077 0.000000
C73   C     C_R   0.512794 0.570107 0.111299 0.000000
C74   C     C_R   0.459273 0.569629 0.130216 0.000000
C75   C     C_R   0.424117 0.614111 0.150568 0.000000
C76   C     C_R   0.443482 0.658467 0.149994 0.000000
N14   N     N_R   0.418466 0.704339 0.161845 0.000000
C77   C     C_2   0.441313 0.519885 0.123372 0.000000
O13   O     O_2   0.467071 0.486106 0.120173 0.000000
O14   O     O_2   0.398968 0.509395 0.115678 0.000000
H67   H     H_    0.529568 0.698550 0.016450 0.000000
H68   H     H_    0.492525 0.748462 0.020538 0.000000
H69   H     H_    0.513878 0.767662 0.073037 0.000000
H70   H     H_    0.419506 0.762410 0.112916 0.000000
H71   H     H_    0.391903 0.686490 0.072025 0.000000
H72   H     H_    0.447876 0.679789 0.008743 0.000000
H73   H     H_    0.453828 0.643629 0.041250 0.000000
H74   H     H_    0.574697 0.610135 0.084675 0.000000
H75   H     H_    0.540206 0.536033 0.096182 0.000000
H76   H     H_    0.384525 0.610087 0.159328 0.000000
H77   H     H_    0.388330 0.475847 0.109238 0.000000
C78   C     C_3   0.554411 0.826230 0.179519 0.000000
C79   C     C_3   0.594213 0.841029 0.136821 0.000000
C80   C     C_3   0.650384 0.838415 0.125817 0.000000
C81   C     C_R   0.596930 0.809256 0.081641 0.000000
N15   N     N_R   0.607239 0.754038 0.049848 0.000000
C82   C     C_R   0.615084 0.746112 0.998560 0.000000
C83   C     C_R   0.626334 0.698825 0.949324 0.000000
C84   C     C_R   0.618952 0.699556 0.907572 0.000000
C85   C     C_R   0.601425 0.747347 0.915362 0.000000
C86   C     C_R   0.597419 0.795106 0.961551 0.000000
C87   C     C_R   0.604366 0.793344 0.002645 0.000000
N16   N     N_R   0.593850 0.834622 0.054725 0.000000
C88   C     C_2   0.583185 0.747178 0.877474 0.000000
O15   O     O_2   0.583525 0.705310 0.838962 0.000000
O16   O     O_2   0.564785 0.793267 0.885886 0.000000
H78   H     H_    0.515797 0.853452 0.205454 0.000000
H79   H     H_    0.546403 0.787050 0.156408 0.000000
H80   H     H_    0.566443 0.829480 0.209978 0.000000
H81   H     H_    0.579470 0.881537 0.151710 0.000000
H82   H     H_    0.660755 0.877966 0.136070 0.000000
H83   H     H_    0.653816 0.826168 0.152845 0.000000
H84   H     H_    0.678381 0.809868 0.079545 0.000000
H85   H     H_    0.637926 0.662117 0.944552 0.000000
H86   H     H_    0.623988 0.662202 0.870576 0.000000
H87   H     H_    0.583543 0.832530 0.968771 0.000000
H88   H     H_    0.552497 0.793045 0.861081 0.000000
C89   C     C_3   0.700198 0.608099 0.072183 0.000000
C90   C     C_3   0.729380 0.608236 0.015300 0.000000
C91   C     C_3   0.783897 0.577624 0.981953 0.000000
C92   C     C_R   0.700649 0.586017 0.982721 0.000000
N17   N     N_R   0.721955 0.536914 0.930028 0.000000
C93   C     C_R   0.683045 0.535175 0.917188 0.000000
C94   C     C_R   0.683721 0.496770 0.868203 0.000000
C95   C     C_R   0.640993 0.500337 0.860890 0.000000
C96   C     C_R   0.598088 0.542949 0.902850 0.000000
C97   C     C_R   0.597842 0.582417 0.952905 0.000000
C98   C     C_R   0.641601 0.578534 0.958633 0.000000
N18   N     N_R   0.651127 0.613892 0.001408 0.000000
C99   C     C_2   0.554102 0.546302 0.892616 0.000000
O17   O     O_2   0.552184 0.509136 0.851713 0.000000
O18   O     O_2   0.516615 0.590838 0.926919 0.000000
H89   H     H_    0.705976 0.566954 0.063347 0.000000
H90   H     H_    0.716015 0.632913 0.101116 0.000000
H91   H     H_    0.657004 0.622885 0.093787 0.000000
H92   H     H_    0.736383 0.645593 0.017830 0.000000
H93   H     H_    0.808583 0.583733 0.944779 0.000000
H94   H     H_    0.801846 0.589399 0.010221 0.000000
H95   H     H_    0.777742 0.537424 0.968065 0.000000
H96   H     H_    0.716868 0.464386 0.837206 0.000000
H97   H     H_    0.641776 0.469595 0.821783 0.000000
H98   H     H_    0.564895 0.615567 0.985990 0.000000
H99   H     H_    0.488346 0.592815 0.919110 0.000000
C100  C     C_3   0.637860 0.962473 0.273401 0.000000
C101  C     C_3   0.605843 0.920613 0.270255 0.000000
C102  C     C_3   0.637697 0.875251 0.256948 0.000000
C103  C     C_R   0.558375 0.937811 0.326969 0.000000
N19   N     N_R   0.549361 0.907088 0.354122 0.000000
C104  C     C_R   0.536524 0.946137 0.407938 0.000000
C105  C     C_R   0.539164 0.938511 0.447814 0.000000
C106  C     C_R   0.532124 0.981017 0.498953 0.000000
C107  C     C_R   0.527816 0.031178 0.506848 0.000000
C108  C     C_R   0.533390 0.037545 0.462062 0.000000
C109  C     C_R   0.533895 0.995470 0.413913 0.000000
N20   N     N_R   0.543489 0.992648 0.363751 0.000000
C110  C     C_2   0.517417 0.077226 0.562469 0.000000
O19   O     O_2   0.499480 0.121231 0.576086 0.000000
O20   O     O_2   0.524621 0.070783 0.600239 0.000000
H100  H     H_    0.643378 0.977821 0.311229 0.000000
H101  H     H_    0.675532 0.946761 0.232770 0.000000
H102  H     H_    0.619154 0.994245 0.275862 0.000000
H103  H     H_    0.598282 0.909942 0.234963 0.000000
H104  H     H_    0.676403 0.863646 0.217160 0.000000
H105  H     H_    0.643731 0.881626 0.292555 0.000000
H106  H     H_    0.612735 0.846807 0.251572 0.000000
H107  H     H_    0.544797 0.899289 0.439013 0.000000
H108  H     H_    0.530506 0.974544 0.531996 0.000000
H109  H     H_    0.537711 0.074892 0.465379 0.000000
H110  H     H_    0.516831 0.101160 0.637278 0.000000
C111  C     C_3   0.735423 0.699867 0.224235 0.000000
C112  C     C_3   0.682025 0.725131 0.279707 0.000000
C113  C     C_3   0.669902 0.692902 0.309682 0.000000
C114  C     C_R   0.674222 0.783519 0.321850 0.000000
N21   N     N_R   0.702865 0.799068 0.351681 0.000000
C115  C     C_R   0.662962 0.823276 0.407018 0.000000
C116  C     C_R   0.667359 0.835557 0.454313 0.000000
C117  C     C_R   0.621809 0.851891 0.506835 0.000000
C118  C     C_R   0.572427 0.851527 0.510370 0.000000
C119  C     C_R   0.568877 0.836703 0.460906 0.000000
C120  C     C_R   0.614681 0.827027 0.410456 0.000000
N22   N     N_R   0.620748 0.808954 0.357061 0.000000
C121  C     C_2   0.525062 0.865228 0.566377 0.000000
O21   O     O_2   0.529171 0.880534 0.609441 0.000000
O22   O     O_2   0.476853 0.861851 0.571073 0.000000
H111  H     H_    0.761570 0.729073 0.223701 0.000000
H112  H     H_    0.753076 0.664282 0.218993 0.000000
H113  H     H_    0.729507 0.683905 0.186312 0.000000
H114  H     H_    0.651364 0.721088 0.266957 0.000000
H115  H     H_    0.629776 0.709883 0.348877 0.000000
H116  H     H_    0.671010 0.651564 0.279396 0.000000
H117  H     H_    0.699505 0.691980 0.322326 0.000000
H118  H     H_    0.705059 0.827478 0.449606 0.000000
H119  H     H_    0.625658 0.860992 0.543968 0.000000
H120  H     H_    0.531997 0.830734 0.460680 0.000000
H121  H     H_    0.445768 0.873460 0.608734 0.000000
C122  C     C_3   0.393232 0.930972 0.479817 0.000000
C123  C     C_3   0.428684 0.888704 0.469188 0.000000
C124  C     C_3   0.428498 0.900293 0.523567 0.000000
C125  C     C_R   0.430529 0.832517 0.431099 0.000000
N23   N     N_R   0.392166 0.802410 0.447524 0.000000
C126  C     C_R   0.425481 0.755211 0.418589 0.000000
C127  C     C_R   0.412534 0.710268 0.420904 0.000000
C128  C     C_R   0.452376 0.665647 0.387418 0.000000
C129  C     C_R   0.504622 0.666114 0.352036 0.000000
C130  C     C_R   0.517903 0.712507 0.352095 0.000000
C131  C     C_R   0.477721 0.756196 0.385131 0.000000
N24   N     N_R   0.482776 0.803807 0.389285 0.000000
C132  C     C_2   0.545117 0.616967 0.313227 0.000000
O23   O     O_2   0.535524 0.578090 0.318406 0.000000
O24   O     O_2   0.592137 0.613741 0.269925 0.000000
H122  H     H_    0.351324 0.933511 0.509188 0.000000
H123  H     H_    0.405969 0.968583 0.498881 0.000000
H124  H     H_    0.401515 0.922954 0.437231 0.000000
H125  H     H_    0.467429 0.892263 0.441340 0.000000
H126  H     H_    0.413736 0.869683 0.535240 0.000000
H127  H     H_    0.469058 0.901378 0.516543 0.000000
H128  H     H_    0.405680 0.940725 0.558686 0.000000
H129  H     H_    0.372713 0.709362 0.448566 0.000000
H130  H     H_    0.441969 0.629971 0.388491 0.000000
H131  H     H_    0.558140 0.714250 0.325519 0.000000
H132  H     H_    0.618272 0.580944 0.243570 0.000000
C133  C     C_3   0.316768 0.784505 0.137464 0.000000
C134  C     C_3   0.297121 0.843200 0.183444 0.000000
C135  C     C_3   0.240667 0.854957 0.230316 0.000000
C136  C     C_R   0.327873 0.861061 0.213943 0.000000
N25   N     N_R   0.340702 0.831639 0.233264 0.000000
C137  C     C_R   0.357757 0.866910 0.267468 0.000000
C138  C     C_R   0.386213 0.856424 0.287621 0.000000
C139  C     C_R   0.394796 0.899521 0.327736 0.000000
C140  C     C_R   0.375243 0.950426 0.345146 0.000000
C141  C     C_R   0.361050 0.957575 0.311111 0.000000
C142  C     C_R   0.351233 0.915096 0.272972 0.000000
N26   N     N_R   0.336359 0.912867 0.236048 0.000000
C143  C     C_2   0.384982 0.995513 0.386877 0.000000
O25   O     O_2   0.372505 0.039815 0.397357 0.000000
O26   O     O_2   0.414547 0.987289 0.406815 0.000000
H133  H     H_    0.334631 0.763688 0.149426 0.000000
H134  H     H_    0.284719 0.764305 0.132226 0.000000
H135  H     H_    0.346608 0.779718 0.094889 0.000000
H136  H     H_    0.299572 0.866670 0.162919 0.000000
H137  H     H_    0.239941 0.853006 0.266299 0.000000
H138  H     H_    0.221988 0.895895 0.247592 0.000000
H139  H     H_    0.218720 0.826224 0.213110 0.000000
H140  H     H_    0.396640 0.816274 0.276251 0.000000
H141  H     H_    0.416229 0.893820 0.346150 0.000000
H142  H     H_    0.362587 0.994009 0.311460 0.000000
H143  H     H_    0.424722 0.015977 0.431448 0.000000
C144  C     C_3   0.187988 0.712453 0.306879 0.000000
C145  C     C_3   0.188358 0.761903 0.302399 0.000000
C146  C     C_3   0.206498 0.803285 0.340600 0.000000
C147  C     C_R   0.221015 0.749863 0.241492 0.000000
N27   N     N_R   0.274889 0.728371 0.212152 0.000000
C148  C     C_R   0.279829 0.683490 0.165319 0.000000
C149  C     C_R   0.322806 0.642431 0.125166 0.000000
C150  C     C_R   0.317556 0.596096 0.085250 0.000000
C151  C     C_R   0.268565 0.590756 0.088032 0.000000
C152  C     C_R   0.225302 0.632842 0.129790 0.000000
C153  C     C_R   0.233033 0.680754 0.164789 0.000000
N28   N     N_R   0.196724 0.726360 0.208646 0.000000
C154  C     C_2   0.262940 0.541010 0.046024 0.000000
O27   O     O_2   0.299919 0.502871 0.011855 0.000000
O28   O     O_2   0.217476 0.537628 0.043908 0.000000
H144  H     H_    0.227352 0.696416 0.295621 0.000000
H145  H     H_    0.159120 0.722449 0.352079 0.000000
H146  H     H_    0.175341 0.681866 0.277461 0.000000
H147  H     H_    0.146705 0.774067 0.317139 0.000000
H148  H     H_    0.177284 0.840855 0.368375 0.000000
H149  H     H_    0.209528 0.789011 0.367218 0.000000
H150  H     H_    0.245064 0.810239 0.314255 0.000000
H151  H     H_    0.359844 0.646205 0.124430 0.000000
H152  H     H_    0.351746 0.563807 0.052966 0.000000
H153  H     H_    0.186874 0.628103 0.133686 0.000000
H154  H     H_    0.214148 0.505092 0.015715 0.000000
C155  C     C_3   0.236617 0.886304 0.440915 0.000000
C156  C     C_3   0.292718 0.858389 0.396392 0.000000
C157  C     C_3   0.324645 0.880092 0.425548 0.000000
C158  C     C_R   0.304980 0.799701 0.368485 0.000000
N29   N     N_R   0.308417 0.775747 0.397280 0.000000
C159  C     C_R   0.322823 0.724231 0.356106 0.000000
C160  C     C_R   0.333681 0.681342 0.358969 0.000000
C161  C     C_R   0.338425 0.631535 0.315197 0.000000
C162  C     C_R   0.327112 0.626745 0.273570 0.000000
C163  C     C_R   0.323905 0.670147 0.267440 0.000000
C164  C     C_R   0.325773 0.717812 0.307212 0.000000
N30   N     N_R   0.319276 0.764386 0.310401 0.000000
C165  C     C_2   0.314664 0.577231 0.239477 0.000000
O29   O     O_2   0.296298 0.575635 0.209882 0.000000
O30   O     O_2   0.320850 0.534113 0.242961 0.000000
H155  H     H_    0.231403 0.909110 0.485062 0.000000
H156  H     H_    0.228080 0.915315 0.430738 0.000000
H157  H     H_    0.210400 0.857933 0.438146 0.000000
H158  H     H_    0.299684 0.869244 0.364457 0.000000
H159  H     H_    0.365362 0.856297 0.395465 0.000000
H160  H     H_    0.322371 0.922537 0.438775 0.000000
H161  H     H_    0.309386 0.875628 0.463838 0.000000
H162  H     H_    0.333912 0.685979 0.396202 0.000000
H163  H     H_    0.344322 0.597210 0.317989 0.000000
H164  H     H_    0.315611 0.668304 0.235507 0.000000
H165  H     H_    0.311700 0.501846 0.221229 0.000000
C166  C     C_3   0.492128 0.961697 0.274916 0.000000
C167  C     C_3   0.510293 0.974352 0.228724 0.000000
C168  C     C_3   0.474694 0.023813 0.250162 0.000000
C169  C     C_R   0.564610 0.981677 0.208835 0.000000
N31   N     N_R   0.574934 0.025331 0.247103 0.000000
C170  C     C_R   0.602093 0.046136 0.212738 0.000000
C171  C     C_R   0.612505 0.095979 0.229449 0.000000
C172  C     C_R   0.633219 0.113005 0.189569 0.000000
C173  C     C_R   0.642630 0.080059 0.133253 0.000000
C174  C     C_R   0.631737 0.029664 0.116798 0.000000
C175  C     C_R   0.612409 0.013385 0.156832 0.000000
N32   N     N_R   0.592059 0.969848 0.151510 0.000000
C176  C     C_2   0.663109 0.098675 0.091491 0.000000
O31   O     O_2   0.670894 0.143736 0.106238 0.000000
O32   O     O_2   0.673697 0.065901 0.036475 0.000000
H166  H     H_    0.520921 0.931940 0.264273 0.000000
H167  H     H_    0.481148 0.997578 0.317260 0.000000
H168  H     H_    0.461459 0.940594 0.270772 0.000000
H169  H     H_    0.509328 0.941711 0.191162 0.000000
H170  H     H_    0.493859 0.037428 0.218390 0.000000
H171  H     H_    0.435960 0.014654 0.253841 0.000000
H172  H     H_    0.468367 0.055716 0.292979 0.000000
H173  H     H_    0.607149 0.120282 0.271553 0.000000
H174  H     H_    0.641958 0.152323 0.203033 0.000000
H175  H     H_    0.637082 0.004067 0.074048 0.000000
H176  H     H_    0.686828 0.078285 0.009107 0.000000
C177  C     C_3   0.457427 0.865958 0.154498 0.000000
C178  C     C_3   0.462876 0.874777 0.108009 0.000000
C179  C     C_3   0.421457 0.857201 0.089888 0.000000
C180  C     C_R   0.461005 0.931396 0.129212 0.000000
N33   N     N_R   0.414646 0.967258 0.156625 0.000000
C181  C     C_R   0.433503 0.003572 0.141480 0.000000
C182  C     C_R   0.404725 0.042746 0.146827 0.000000
C183  C     C_R   0.431862 0.076611 0.128847 0.000000
C184  C     C_R   0.486818 0.070615 0.106184 0.000000
C185  C     C_R   0.515337 0.029106 0.099273 0.000000
C186  C     C_R   0.487810 0.994262 0.114553 0.000000
N34   N     N_R   0.507018 0.947961 0.105712 0.000000
C187  C     C_2   0.514834 0.106750 0.086868 0.000000
O33   O     O_2   0.489817 0.144242 0.094698 0.000000
O34   O     O_2   0.568303 0.098226 0.059479 0.000000
H177  H     H_    0.441177 0.904484 0.194700 0.000000
H178  H     H_    0.433441 0.836752 0.158775 0.000000
H179  H     H_    0.497105 0.852214 0.143435 0.000000
H180  H     H_    0.501908 0.852780 0.069011 0.000000
H181  H     H_    0.432285 0.861169 0.051692 0.000000
H182  H     H_    0.420652 0.815317 0.076854 0.000000
H183  H     H_    0.381950 0.881810 0.125312 0.000000
H184  H     H_    0.362530 0.045655 0.162669 0.000000
H185  H     H_    0.409660 0.107742 0.132675 0.000000
H186  H     H_    0.557924 0.022874 0.080004 0.000000
H187  H     H_    0.586550 0.121746 0.046187 0.000000
C188  C     C_3   0.723200 0.917892 0.038418 0.000000
C189  C     C_3   0.734026 0.877679 0.977992 0.000000
C190  C     C_3   0.730093 0.823098 0.970447 0.000000
C191  C     C_R   0.698892 0.893410 0.962815 0.000000
N35   N     N_R   0.643726 0.908786 0.997578 0.000000
C192  C     C_R   0.631221 0.922652 0.967391 0.000000
C193  C     C_R   0.581835 0.934606 0.976068 0.000000
C194  C     C_R   0.577098 0.960007 0.949514 0.000000
C195  C     C_R   0.621418 0.974361 0.917292 0.000000
C196  C     C_R   0.671685 0.954028 0.902277 0.000000
C197  C     C_R   0.675790 0.921962 0.922290 0.000000
N36   N     N_R   0.720163 0.898622 0.913896 0.000000
C198  C     C_2   0.614609 0.012532 0.901351 0.000000
O35   O     O_2   0.571837 0.024701 0.907421 0.000000
O36   O     O_2   0.654624 0.036453 0.882916 0.000000
H188  H     H_    0.686060 0.914934 0.071115 0.000000
H189  H     H_    0.756632 0.910698 0.043639 0.000000
H190  H     H_    0.721083 0.957920 0.044056 0.000000
H191  H     H_    0.773819 0.877796 0.947570 0.000000
H192  H     H_    0.730821 0.796405 0.928840 0.000000
H193  H     H_    0.763376 0.807484 0.970952 0.000000
H194  H     H_    0.692877 0.825481 0.006630 0.000000
H195  H     H_    0.547553 0.924941 0.002781 0.000000
H196  H     H_    0.537938 0.972873 0.958903 0.000000
H197  H     H_    0.705550 0.967700 0.881170 0.000000
H198  H     H_    0.649621 0.062505 0.873764 0.000000
C199  C     C_3   0.910354 0.366203 0.806681 0.000000
C200  C     C_3   0.867253 0.336579 0.819854 0.000000
C201  C     C_3   0.838716 0.346801 0.881709 0.000000
C202  C     C_R   0.828984 0.343100 0.803012 0.000000
N37   N     N_R   0.791690 0.390593 0.836831 0.000000
C203  C     C_R   0.746171 0.372308 0.846658 0.000000
C204  C     C_R   0.695643 0.401266 0.888925 0.000000
C205  C     C_R   0.653984 0.374742 0.896972 0.000000
C206  C     C_R   0.663600 0.319650 0.865112 0.000000
C207  C     C_R   0.715298 0.290780 0.824792 0.000000
C208  C     C_R   0.756393 0.317795 0.814762 0.000000
N38   N     N_R   0.809706 0.297746 0.782207 0.000000
C209  C     C_2   0.619224 0.291794 0.876140 0.000000
O37   O     O_2   0.573757 0.316849 0.912267 0.000000
O38   O     O_2   0.628429 0.238426 0.846306 0.000000
H199  H     H_    0.895127 0.394131 0.800555 0.000000
H200  H     H_    0.920461 0.384205 0.840985 0.000000
H201  H     H_    0.947051 0.340371 0.766731 0.000000
H202  H     H_    0.885332 0.295204 0.793434 0.000000
H203  H     H_    0.801811 0.377021 0.909202 0.000000
H204  H     H_    0.826356 0.310017 0.880899 0.000000
H205  H     H_    0.865116 0.357292 0.900750 0.000000
H206  H     H_    0.688702 0.443178 0.917935 0.000000
H207  H     H_    0.614093 0.397454 0.930292 0.000000
H208  H     H_    0.722972 0.248165 0.804092 0.000000
H209  H     H_    0.599132 0.220243 0.853623 0.000000
C210  C     C_3   0.777098 0.395967 0.726521 0.000000
C211  C     C_3   0.836379 0.389716 0.703771 0.000000
C212  C     C_3   0.861457 0.362655 0.640254 0.000000
C213  C     C_R   0.850895 0.442486 0.724939 0.000000
N39   N     N_R   0.875830 0.466452 0.690773 0.000000
C214  C     C_R   0.859046 0.518431 0.734342 0.000000
C215  C     C_R   0.871872 0.562907 0.731028 0.000000
C216  C     C_R   0.852018 0.611938 0.781446 0.000000
C217  C     C_R   0.815948 0.616860 0.834147 0.000000
C218  C     C_R   0.806826 0.572173 0.838119 0.000000
C219  C     C_R   0.829899 0.523740 0.788117 0.000000
N40   N     N_R   0.827631 0.476618 0.784654 0.000000
C220  C     C_2   0.785479 0.668910 0.884408 0.000000
O39   O     O_2   0.797455 0.708749 0.882444 0.000000
O40   O     O_2   0.741644 0.672903 0.931220 0.000000
H210  H     H_    0.760193 0.436417 0.740502 0.000000
H211  H     H_    0.768655 0.367442 0.692259 0.000000
H212  H     H_    0.758407 0.386690 0.761668 0.000000
H213  H     H_    0.848401 0.366254 0.717662 0.000000
H214  H     H_    0.902448 0.369316 0.623444 0.000000
H215  H     H_    0.861702 0.319821 0.622276 0.000000
H216  H     H_    0.837851 0.381313 0.631087 0.000000
H217  H     H_    0.897438 0.560695 0.690560 0.000000
H218  H     H_    0.860890 0.647011 0.778587 0.000000
H219  H     H_    0.782889 0.575621 0.879475 0.000000
H220  H     H_    0.720486 0.707467 0.963429 0.000000
C221  C     C_3   0.964519 0.544997 0.819011 0.000000
C222  C     C_3   0.924973 0.509888 0.817746 0.000000
C223  C     C_3   0.944349 0.464429 0.758488 0.000000
C224  C     C_R   0.912624 0.489776 0.857007 0.000000
N41   N     N_R   0.946383 0.483168 0.875395 0.000000
C225  C     C_R   0.911651 0.478205 0.921339 0.000000
C226  C     C_R   0.921369 0.474735 0.959972 0.000000
C227  C     C_R   0.881062 0.466362 0.002118 0.000000
C228  C     C_R   0.831456 0.462878 0.006128 0.000000
C229  C     C_R   0.821956 0.467780 0.967572 0.000000
C230  C     C_R   0.862489 0.476154 0.925822 0.000000
N42   N     N_R   0.861468 0.482625 0.884655 0.000000
C231  C     C_2   0.789324 0.453289 0.050647 0.000000
O41   O     O_2   0.797325 0.449353 0.085020 0.000000
O42   O     O_2   0.741615 0.448697 0.053731 0.000000
H221  H     H_    0.994812 0.529697 0.822890 0.000000
H222  H     H_    0.983776 0.547766 0.779434 0.000000
H223  H     H_    0.942247 0.584460 0.856620 0.000000
H224  H     H_    0.888234 0.534320 0.832861 0.000000
H225  H     H_    0.940323 0.478821 0.733468 0.000000
H226  H     H_    0.985510 0.449377 0.741692 0.000000
H227  H     H_    0.921275 0.433404 0.756455 0.000000
H228  H     H_    0.960023 0.475748 0.955937 0.000000
H229  H     H_    0.889039 0.461126 0.031012 0.000000
H230  H     H_    0.783639 0.464937 0.970080 0.000000
H231  H     H_    0.714039 0.442235 0.082961 0.000000
C232  C     C_3   0.220453 0.842888 0.126459 0.000000
C233  C     C_3   0.164130 0.840725 0.139340 0.000000
C234  C     C_3   0.165295 0.783520 0.104176 0.000000
C235  C     C_R   0.127693 0.863453 0.203753 0.000000
N43   N     N_R   0.124205 0.837655 0.233787 0.000000
C236  C     C_R   0.113403 0.879325 0.285349 0.000000
C237  C     C_R   0.124803 0.878026 0.323034 0.000000
C238  C     C_R   0.119053 0.924879 0.369585 0.000000
C239  C     C_R   0.099497 0.972102 0.379622 0.000000
C240  C     C_R   0.096286 0.973665 0.336435 0.000000
C241  C     C_R   0.104375 0.926047 0.289111 0.000000
N44   N     N_R   0.111150 0.918086 0.239062 0.000000
C242  C     C_2   0.080182 0.018147 0.437127 0.000000
O43   O     O_2   0.081576 0.062546 0.443937 0.000000
O44   O     O_2   0.057691 0.010891 0.483169 0.000000
H232  H     H_    0.237638 0.808250 0.122645 0.000000
H233  H     H_    0.244826 0.839824 0.083658 0.000000
H234  H     H_    0.220940 0.879223 0.161990 0.000000
H235  H     H_    0.153595 0.864464 0.124730 0.000000
H236  H     H_    0.173096 0.766175 0.125516 0.000000
H237  H     H_    0.128140 0.775146 0.103474 0.000000
H238  H     H_    0.198346 0.766949 0.058748 0.000000
H239  H     H_    0.139934 0.841550 0.314651 0.000000
H240  H     H_    0.128295 0.924493 0.399474 0.000000
H241  H     H_    0.086053 0.010405 0.340679 0.000000
H242  H     H_    0.043733 0.040031 0.522416 0.000000
C243  C     C_3   0.974298 0.721301 0.237105 0.000000
C244  C     C_3   0.005616 0.755685 0.213545 0.000000
C245  C     C_3   0.011539 0.804483 0.259016 0.000000
C246  C     C_R   0.056230 0.723066 0.161480 0.000000
N45   N     N_R   0.103750 0.716885 0.160146 0.000000
C247  C     C_R   0.136128 0.680506 0.103204 0.000000
C248  C     C_R   0.190904 0.667274 0.072381 0.000000
C249  C     C_R   0.216471 0.629223 0.014299 0.000000
C250  C     C_R   0.187290 0.606408 0.986832 0.000000
C251  C     C_R   0.133291 0.626169 0.015892 0.000000
C252  C     C_R   0.108671 0.665033 0.073775 0.000000
N46   N     N_R   0.058094 0.693331 0.108881 0.000000
C253  C     C_2   0.213663 0.562649 0.926595 0.000000
O45   O     O_2   0.262092 0.550170 0.897889 0.000000
O46   O     O_2   0.184363 0.534365 0.903600 0.000000
H243  H     H_    0.996197 0.704837 0.249070 0.000000
H244  H     H_    0.934452 0.743775 0.275220 0.000000
H245  H     H_    0.970248 0.686908 0.202440 0.000000
H246  H     H_    0.985748 0.768055 0.197153 0.000000
H247  H     H_    0.014226 0.838546 0.252678 0.000000
H248  H     H_    0.979034 0.815092 0.302231 0.000000
H249  H     H_    0.047899 0.797661 0.257154 0.000000
H250  H     H_    0.214389 0.687902 0.091653 0.000000
H251  H     H_    0.259312 0.617289 0.991018 0.000000
H252  H     H_    0.112205 0.612285 0.992372 0.000000
H253  H     H_    0.202034 0.504913 0.864279 0.000000
C254  C     C_3   0.957841 0.885629 0.435231 0.000000
C255  C     C_3   0.012666 0.851944 0.391231 0.000000
C256  C     C_3   0.041406 0.858980 0.422826 0.000000
C257  C     C_R   0.015368 0.794422 0.360353 0.000000
N47   N     N_R   0.980237 0.769274 0.387150 0.000000
C258  C     C_R   0.001453 0.718123 0.344985 0.000000
C259  C     C_R   0.979041 0.675391 0.343618 0.000000
C260  C     C_R   0.006849 0.625668 0.295912 0.000000
C261  C     C_R   0.057374 0.619475 0.251699 0.000000
C262  C     C_R   0.077266 0.663879 0.251659 0.000000
C263  C     C_R   0.048072 0.712786 0.298571 0.000000
N48   N     N_R   0.058149 0.760291 0.304785 0.000000
C264  C     C_2   0.089892 0.566014 0.206534 0.000000
O47   O     O_2   0.073045 0.527332 0.208308 0.000000
O48   O     O_2   0.139271 0.559369 0.164356 0.000000
H254  H     H_    0.930571 0.861366 0.448337 0.000000
H255  H     H_    0.957400 0.918662 0.474226 0.000000
H256  H     H_    0.946815 0.903820 0.416016 0.000000
H257  H     H_    0.030755 0.865372 0.359783 0.000000
H258  H     H_    0.078190 0.828921 0.394280 0.000000
H259  H     H_    0.050035 0.898725 0.436858 0.000000
H260  H     H_    0.016405 0.853634 0.460205 0.000000
H261  H     H_    0.942074 0.680070 0.379761 0.000000
H262  H     H_    0.990231 0.591531 0.295782 0.000000
H263  H     H_    0.114695 0.660895 0.216963 0.000000
H264  H     H_    0.160783 0.524075 0.135804 0.000000
C265  C     C_3   0.237284 0.633141 0.423113 0.000000
C266  C     C_3   0.213053 0.691371 0.463647 0.000000
C267  C     C_3   0.153339 0.699038 0.487299 0.000000
C268  C     C_R   0.228351 0.712825 0.510240 0.000000
N49   N     N_R   0.208027 0.699785 0.554286 0.000000
C269  C     C_R   0.240365 0.718809 0.576630 0.000000
C270  C     C_R   0.240757 0.714214 0.619401 0.000000
C271  C     C_R   0.280001 0.732016 0.633218 0.000000
C272  C     C_R   0.316389 0.756392 0.606243 0.000000
C273  C     C_R   0.312196 0.765277 0.566852 0.000000
C274  C     C_R   0.274750 0.744617 0.551344 0.000000
N50   N     N_R   0.267695 0.744148 0.509989 0.000000
C275  C     C_2   0.361395 0.769167 0.616487 0.000000
O49   O     O_2   0.362837 0.765799 0.654575 0.000000
O50   O     O_2   0.403275 0.780572 0.580967 0.000000
H265  H     H_    0.216409 0.611182 0.444540 0.000000
H266  H     H_    0.235367 0.618505 0.382793 0.000000
H267  H     H_    0.278539 0.626763 0.413497 0.000000
H268  H     H_    0.229843 0.710763 0.437470 0.000000
H269  H     H_    0.139470 0.727135 0.479595 0.000000
H270  H     H_    0.143864 0.661486 0.462396 0.000000
H271  H     H_    0.131731 0.713676 0.534431 0.000000
H272  H     H_    0.212618 0.695369 0.639959 0.000000
H273  H     H_    0.282909 0.725111 0.664013 0.000000
H274  H     H_    0.339752 0.784479 0.545897 0.000000
H275  H     H_    0.434531 0.784542 0.585111 0.000000
C276  C     C_3   0.185467 0.813640 0.505272 0.000000
C277  C     C_3   0.156239 0.866913 0.553862 0.000000
C278  C     C_3   0.103549 0.862021 0.595609 0.000000
C279  C     C_R   0.189184 0.895535 0.579852 0.000000
N51   N     N_R   0.243595 0.874695 0.552928 0.000000
C280  C     C_R   0.257257 0.914663 0.587876 0.000000
C281  C     C_R   0.300794 0.911265 0.593060 0.000000
C282  C     C_R   0.306262 0.955898 0.634823 0.000000
C283  C     C_R   0.271073 0.003888 0.666390 0.000000
C284  C     C_R   0.225329 0.005261 0.662691 0.000000
C285  C     C_R   0.216689 0.958305 0.627856 0.000000
N52   N     N_R   0.170652 0.947626 0.627809 0.000000
C286  C     C_2   0.279302 0.051313 0.708492 0.000000
O51   O     O_2   0.319365 0.049696 0.711803 0.000000
O52   O     O_2   0.242772 0.096789 0.743716 0.000000
H276  H     H_    0.164415 0.796928 0.480477 0.000000
H277  H     H_    0.224545 0.815648 0.476741 0.000000
H278  H     H_    0.188351 0.792341 0.524918 0.000000
H279  H     H_    0.151693 0.885913 0.532871 0.000000
H280  H     H_    0.088948 0.895851 0.640235 0.000000
H281  H     H_    0.074145 0.859736 0.581474 0.000000
H282  H     H_    0.107399 0.823987 0.593601 0.000000
H283  H     H_    0.327679 0.873762 0.567827 0.000000
H284  H     H_    0.338306 0.953040 0.642685 0.000000
H285  H     H_    0.195146 0.040695 0.690612 0.000000
H286  H     H_    0.248445 0.127881 0.771224 0.000000
C287  C     C_3   0.449164 0.116317 0.489491 0.000000
C288  C     C_3   0.404500 0.130418 0.484845 0.000000
C289  C     C_3   0.374312 0.185175 0.537236 0.000000
C290  C     C_R   0.423774 0.130371 0.429682 0.000000
N53   N     N_R   0.478988 0.120799 0.391711 0.000000
C291  C     C_R   0.479914 0.159062 0.378609 0.000000
C292  C     C_R   0.521877 0.182769 0.362238 0.000000
C293  C     C_R   0.514773 0.224945 0.355650 0.000000
C294  C     C_R   0.465034 0.244733 0.368629 0.000000
C295  C     C_R   0.421480 0.224198 0.391715 0.000000
C296  C     C_R   0.429598 0.182892 0.398588 0.000000
N54   N     N_R   0.391919 0.164940 0.430304 0.000000
C297  C     C_2   0.457758 0.290143 0.362521 0.000000
O53   O     O_2   0.495888 0.308427 0.342298 0.000000
O54   O     O_2   0.408890 0.312069 0.379540 0.000000
H287  H     H_    0.468777 0.150160 0.501537 0.000000
H288  H     H_    0.433621 0.104877 0.523268 0.000000
H289  H     H_    0.475783 0.082266 0.446829 0.000000
H290  H     H_    0.381965 0.099671 0.485123 0.000000
H291  H     H_    0.340465 0.199998 0.537227 0.000000
H292  H     H_    0.359450 0.183190 0.577273 0.000000
H293  H     H_    0.401135 0.213783 0.537363 0.000000
H294  H     H_    0.557838 0.172227 0.360386 0.000000
H295  H     H_    0.548088 0.243474 0.342277 0.000000
H296  H     H_    0.382001 0.241373 0.406109 0.000000
H297  H     H_    0.404122 0.342114 0.375766 0.000000
C298  C     C_3   0.713200 0.043881 0.213368 0.000000
C299  C     C_3   0.715387 0.076989 0.268609 0.000000
C300  C     C_3   0.700776 0.135840 0.291935 0.000000
C301  C     C_R   0.681220 0.064643 0.315464 0.000000
N55   N     N_R   0.625562 0.083728 0.347910 0.000000
C302  C     C_R   0.617924 0.106870 0.401979 0.000000
C303  C     C_R   0.576970 0.147302 0.450930 0.000000
C304  C     C_R   0.576119 0.165902 0.503009 0.000000
C305  C     C_R   0.615118 0.142472 0.504699 0.000000
C306  C     C_R   0.659567 0.106494 0.453236 0.000000
C307  C     C_R   0.661853 0.093012 0.402180 0.000000
N56   N     N_R   0.703798 0.065350 0.347820 0.000000
C308  C     C_2   0.609201 0.155682 0.560737 0.000000
O55   O     O_2   0.575729 0.193557 0.605661 0.000000
O56   O     O_2   0.639415 0.124745 0.562965 0.000000
H298  H     H_    0.681151 0.021750 0.220241 0.000000
H299  H     H_    0.708889 0.069411 0.197589 0.000000
H300  H     H_    0.750899 0.015275 0.178896 0.000000
H301  H     H_    0.757210 0.069191 0.257759 0.000000
H302  H     H_    0.658366 0.148465 0.308426 0.000000
H303  H     H_    0.708036 0.158611 0.328907 0.000000
H304  H     H_    0.725296 0.145335 0.257396 0.000000
H305  H     H_    0.546655 0.163890 0.448583 0.000000
H306  H     H_    0.542869 0.196185 0.542602 0.000000
H307  H     H_    0.691207 0.088779 0.452515 0.000000
H308  H     H_    0.635112 0.133057 0.599917 0.000000
C309  C     C_3   0.221553 0.096304 0.254112 0.000000
C310  C     C_3   0.211407 0.062913 0.282214 0.000000
C311  C     C_3   0.158124 0.081651 0.336309 0.000000
C312  C     C_R   0.222434 0.006156 0.237390 0.000000
N57   N     N_R   0.193895 0.989679 0.207554 0.000000
C313  C     C_R   0.234097 0.961353 0.151651 0.000000
C314  C     C_R   0.231262 0.935600 0.101485 0.000000
C315  C     C_R   0.278109 0.912188 0.048535 0.000000
C316  C     C_R   0.327157 0.913191 0.046087 0.000000
C317  C     C_R   0.329190 0.935509 0.097074 0.000000
C318  C     C_R   0.282160 0.957980 0.148974 0.000000
N58   N     N_R   0.276040 0.982336 0.202531 0.000000
C319  C     C_2   0.376603 0.890516 0.989697 0.000000
O57   O     O_2   0.374926 0.868425 0.944670 0.000000
O58   O     O_2   0.424035 0.894732 0.987378 0.000000
H309  H     H_    0.203079 0.084585 0.226861 0.000000
H310  H     H_    0.208134 0.138865 0.287549 0.000000
H311  H     H_    0.264731 0.088325 0.224117 0.000000
H312  H     H_    0.241042 0.068815 0.295616 0.000000
H313  H     H_    0.157872 0.059941 0.357858 0.000000
H314  H     H_    0.151528 0.124773 0.366247 0.000000
H315  H     H_    0.127057 0.073244 0.324677 0.000000
H316  H     H_    0.194127 0.931458 0.102274 0.000000
H317  H     H_    0.275795 0.892886 0.009117 0.000000
H318  H     H_    0.366523 0.937670 0.096379 0.000000
H319  H     H_    0.456491 0.880016 0.950249 0.000000
C320  C     C_3   0.410676 0.124216 0.269724 0.000000
C321  C     C_3   0.351864 0.142780 0.311869 0.000000
C322  C     C_3   0.322531 0.154687 0.287215 0.000000
C323  C     C_R   0.327176 0.105742 0.333164 0.000000
N59   N     N_R   0.319992 0.054540 0.300633 0.000000
C324  C     C_R   0.281207 0.048838 0.343349 0.000000
C325  C     C_R   0.254486 0.007897 0.335697 0.000000
C326  C     C_R   0.219603 0.004846 0.383179 0.000000
C327  C     C_R   0.208022 0.045854 0.436978 0.000000
C328  C     C_R   0.233102 0.087668 0.444143 0.000000
C329  C     C_R   0.270240 0.089114 0.396483 0.000000
N60   N     N_R   0.298650 0.126733 0.392764 0.000000
C330  C     C_2   0.161507 0.050596 0.486557 0.000000
O59   O     O_2   0.148882 0.010903 0.487547 0.000000
O60   O     O_2   0.127924 0.097685 0.525705 0.000000
H320  H     H_    0.418240 0.082422 0.237755 0.000000
H321  H     H_    0.424862 0.147907 0.247912 0.000000
H322  H     H_    0.432073 0.128837 0.293227 0.000000
H323  H     H_    0.346174 0.180721 0.350312 0.000000
H324  H     H_    0.338430 0.185158 0.275499 0.000000
H325  H     H_    0.327180 0.118362 0.248626 0.000000
H326  H     H_    0.279617 0.169463 0.320042 0.000000
H327  H     H_    0.258266 0.979700 0.294525 0.000000
H328  H     H_    0.198479 0.972869 0.378149 0.000000
H329  H     H_    0.220256 0.118080 0.486618 0.000000
H330  H     H_    0.091413 0.100917 0.552164 0.000000
C331  C     C_3   0.916724 0.208161 0.807669 0.000000
C332  C     C_3   0.962209 0.175353 0.745584 0.000000
C333  C     C_3   0.948295 0.123117 0.714051 0.000000
C334  C     C_R   0.972553 0.204166 0.714020 0.000000
N61   N     N_R   0.933711 0.217479 0.705509 0.000000
C335  C     C_R   0.955513 0.246174 0.681674 0.000000
C336  C     C_R   0.928191 0.276317 0.675404 0.000000
C337  C     C_R   0.953483 0.308108 0.656056 0.000000
C338  C     C_R   0.004842 0.308348 0.641864 0.000000
C339  C     C_R   0.030795 0.279743 0.652062 0.000000
C340  C     C_R   0.005034 0.249229 0.673709 0.000000
N62   N     N_R   0.018819 0.223781 0.694704 0.000000
C341  C     C_2   0.027775 0.342489 0.619467 0.000000
O61   O     O_2   0.999413 0.382493 0.636486 0.000000
O62   O     O_2   0.075714 0.325476 0.572887 0.000000
H331  H     H_    0.907937 0.248602 0.818182 0.000000
H332  H     H_    0.878763 0.194942 0.815661 0.000000
H333  H     H_    0.928361 0.208597 0.837946 0.000000
H334  H     H_    0.998642 0.169291 0.746360 0.000000
H335  H     H_    0.975059 0.089537 0.701101 0.000000
H336  H     H_    0.909596 0.119191 0.742698 0.000000
H337  H     H_    0.950648 0.118330 0.674350 0.000000
H338  H     H_    0.887145 0.278953 0.688239 0.000000
H339  H     H_    0.934153 0.330495 0.648674 0.000000
H340  H     H_    0.068289 0.282322 0.646348 0.000000
H341  H     H_    0.085921 0.344819 0.552927 0.000000
C342  C     C_3   0.904393 0.037243 0.586891 0.000000
C343  C     C_3   0.866305 0.088897 0.635871 0.000000
C344  C     C_3   0.816854 0.095791 0.632886 0.000000
C345  C     C_R   0.851036 0.105854 0.696788 0.000000
N63   N     N_R   0.835130 0.076449 0.725137 0.000000
C346  C     C_R   0.801871 0.114974 0.780508 0.000000
C347  C     C_R   0.767405 0.109378 0.826822 0.000000
C348  C     C_R   0.737388 0.154692 0.880339 0.000000
C349  C     C_R   0.742471 0.204786 0.886810 0.000000
C350  C     C_R   0.775967 0.209420 0.838767 0.000000
C351  C     C_R   0.803022 0.163861 0.785914 0.000000
N64   N     N_R   0.834375 0.159626 0.733951 0.000000
C352  C     C_2   0.711314 0.252683 0.943843 0.000000
O63   O     O_2   0.681644 0.248979 0.986374 0.000000
O64   O     O_2   0.715134 0.300999 0.949421 0.000000
H342  H     H_    0.887385 0.003969 0.590645 0.000000
H343  H     H_    0.912169 0.032303 0.545083 0.000000
H344  H     H_    0.942686 0.039008 0.586581 0.000000
H345  H     H_    0.887207 0.118892 0.628450 0.000000
H346  H     H_    0.791595 0.135373 0.668378 0.000000
H347  H     H_    0.828397 0.093124 0.591023 0.000000
H348  H     H_    0.793115 0.066257 0.638688 0.000000
H349  H     H_    0.761726 0.071052 0.821657 0.000000
H350  H     H_    0.710038 0.150420 0.917033 0.000000
H351  H     H_    0.780964 0.247434 0.842353 0.000000
H352  H     H_    0.694504 0.332507 0.986926 0.000000
C353  C     C_3   0.996312 0.203136 0.532956 0.000000
C354  C     C_3   0.964008 0.162112 0.538368 0.000000
C355  C     C_3   0.981110 0.132466 0.559145 0.000000
C356  C     C_R   0.905636 0.184101 0.571338 0.000000
N65   N     N_R   0.869522 0.200476 0.630066 0.000000
C357  C     C_R   0.825680 0.221941 0.636857 0.000000
C358  C     C_R   0.776414 0.239777 0.684140 0.000000
C359  C     C_R   0.736690 0.265524 0.686239 0.000000
C360  C     C_R   0.747800 0.273139 0.640425 0.000000
C361  C     C_R   0.797925 0.251230 0.590871 0.000000
C362  C     C_R   0.835063 0.222776 0.589001 0.000000
N66   N     N_R   0.884327 0.195927 0.544590 0.000000
C363  C     C_2   0.706134 0.302936 0.644150 0.000000
O65   O     O_2   0.716237 0.312432 0.605765 0.000000
O66   O     O_2   0.656734 0.320883 0.690602 0.000000
H353  H     H_    0.969475 0.239113 0.548895 0.000000
H354  H     H_    0.017866 0.211681 0.556935 0.000000
H355  H     H_    0.026131 0.187154 0.486428 0.000000
H356  H     H_    0.974324 0.134537 0.493360 0.000000
H357  H     H_    0.974454 0.091760 0.539319 0.000000
H358  H     H_    0.023620 0.131455 0.546027 0.000000
H359  H     H_    0.958352 0.150888 0.606259 0.000000
H360  H     H_    0.769302 0.230074 0.716206 0.000000
H361  H     H_    0.697362 0.279999 0.724036 0.000000
H362  H     H_    0.807203 0.253530 0.553616 0.000000
H363  H     H_    0.629530 0.340800 0.693094 0.000000
C364  C     C_3   0.863592 0.852625 0.220090 0.000000
C365  C     C_3   0.904221 0.819502 0.215223 0.000000
C366  C     C_3   0.906885 0.848096 0.269764 0.000000
C367  C     C_R   0.888731 0.768767 0.209008 0.000000
N67   N     N_R   0.843444 0.766085 0.252738 0.000000
C368  C     C_R   0.849478 0.713472 0.230729 0.000000
C369  C     C_R   0.817513 0.688522 0.257526 0.000000
C370  C     C_R   0.830164 0.634093 0.230588 0.000000
C371  C     C_R   0.873728 0.605422 0.175113 0.000000
C372  C     C_R   0.904957 0.631821 0.147489 0.000000
C373  C     C_R   0.893608 0.686252 0.177384 0.000000
N68   N     N_R   0.921547 0.719849 0.161990 0.000000
C374  C     C_2   0.886326 0.547408 0.146044 0.000000
O67   O     O_2   0.857545 0.524343 0.169555 0.000000
O68   O     O_2   0.930683 0.519441 0.094255 0.000000
H364  H     H_    0.825607 0.841855 0.240941 0.000000
H365  H     H_    0.863657 0.895349 0.243829 0.000000
H366  H     H_    0.871298 0.844177 0.177833 0.000000
H367  H     H_    0.942973 0.811853 0.177834 0.000000
H368  H     H_    0.905365 0.820144 0.284655 0.000000
H369  H     H_    0.943969 0.861923 0.261061 0.000000
H370  H     H_    0.874867 0.882791 0.302834 0.000000
H371  H     H_    0.780958 0.711495 0.296047 0.000000
H372  H     H_    0.804156 0.614310 0.252035 0.000000
H373  H     H_    0.935627 0.610397 0.103347 0.000000
H374  H     H_    0.940342 0.481543 0.076744 0.000000
C375  C     C_3   0.673966 0.957505 0.372462 0.000000
C376  C     C_3   0.719978 0.910956 0.327488 0.000000
C377  C     C_3   0.741078 0.896405 0.266385 0.000000
C378  C     C_R   0.762504 0.925451 0.340162 0.000000
N69   N     N_R   0.781859 0.972413 0.346426 0.000000
C379  C     C_R   0.803660 0.975749 0.377815 0.000000
C380  C     C_R   0.835108 0.008360 0.393162 0.000000
C381  C     C_R   0.835810 0.014805 0.441104 0.000000
C382  C     C_R   0.795196 0.000850 0.477216 0.000000
C383  C     C_R   0.767165 0.966489 0.455719 0.000000
C384  C     C_R   0.789707 0.941106 0.397028 0.000000
N70   N     N_R   0.772973 0.901538 0.365177 0.000000
C385  C     C_2   0.791863 0.009933 0.529972 0.000000
O69   O     O_2   0.748655 0.023678 0.573660 0.000000
O70   O     O_2   0.835423 0.990853 0.525593 0.000000
H375  H     H_    0.683405 0.990608 0.364698 0.000000
H376  H     H_    0.637639 0.946810 0.371407 0.000000
H377  H     H_    0.667303 0.969673 0.416233 0.000000
H378  H     H_    0.708358 0.876314 0.332163 0.000000
H379  H     H_    0.715859 0.919403 0.264279 0.000000
H380  H     H_    0.779824 0.907199 0.251672 0.000000
H381  H     H_    0.745236 0.853434 0.239273 0.000000
H382  H     H_    0.860356 0.024249 0.366831 0.000000
H383  H     H_    0.861631 0.037032 0.455439 0.000000
H384  H     H_    0.731194 0.958973 0.483219 0.000000
H385  H     H_    0.832015 0.983970 0.554870 0.000000
C386  C     C_3   0.864065 0.876040 0.400890 0.000000
C387  C     C_3   0.833483 0.861054 0.445160 0.000000
C388  C     C_3   0.774408 0.881738 0.479183 0.000000
C389  C     C_R   0.837744 0.805330 0.412753 0.000000
N71   N     N_R   0.806294 0.787591 0.386659 0.000000
C390  C     C_R   0.799143 0.742327 0.388808 0.000000
C391  C     C_R   0.759017 0.715382 0.386834 0.000000
C392  C     C_R   0.758891 0.669260 0.388805 0.000000
C393  C     C_R   0.797616 0.651687 0.394964 0.000000
C394  C     C_R   0.833230 0.683295 0.405128 0.000000
C395  C     C_R   0.830470 0.730827 0.406585 0.000000
N72   N     N_R   0.854225 0.771704 0.425324 0.000000
C396  C     C_2   0.798606 0.601427 0.394559 0.000000
O71   O     O_2   0.765638 0.574851 0.388504 0.000000
O72   O     O_2   0.835971 0.584285 0.400699 0.000000
H386  H     H_    0.844758 0.865354 0.374947 0.000000
H387  H     H_    0.868649 0.917433 0.419384 0.000000
H388  H     H_    0.903138 0.849884 0.373051 0.000000
H389  H     H_    0.849901 0.871036 0.473549 0.000000
H390  H     H_    0.753500 0.856051 0.496362 0.000000
H391  H     H_    0.763672 0.921824 0.516302 0.000000
H392  H     H_    0.760515 0.879164 0.450170 0.000000
H393  H     H_    0.727358 0.730446 0.385352 0.000000
H394  H     H_    0.728385 0.647055 0.385115 0.000000
H395  H     H_    0.861051 0.671135 0.413267 0.000000
H396  H     H_    0.836287 0.551334 0.400703 0.000000
C397  C     C_3   0.069755 0.527982 0.657830 0.000000
C398  C     C_3   0.032331 0.491144 0.656734 0.000000
C399  C     C_3   0.983886 0.519137 0.669824 0.000000
C400  C     C_R   0.052789 0.447136 0.598734 0.000000
N73   N     N_R   0.107575 0.431848 0.565037 0.000000
C401  C     C_R   0.113676 0.416108 0.512462 0.000000
C402  C     C_R   0.160530 0.404021 0.462757 0.000000
C403  C     C_R   0.159138 0.388861 0.412610 0.000000
C404  C     C_R   0.110900 0.387297 0.413287 0.000000
C405  C     C_R   0.063567 0.402483 0.464974 0.000000
C406  C     C_R   0.065317 0.416976 0.514388 0.000000
N74   N     N_R   0.023731 0.434613 0.569056 0.000000
C407  C     C_2   0.110319 0.368867 0.359009 0.000000
O73   O     O_2   0.068228 0.368789 0.359304 0.000000
O74   O     O_2   0.156319 0.351013 0.308358 0.000000
H397  H     H_    0.103779 0.512060 0.655056 0.000000
H398  H     H_    0.083771 0.532586 0.619683 0.000000
H399  H     H_    0.050325 0.565299 0.699809 0.000000
H400  H     H_    0.028257 0.477501 0.685761 0.000000
H401  H     H_    0.958637 0.490733 0.664194 0.000000
H402  H     H_    0.965138 0.551635 0.714583 0.000000
H403  H     H_    0.991830 0.532738 0.639089 0.000000
H404  H     H_    0.197626 0.404424 0.462342 0.000000
H405  H     H_    0.196182 0.377662 0.372829 0.000000
H406  H     H_    0.026459 0.400805 0.466400 0.000000
H407  H     H_    0.155762 0.338577 0.272689 0.000000
C408  C     C_3   0.803588 0.524752 0.651882 0.000000
C409  C     C_3   0.829502 0.571051 0.650359 0.000000
C410  C     C_3   0.805082 0.617076 0.712080 0.000000
C411  C     C_R   0.890272 0.558812 0.612141 0.000000
N75   N     N_R   0.915995 0.505238 0.580275 0.000000
C412  C     C_R   0.935676 0.495227 0.525321 0.000000
C413  C     C_R   0.949032 0.446790 0.476676 0.000000
C414  C     C_R   0.957975 0.443951 0.426240 0.000000
C415  C     C_R   0.951396 0.489799 0.425289 0.000000
C416  C     C_R   0.935894 0.538556 0.475342 0.000000
C417  C     C_R   0.929982 0.540474 0.524309 0.000000
N76   N     N_R   0.907703 0.583089 0.578259 0.000000
C418  C     C_2   0.958103 0.486401 0.372377 0.000000
O75   O     O_2   0.973264 0.443454 0.327907 0.000000
O76   O     O_2   0.947151 0.530522 0.372695 0.000000
H408  H     H_    0.828880 0.495043 0.648082 0.000000
H409  H     H_    0.765088 0.538585 0.692786 0.000000
H410  H     H_    0.792552 0.508019 0.617577 0.000000
H411  H     H_    0.814699 0.582488 0.628687 0.000000
H412  H     H_    0.832156 0.645132 0.717082 0.000000
H413  H     H_    0.766735 0.636270 0.724066 0.000000
H414  H     H_    0.790928 0.603475 0.743549 0.000000
H415  H     H_    0.948217 0.411562 0.478772 0.000000
H416  H     H_    0.967335 0.405398 0.388585 0.000000
H417  H     H_    0.928016 0.574256 0.476059 0.000000
H418  H     H_    0.951476 0.528045 0.337825 0.000000
C419  C     C_3   0.009298 0.293503 0.419838 0.000000
C420  C     C_3   0.992438 0.287735 0.472715 0.000000
C421  C     C_3   0.025164 0.309201 0.501374 0.000000
C422  C     C_R   0.936891 0.310573 0.510704 0.000000
N77   N     N_R   0.918173 0.364950 0.536622 0.000000
C423  C     C_R   0.875555 0.362556 0.528787 0.000000
C424  C     C_R   0.844595 0.403207 0.538882 0.000000
C425  C     C_R   0.802731 0.393487 0.527996 0.000000
C426  C     C_R   0.791918 0.342888 0.507544 0.000000
C427  C     C_R   0.824070 0.301757 0.496689 0.000000
C428  C     C_R   0.866763 0.311812 0.505872 0.000000
N78   N     N_R   0.904905 0.276858 0.494077 0.000000
C429  C     C_2   0.747415 0.332511 0.495908 0.000000
O77   O     O_2   0.718578 0.368685 0.506013 0.000000
O78   O     O_2   0.738390 0.282928 0.473673 0.000000
H419  H     H_    0.988012 0.330763 0.432189 0.000000
H420  H     H_    0.051952 0.293166 0.397414 0.000000
H421  H     H_    0.998291 0.261768 0.389529 0.000000
H422  H     H_    0.991120 0.246844 0.463113 0.000000
H423  H     H_    0.034472 0.280036 0.510632 0.000000
H424  H     H_    0.063627 0.313916 0.472234 0.000000
H425  H     H_    0.001464 0.346389 0.542251 0.000000
H426  H     H_    0.855429 0.440819 0.550548 0.000000
H427  H     H_    0.779076 0.425735 0.534994 0.000000
H428  H     H_    0.815322 0.262931 0.481691 0.000000
H429  H     H_    0.709254 0.276115 0.465800 0.000000
C430  C     C_3   0.981167 0.295117 0.836804 0.000000
C431  C     C_3   0.996352 0.347055 0.860606 0.000000
C432  C     C_3   0.009375 0.352999 0.906094 0.000000
C433  C     C_R   0.042329 0.351567 0.813392 0.000000
N79   N     N_R   0.058609 0.399823 0.829763 0.000000
C434  C     C_R   0.110979 0.384442 0.806143 0.000000
C435  C     C_R   0.145886 0.416586 0.815298 0.000000
C436  C     C_R   0.198736 0.393420 0.787076 0.000000
C437  C     C_R   0.215495 0.338978 0.750394 0.000000
C438  C     C_R   0.179240 0.307654 0.741786 0.000000
C439  C     C_R   0.126504 0.330711 0.771080 0.000000
N80   N     N_R   0.084365 0.307796 0.770374 0.000000
C440  C     C_2   0.271459 0.314376 0.721936 0.000000
O79   O     O_2   0.304321 0.341956 0.725466 0.000000
O80   O     O_2   0.286493 0.261309 0.693653 0.000000
H430  H     H_    0.012900 0.261846 0.817898 0.000000
H431  H     H_    0.944624 0.295639 0.873170 0.000000
H432  H     H_    0.973340 0.292209 0.803360 0.000000
H433  H     H_    0.962063 0.377992 0.881887 0.000000
H434  H     H_    0.988284 0.392172 0.945980 0.000000
H435  H     H_    0.996558 0.321775 0.917488 0.000000
H436  H     H_    0.052627 0.349769 0.889389 0.000000
H437  H     H_    0.132176 0.458552 0.844905 0.000000
H438  H     H_    0.226787 0.417928 0.794022 0.000000
H439  H     H_    0.192613 0.266746 0.712972 0.000000
H440  H     H_    0.322890 0.245586 0.677350 0.000000
C441  C     C_3   0.036173 0.622826 0.894038 0.000000
C442  C     C_3   0.995647 0.628495 0.951632 0.000000
C443  C     C_3   0.941790 0.619499 0.957720 0.000000
C444  C     C_R   0.014135 0.594088 0.965235 0.000000
N81   N     N_R   0.028040 0.538722 0.932184 0.000000
C445  C     C_R   0.038203 0.527860 0.966159 0.000000
C446  C     C_R   0.052445 0.479387 0.957769 0.000000
C447  C     C_R   0.057290 0.477325 0.000238 0.000000
C448  C     C_R   0.046298 0.523456 0.051575 0.000000
C449  C     C_R   0.033442 0.572126 0.059038 0.000000
C450  C     C_R   0.029554 0.573254 0.015864 0.000000
N82   N     N_R   0.014232 0.616488 0.017175 0.000000
C451  C     C_2   0.040810 0.520554 0.100856 0.000000
O81   O     O_2   0.057865 0.479215 0.093665 0.000000
O82   O     O_2   0.011624 0.561985 0.155085 0.000000
H441  H     H_    0.039473 0.584389 0.858378 0.000000
H442  H     H_    0.024716 0.654688 0.889418 0.000000
H443  H     H_    0.074741 0.627429 0.893030 0.000000
H444  H     H_    0.991835 0.668756 0.984419 0.000000
H445  H     H_    0.914432 0.626089 0.001892 0.000000
H446  H     H_    0.925430 0.646646 0.950377 0.000000
H447  H     H_    0.945423 0.578098 0.927182 0.000000
H448  H     H_    0.057297 0.443274 0.920971 0.000000
H449  H     H_    0.066046 0.438985 0.994536 0.000000
H450  H     H_    0.023010 0.608178 0.099393 0.000000
H451  H     H_    0.002181 0.558240 0.188199 0.000000
C452  C     C_3   0.154577 0.381097 0.685531 0.000000
C453  C     C_3   0.102281 0.399056 0.691767 0.000000
C454  C     C_3   0.055299 0.384282 0.728025 0.000000
C455  C     C_R   0.096715 0.455585 0.718008 0.000000
N83   N     N_R   0.084192 0.483860 0.776271 0.000000
C456  C     C_R   0.125458 0.508968 0.772377 0.000000
C457  C     C_R   0.141484 0.532375 0.813073 0.000000
C458  C     C_R   0.190817 0.545990 0.797033 0.000000
C459  C     C_R   0.224963 0.533063 0.739941 0.000000
C460  C     C_R   0.208373 0.508622 0.699207 0.000000
C461  C     C_R   0.157883 0.498748 0.716554 0.000000
N84   N     N_R   0.138234 0.468585 0.681561 0.000000
C462  C     C_2   0.277726 0.546941 0.723436 0.000000
O83   O     O_2   0.292330 0.567853 0.759245 0.000000
O84   O     O_2   0.310184 0.537020 0.668881 0.000000
H452  H     H_    0.160933 0.409486 0.721117 0.000000
H453  H     H_    0.157647 0.343629 0.684541 0.000000
H454  H     H_    0.188588 0.378064 0.645881 0.000000
H455  H     H_    0.106446 0.383228 0.648519 0.000000
H456  H     H_    0.026494 0.378453 0.713987 0.000000
H457  H     H_    0.068688 0.346408 0.720952 0.000000
H458  H     H_    0.032649 0.415521 0.773418 0.000000
H459  H     H_    0.116982 0.539452 0.856475 0.000000
H460  H     H_    0.202840 0.565981 0.829372 0.000000
H461  H     H_    0.232793 0.500723 0.656044 0.000000
H462  H     H_    0.344785 0.546348 0.658298 0.000000
C463  C     C_3   0.148650 0.608860 0.723639 0.000000
C464  C     C_3   0.179713 0.606626 0.665837 0.000000
C465  C     C_3   0.238951 0.600964 0.645499 0.000000
C466  C     C_R   0.170698 0.569436 0.616035 0.000000
N85   N     N_R   0.192757 0.514306 0.583515 0.000000
C467  C     C_R   0.224450 0.507355 0.530258 0.000000
C468  C     C_R   0.263748 0.463991 0.483898 0.000000
C469  C     C_R   0.299423 0.467838 0.436165 0.000000
C470  C     C_R   0.297097 0.515643 0.437158 0.000000
C471  C     C_R   0.255893 0.558731 0.484188 0.000000
C472  C     C_R   0.218100 0.552760 0.529304 0.000000
N86   N     N_R   0.179133 0.591225 0.581465 0.000000
C473  C     C_2   0.340589 0.521101 0.390025 0.000000
O85   O     O_2   0.370741 0.481750 0.344176 0.000000
O86   O     O_2   0.349389 0.569428 0.398270 0.000000
H463  H     H_    0.118896 0.583450 0.724613 0.000000
H464  H     H_    0.176095 0.601583 0.735954 0.000000
H465  H     H_    0.129034 0.650297 0.758278 0.000000
H466  H     H_    0.166976 0.646566 0.675927 0.000000
H467  H     H_    0.259273 0.610180 0.610085 0.000000
H468  H     H_    0.245487 0.629188 0.681815 0.000000
H469  H     H_    0.257051 0.560018 0.628192 0.000000
H470  H     H_    0.268670 0.428909 0.485798 0.000000
H471  H     H_    0.331700 0.434482 0.400125 0.000000
H472  H     H_    0.255272 0.596854 0.487391 0.000000
H473  H     H_    0.378824 0.572702 0.367516 0.000000
C474  C     C_3   0.951427 0.659564 0.678652 0.000000
C475  C     C_3   0.008027 0.665664 0.657300 0.000000
C476  C     C_3   0.036867 0.615298 0.640428 0.000000
C477  C     C_R   0.032100 0.667977 0.604087 0.000000
N87   N     N_R   0.006923 0.652515 0.571252 0.000000
C478  C     C_R   0.047475 0.617617 0.518443 0.000000
C479  C     C_R   0.043877 0.581535 0.471341 0.000000
C480  C     C_R   0.087303 0.541502 0.424457 0.000000
C481  C     C_R   0.132833 0.536390 0.427336 0.000000
C482  C     C_R   0.134917 0.572687 0.476663 0.000000
C483  C     C_R   0.093542 0.615256 0.519509 0.000000
N88   N     N_R   0.086799 0.651709 0.571848 0.000000
C484  C     C_2   0.178498 0.492953 0.378453 0.000000
O87   O     O_2   0.217590 0.487199 0.382026 0.000000
O88   O     O_2   0.178086 0.460076 0.328807 0.000000
H474  H     H_    0.948514 0.622223 0.646188 0.000000
H475  H     H_    0.935840 0.659340 0.719604 0.000000
H476  H     H_    0.928799 0.693092 0.687383 0.000000
H477  H     H_    0.014361 0.698751 0.690031 0.000000
H478  H     H_    0.078132 0.616806 0.631134 0.000000
H479  H     H_    0.014754 0.609895 0.677848 0.000000
H480  H     H_    0.036914 0.582096 0.601621 0.000000
H481  H     H_    0.008386 0.585945 0.470760 0.000000
H482  H     H_    0.084579 0.513498 0.386570 0.000000
H483  H     H_    0.167256 0.567182 0.482434 0.000000
H484  H     H_    0.208666 0.432178 0.296341 0.000000
C485  C     C_3   0.043009 0.844840 0.707014 0.000000
C486  C     C_3   0.091624 0.802997 0.678122 0.000000
C487  C     C_3   0.143552 0.822073 0.659443 0.000000
C488  C     C_R   0.086420 0.782254 0.715912 0.000000
N89   N     N_R   0.057800 0.812131 0.776592 0.000000
C489  C     C_R   0.054868 0.774762 0.790396 0.000000
C490  C     C_R   0.027041 0.783077 0.845245 0.000000
C491  C     C_R   0.013975 0.741671 0.853202 0.000000
C492  C     C_R   0.023446 0.693427 0.806194 0.000000
C493  C     C_R   0.057988 0.683516 0.749921 0.000000
C494  C     C_R   0.076250 0.725281 0.742261 0.000000
N90   N     N_R   0.100360 0.728009 0.692572 0.000000
C495  C     C_2   0.984484 0.661369 0.818536 0.000000
O89   O     O_2   0.958716 0.669296 0.867845 0.000000
O90   O     O_2   0.965121 0.636962 0.782814 0.000000
H485  H     H_    0.050765 0.885250 0.722662 0.000000
H486  H     H_    0.031444 0.836851 0.674520 0.000000
H487  H     H_    0.008839 0.843084 0.743286 0.000000
H488  H     H_    0.093402 0.769189 0.638651 0.000000
H489  H     H_    0.166618 0.801013 0.611889 0.000000
H490  H     H_    0.137800 0.864476 0.673443 0.000000
H491  H     H_    0.166987 0.812643 0.675248 0.000000
H492  H     H_    0.007420 0.820785 0.881944 0.000000
H493  H     H_    0.985946 0.750717 0.896552 0.000000
H494  H     H_    0.068679 0.644611 0.714172 0.000000
H495  H     H_    0.932529 0.625105 0.797612 0.000000
C496  C     C_3   0.966861 0.774431 0.635238 0.000000
C497  C     C_3   0.925343 0.798316 0.698516 0.000000
C498  C     C_3   0.911111 0.857063 0.724312 0.000000
C499  C     C_R   0.875820 0.774725 0.711960 0.000000
N91   N     N_R   0.828804 0.801022 0.765558 0.000000
C500  C     C_R   0.795002 0.769483 0.756478 0.000000
C501  C     C_R   0.741842 0.778682 0.794243 0.000000
C502  C     C_R   0.711155 0.748728 0.772614 0.000000
C503  C     C_R   0.734333 0.707833 0.715405 0.000000
C504  C     C_R   0.789319 0.695784 0.679925 0.000000
C505  C     C_R   0.819200 0.727323 0.701214 0.000000
N92   N     N_R   0.871875 0.726314 0.672162 0.000000
C506  C     C_2   0.700799 0.673905 0.695481 0.000000
O91   O     O_2   0.653275 0.690924 0.719664 0.000000
O92   O     O_2   0.721397 0.622748 0.653496 0.000000
H496  H     H_    0.955185 0.743239 0.605585 0.000000
H497  H     H_    0.975556 0.806825 0.625732 0.000000
H498  H     H_    0.004517 0.759364 0.628685 0.000000
H499  H     H_    0.945923 0.793380 0.718340 0.000000
H500  H     H_    0.946435 0.875430 0.715000 0.000000
H501  H     H_    0.887794 0.865416 0.708371 0.000000
H502  H     H_    0.887124 0.874911 0.771182 0.000000
H503  H     H_    0.723419 0.810708 0.838417 0.000000
H504  H     H_    0.668904 0.757574 0.800839 0.000000
H505  H     H_    0.808336 0.661548 0.638042 0.000000
H506  H     H_    0.698424 0.599828 0.642966 0.000000
C507  C     C_3   0.860820 0.806584 0.884113 0.000000
C508  C     C_3   0.912218 0.816813 0.847643 0.000000
C509  C     C_3   0.938525 0.768630 0.789996 0.000000
C510  C     C_R   0.905851 0.867013 0.847011 0.000000
N93   N     N_R   0.854919 0.891912 0.868598 0.000000
C511  C     C_R   0.850316 0.940478 0.910726 0.000000
C512  C     C_R   0.804313 0.977766 0.955671 0.000000
C513  C     C_R   0.808474 0.026926 0.992249 0.000000
C514  C     C_R   0.857574 0.036530 0.986822 0.000000
C515  C     C_R   0.902051 0.995659 0.946143 0.000000
C516  C     C_R   0.898473 0.948306 0.906143 0.000000
N94   N     N_R   0.935842 0.902585 0.864729 0.000000
C517  C     C_2   0.861513 0.089125 0.026220 0.000000
O93   O     O_2   0.823003 0.125676 0.058944 0.000000
O94   O     O_2   0.907348 0.097369 0.026819 0.000000
H507  H     H_    0.832819 0.803338 0.867863 0.000000
H508  H     H_    0.868879 0.768535 0.881195 0.000000
H509  H     H_    0.844887 0.838375 0.929864 0.000000
H510  H     H_    0.937480 0.820861 0.866510 0.000000
H511  H     H_    0.975071 0.776893 0.762570 0.000000
H512  H     H_    0.948910 0.735727 0.794039 0.000000
H513  H     H_    0.909747 0.758719 0.774483 0.000000
H514  H     H_    0.765936 0.970528 0.960283 0.000000
H515  H     H_    0.773031 0.057360 0.025553 0.000000
H516  H     H_    0.937428 0.999616 0.948861 0.000000
H517  H     H_    0.909599 0.132004 0.052998 0.000000
C518  C     C_3   0.876280 0.993807 0.839021 0.000000
C519  C     C_3   0.820250 0.994116 0.853053 0.000000
C520  C     C_3   0.784734 0.048576 0.891053 0.000000
C521  C     C_R   0.819939 0.960094 0.799436 0.000000
N95   N     N_R   0.810512 0.979385 0.770170 0.000000
C522  C     C_R   0.774932 0.951451 0.758690 0.000000
C523  C     C_R   0.735313 0.968788 0.754620 0.000000
C524  C     C_R   0.696958 0.939034 0.751195 0.000000
C525  C     C_R   0.696092 0.894689 0.756815 0.000000
C526  C     C_R   0.731711 0.882678 0.770004 0.000000
C527  C     C_R   0.769469 0.913037 0.772873 0.000000
N96   N     N_R   0.797549 0.917798 0.799402 0.000000
C528  C     C_2   0.653466 0.865003 0.756049 0.000000
O95   O     O_2   0.621719 0.876403 0.745372 0.000000
O96   O     O_2   0.648924 0.825263 0.767408 0.000000
H518  H     H_    0.879022 0.026259 0.876163 0.000000
H519  H     H_    0.897337 0.955300 0.824163 0.000000
H520  H     H_    0.894141 0.995548 0.799677 0.000000
H521  H     H_    0.801250 0.973125 0.876058 0.000000
H522  H     H_    0.744542 0.044988 0.896275 0.000000
H523  H     H_    0.781308 0.067540 0.934485 0.000000
H524  H     H_    0.800925 0.074028 0.872812 0.000000
H525  H     H_    0.730753 0.007606 0.760190 0.000000
H526  H     H_    0.665782 0.952728 0.747770 0.000000
H527  H     H_    0.726555 0.854112 0.783258 0.000000
H528  H     H_    0.620621 0.806062 0.767158 0.000000
C529  C     C_3   0.022248 0.630983 0.408122 0.000000
C530  C     C_3   0.006569 0.685677 0.460897 0.000000
C531  C     C_3   0.039000 0.720497 0.439023 0.000000
C532  C     C_R   0.946082 0.702440 0.497152 0.000000
N97   N     N_R   0.912842 0.728378 0.489977 0.000000
C533  C     C_R   0.866307 0.714756 0.515162 0.000000
C534  C     C_R   0.817956 0.731406 0.524771 0.000000
C535  C     C_R   0.777965 0.704396 0.539482 0.000000
C536  C     C_R   0.788032 0.661019 0.543118 0.000000
C537  C     C_R   0.834288 0.651108 0.542718 0.000000
C538  C     C_R   0.870994 0.682407 0.533925 0.000000
N98   N     N_R   0.919039 0.677944 0.529392 0.000000
C539  C     C_2   0.751681 0.623872 0.543297 0.000000
O97   O     O_2   0.707774 0.635848 0.551627 0.000000
O98   O     O_2   0.767963 0.575053 0.530636 0.000000
H529  H     H_    0.028572 0.634103 0.371200 0.000000
H530  H     H_    0.060917 0.610324 0.394798 0.000000
H531  H     H_    0.990924 0.607912 0.416920 0.000000
H532  H     H_    0.020176 0.682802 0.488247 0.000000
H533  H     H_    0.053287 0.746704 0.468929 0.000000
H534  H     H_    0.075292 0.695531 0.396650 0.000000
H535  H     H_    0.016128 0.742981 0.433071 0.000000
H536  H     H_    0.812712 0.761173 0.515886 0.000000
H537  H     H_    0.741342 0.713847 0.541657 0.000000
H538  H     H_    0.842699 0.617552 0.545411 0.000000
H539  H     H_    0.744621 0.549972 0.528999 0.000000
C540  C     C_3   0.874616 0.827615 0.618932 0.000000
C541  C     C_3   0.915821 0.859540 0.601080 0.000000
C542  C     C_3   0.967860 0.826103 0.550010 0.000000
C543  C     C_R   0.894335 0.889638 0.585746 0.000000
N99   N     N_R   0.877495 0.862753 0.545045 0.000000
C544  C     C_R   0.829613 0.894847 0.573890 0.000000
C545  C     C_R   0.784266 0.879903 0.572952 0.000000
C546  C     C_R   0.737212 0.917433 0.610360 0.000000
C547  C     C_R   0.736432 0.969425 0.647291 0.000000
C548  C     C_R   0.780753 0.981417 0.653284 0.000000
C549  C     C_R   0.824652 0.941702 0.620021 0.000000
N100  N     N_R   0.864564 0.940043 0.630251 0.000000
C550  C     C_2   0.687614 0.010201 0.683678 0.000000
O99   O     O_2   0.647879 0.999152 0.679960 0.000000
O100  O     O_2   0.686583 0.060124 0.721077 0.000000
H540  H     H_    0.856780 0.811107 0.591042 0.000000
H541  H     H_    0.890714 0.795008 0.619240 0.000000
H542  H     H_    0.841293 0.854387 0.662572 0.000000
H543  H     H_    0.921747 0.887053 0.637937 0.000000
H544  H     H_    0.999382 0.848258 0.553277 0.000000
H545  H     H_    0.974416 0.789761 0.549811 0.000000
H546  H     H_    0.967004 0.816751 0.510609 0.000000
H547  H     H_    0.784791 0.840146 0.543748 0.000000
H548  H     H_    0.701722 0.906090 0.608465 0.000000
H549  H     H_    0.779733 0.019721 0.685907 0.000000
H550  H     H_    0.654461 0.086924 0.744903 0.000000
C551  C     C_3   0.171499 0.046904 0.593422 0.000000
C552  C     C_3   0.121108 0.089119 0.630320 0.000000
C553  C     C_3   0.075441 0.068306 0.624068 0.000000
C554  C     C_R   0.103633 0.114277 0.692492 0.000000
N101  N     N_R   0.105785 0.086818 0.718837 0.000000
C555  C     C_R   0.105507 0.126952 0.766598 0.000000
C556  C     C_R   0.119537 0.122605 0.802020 0.000000
C557  C     C_R   0.122371 0.167997 0.845207 0.000000
C558  C     C_R   0.114134 0.216971 0.850530 0.000000
C559  C     C_R   0.101728 0.220665 0.813030 0.000000
C560  C     C_R   0.097331 0.175164 0.771546 0.000000
N102  N     N_R   0.094936 0.168887 0.725361 0.000000
C561  C     C_2   0.122365 0.263842 0.893148 0.000000
O101  O     O_2   0.128212 0.261707 0.929623 0.000000
O102  O     O_2   0.125234 0.308884 0.891105 0.000000
H551  H     H_    0.192259 0.054044 0.618076 0.000000
H552  H     H_    0.163006 0.006773 0.579918 0.000000
H553  H     H_    0.198645 0.049118 0.554098 0.000000
H554  H     H_    0.129099 0.120011 0.618158 0.000000
H555  H     H_    0.048652 0.100725 0.633743 0.000000
H556  H     H_    0.086848 0.034475 0.581067 0.000000
H557  H     H_    0.056144 0.057110 0.657148 0.000000
H558  H     H_    0.129941 0.084531 0.795342 0.000000
H559  H     H_    0.133779 0.164278 0.872849 0.000000
H560  H     H_    0.098534 0.257532 0.814161 0.000000
H561  H     H_    0.131145 0.339469 0.918884 0.000000
C562  C     C_3   0.028221 0.026362 0.914505 0.000000
C563  C     C_3   0.009824 0.030927 0.876384 0.000000
C564  C     C_3   0.013210 0.086511 0.886944 0.000000
C565  C     C_R   0.041744 0.984667 0.814727 0.000000
N103  N     N_R   0.084589 0.993656 0.774265 0.000000
C566  C     C_R   0.125558 0.961941 0.762163 0.000000
C567  C     C_R   0.174440 0.973366 0.753425 0.000000
C568  C     C_R   0.209941 0.940435 0.749311 0.000000
C569  C     C_R   0.194611 0.898735 0.758832 0.000000
C570  C     C_R   0.141906 0.894005 0.778454 0.000000
C571  C     C_R   0.107908 0.928213 0.782722 0.000000
N104  N     N_R   0.054659 0.939035 0.813537 0.000000
C572  C     C_2   0.232325 0.864087 0.754830 0.000000
O103  O     O_2   0.277404 0.871596 0.742672 0.000000
O104  O     O_2   0.217188 0.824253 0.765294 0.000000
H562  H     H_    0.070815 0.028960 0.898232 0.000000
H563  H     H_    0.005075 0.058769 0.960247 0.000000
H564  H     H_    0.023285 0.989204 0.915593 0.000000
H565  H     H_    0.967972 0.029927 0.890038 0.000000
H566  H     H_    0.046943 0.086276 0.850442 0.000000
H567  H     H_    0.975277 0.105609 0.897128 0.000000
H568  H     H_    0.018455 0.111083 0.925087 0.000000
H569  H     H_    0.182602 0.010797 0.757634 0.000000
H570  H     H_    0.248789 0.949324 0.741501 0.000000
H571  H     H_    0.127206 0.866138 0.792675 0.000000
H572  H     H_    0.241683 0.802395 0.764138 0.000000
C573  C     C_3   0.989630 0.099588 0.798887 0.000000
C574  C     C_3   0.950935 0.063644 0.798797 0.000000
C575  C     C_3   0.896158 0.096501 0.829456 0.000000
C576  C     C_R   0.969487 0.019967 0.737440 0.000000
N105  N     N_R   0.937519 0.003668 0.711042 0.000000
C577  C     C_R   0.974646 0.975687 0.656154 0.000000
C578  C     C_R   0.967001 0.970157 0.613800 0.000000
C579  C     C_R   0.008306 0.946976 0.559094 0.000000
C580  C     C_R   0.057574 0.933143 0.549628 0.000000
C581  C     C_R   0.066244 0.954045 0.595956 0.000000
C582  C     C_R   0.023914 0.971276 0.648915 0.000000
N106  N     N_R   0.023597 0.997703 0.699420 0.000000
C583  C     C_2   0.100814 0.900623 0.491721 0.000000
O105  O     O_2   0.134469 0.921214 0.470116 0.000000
O106  O     O_2   0.108588 0.847423 0.465828 0.000000
H573  H     H_    0.001219 0.107549 0.763825 0.000000
H574  H     H_    0.973683 0.137131 0.841216 0.000000
H575  H     H_    0.024691 0.077313 0.789642 0.000000
H576  H     H_    0.952551 0.046339 0.823503 0.000000
H577  H     H_    0.874317 0.104840 0.874835 0.000000
H578  H     H_    0.899530 0.134890 0.832515 0.000000
H579  H     H_    0.874076 0.077252 0.806271 0.000000
H580  H     H_    0.930342 0.988808 0.625348 0.000000
H581  H     H_    0.001177 0.943549 0.526269 0.000000
H582  H     H_    0.104160 0.959028 0.592472 0.000000
H583  H     H_    0.084188 0.830287 0.484701 0.000000
C584  C     C_3   0.971774 0.921562 0.206795 0.000000
C585  C     C_3   0.029698 0.909831 0.185565 0.000000
C586  C     C_3   0.050160 0.851504 0.149104 0.000000
C587  C     C_R   0.058507 0.937764 0.153415 0.000000
N107  N     N_R   0.047887 0.941400 0.114947 0.000000
C588  C     C_R   0.079865 0.973157 0.100889 0.000000
C589  C     C_R   0.081981 0.993354 0.067419 0.000000
C590  C     C_R   0.118281 0.024951 0.057228 0.000000
C591  C     C_R   0.152268 0.035206 0.079813 0.000000
C592  C     C_R   0.147939 0.016103 0.115413 0.000000
C593  C     C_R   0.109260 0.986905 0.128061 0.000000
N108  N     N_R   0.095230 0.966633 0.164029 0.000000
C594  C     C_2   0.192411 0.066955 0.066651 0.000000
O107  O     O_2   0.196497 0.083684 0.035189 0.000000
O108  O     O_2   0.224878 0.077897 0.089291 0.000000
H584  H     H_    0.959937 0.894430 0.175008 0.000000
H585  H     H_    0.946669 0.926151 0.249819 0.000000
H586  H     H_    0.966053 0.960276 0.213785 0.000000
H587  H     H_    0.035988 0.924291 0.222664 0.000000
H588  H     H_    0.086511 0.842502 0.108346 0.000000
H589  H     H_    0.057914 0.838138 0.173410 0.000000
H590  H     H_    0.020291 0.830235 0.141296 0.000000
H591  H     H_    0.055350 0.986337 0.050543 0.000000
H592  H     H_    0.120190 0.040967 0.030868 0.000000
H593  H     H_    0.175958 0.022944 0.130621 0.000000
H594  H     H_    0.251123 0.098897 0.080622 0.000000
C595  C     C_3   0.971828 0.993014 0.335524 0.000000
C596  C     C_3   0.962145 0.047484 0.384747 0.000000
C597  C     C_3   0.964048 0.041394 0.430831 0.000000
C598  C     C_R   0.001703 0.077883 0.363438 0.000000
N109  N     N_R   0.048584 0.053579 0.308607 0.000000
C599  C     C_R   0.060156 0.095576 0.302353 0.000000
C600  C     C_R   0.101481 0.093553 0.254782 0.000000
C601  C     C_R   0.116926 0.139621 0.257955 0.000000
C602  C     C_R   0.102510 0.181226 0.312650 0.000000
C603  C     C_R   0.061546 0.180134 0.360629 0.000000
C604  C     C_R   0.030882 0.142145 0.351941 0.000000
N110  N     N_R   0.989239 0.133564 0.392034 0.000000
C605  C     C_2   0.137915 0.219034 0.318722 0.000000
O109  O     O_2   0.138099 0.244096 0.364390 0.000000
O110  O     O_2   0.172754 0.223778 0.272863 0.000000
H595  H     H_    0.010137 0.969962 0.319198 0.000000
H596  H     H_    0.940360 0.971565 0.349432 0.000000
H597  H     H_    0.972001 0.997782 0.301702 0.000000
H598  H     H_    0.922222 0.069060 0.402586 0.000000
H599  H     H_    0.002001 0.049263 0.429345 0.000000
H600  H     H_    0.930082 0.069224 0.474083 0.000000
H601  H     H_    0.961124 0.000536 0.422888 0.000000
H602  H     H_    0.124708 0.056136 0.219029 0.000000
H603  H     H_    0.150430 0.137852 0.220006 0.000000
H604  H     H_    0.062916 0.200016 0.400174 0.000000
H605  H     H_    0.197087 0.247558 0.276696 0.000000
C606  C     C_3   0.952480 0.763818 0.000258 0.000000
C607  C     C_3   0.932526 0.781750 0.063372 0.000000
C608  C     C_3   0.905660 0.740767 0.078416 0.000000
C609  C     C_R   0.979188 0.793321 0.072657 0.000000
N111  N     N_R   0.012387 0.750692 0.058072 0.000000
C610  C     C_R   0.060895 0.757577 0.026928 0.000000
C611  C     C_R   0.108633 0.723477 0.994875 0.000000
C612  C     C_R   0.154470 0.739873 0.968988 0.000000
C613  C     C_R   0.151575 0.790217 0.975758 0.000000
C614  C     C_R   0.102320 0.822779 0.005623 0.000000
C615  C     C_R   0.057581 0.804674 0.029059 0.000000
N112  N     N_R   0.006647 0.830513 0.060251 0.000000
C616  C     C_2   0.200333 0.808873 0.951205 0.000000
O111  O     O_2   0.243803 0.780301 0.924520 0.000000
O112  O     O_2   0.197317 0.857875 0.958520 0.000000
H606  H     H_    0.923435 0.745620 0.986529 0.000000
H607  H     H_    0.960392 0.798187 0.993829 0.000000
H608  H     H_    0.991120 0.736057 0.972174 0.000000
H609  H     H_    0.901762 0.816821 0.089652 0.000000
H610  H     H_    0.870705 0.760256 0.122628 0.000000
H611  H     H_    0.890692 0.716913 0.048906 0.000000
H612  H     H_    0.932387 0.712829 0.074499 0.000000
H613  H     H_    0.109930 0.684004 0.986927 0.000000
H614  H     H_    0.192417 0.713087 0.943813 0.000000
H615  H     H_    0.098844 0.861941 0.012455 0.000000
H616  H     H_    0.229436 0.870167 0.942509 0.000000

loop_
_geom_bond_atom_site_label_1
_geom_bond_atom_site_label_2
_geom_bond_distance
_geom_bond_site_symmetry_2
_ccdc_geom_bond_type
Zn1   N3    2.210 .      S
Zn1   N62   2.208 .      S
Zn1   N80   2.197 .      S
Zn1   N102  2.147 .      S
Zn2   N5    2.372 .      S
Zn2   N73   2.204 .      S
Zn2   N84   2.222 .      S
Zn2   N85   2.220 .      S
Zn3   N76   2.187 .      S
Zn3   N87   2.154 1_655  S
Zn3   N92   2.163 .      S
Zn3   N98   2.170 .      S
Zn4   N1    2.223 .      S
Zn4   N89   2.140 .      S
Zn4   N94   2.118 1_455  S
Zn4   N104  2.113 .      S
Zn5   N4    2.162 .      S
Zn5   N6    2.277 .      S
Zn5   N54   2.226 .      S
Zn5   N60   2.142 .      S
Zn6   N7    2.134 .      S
Zn6   N10   2.222 .      S
Zn6   N56   2.224 .      S
Zn6   N69   2.207 1_545  S
Zn7   N63   2.150 .      S
Zn7   N95   2.098 1_545  S
Zn7   N100  2.178 1_545  S
Zn7   N105  2.196 .      S
Zn8   N9    2.190 .      S
Zn8   N66   2.107 .      S
Zn8   N78   2.231 .      S
Zn8   N110  2.260 .      S
Zn9   N2    2.147 1_655  S
Zn9   N8    2.060 .      S
Zn9   N107  2.050 1_655  S
Zn9   N112  2.127 1_655  S
Zn10  N12   2.117 .      S
Zn10  N13   2.142 .      S
Zn10  N15   2.175 .      S
Zn10  N18   2.292 .      S
Zn11  N11   2.216 .      S
Zn11  N19   2.315 .      S
Zn11  N22   2.215 .      S
Zn11  N24   2.275 .      S
Zn12  N14   2.229 .      S
Zn12  N25   2.138 .      S
Zn12  N27   2.133 .      S
Zn12  N30   2.157 .      S
Zn13  N16   2.112 .      S
Zn13  N32   2.145 .      S
Zn13  N34   2.105 .      S
Zn13  N35   2.130 1_554  S
Zn14  N17   2.301 .      S
Zn14  N37   2.180 .      S
Zn14  N40   2.142 .      S
Zn14  N42   2.182 .      S
Zn15  N28   2.143 .      S
Zn15  N43   2.180 .      S
Zn15  N45   2.117 .      S
Zn15  N48   2.202 .      S
Zn16  N23   2.306 .      S
Zn16  N29   2.129 .      S
Zn16  N50   2.241 .      S
Zn16  N51   2.231 .      S
Zn17  N20   2.284 1_545  S
Zn17  N31   2.242 .      S
Zn17  N53   2.290 .      S
Zn17  N55   2.251 .      S
Zn18  N26   2.179 .      S
Zn18  N33   2.108 .      S
Zn18  N58   2.128 .      S
Zn18  N59   2.170 1_565  S
Zn19  N38   2.208 .      S
Zn19  N61   2.041 .      S
Zn19  N64   2.062 .      S
Zn19  N65   2.197 .      S
Zn20  N21   2.181 .      S
Zn20  N67   2.152 .      S
Zn20  N70   2.266 .      S
Zn20  N71   2.282 .      S
Zn21  N39   2.315 .      S
Zn21  N74   2.349 1_655  S
Zn21  N75   2.229 .      S
Zn21  N77   2.281 .      S
Zn22  N41   2.162 1_455  S
Zn22  N79   2.145 .      S
Zn22  N81   2.172 .      S
Zn22  N83   2.213 .      S
Zn23  N49   2.208 .      S
Zn23  N86   2.204 .      S
Zn23  N88   2.136 .      S
Zn23  N90   2.199 .      S
Zn24  N36   2.182 .      S
Zn24  N91   2.092 .      S
Zn24  N93   2.104 .      S
Zn24  N96   2.080 .      S
Zn25  N47   2.150 .      S
Zn25  N72   2.209 .      S
Zn25  N97   2.187 .      S
Zn25  N99   2.237 .      S
Zn26  N52   2.231 1_545  S
Zn26  N101  2.199 .      S
Zn26  N103  2.193 1_545  S
Zn26  N106  2.174 1_545  S
Zn27  N44   2.048 .      S
Zn27  N57   2.178 .      S
Zn27  N108  2.105 .      S
Zn27  N109  2.223 1_565  S
Zn28  N46   2.106 1_655  S
Zn28  N68   2.164 .      S
Zn28  N82   2.133 1_655  S
Zn28  N111  2.118 1_655  S
C1    C2    1.512 .      S
C1    H1    1.101 .      S
C1    H2    1.109 .      S
C1    H3    1.109 .      S
C2    C3    1.511 .      S
C2    C4    1.489 .      S
C2    H4    1.096 .      S
C3    H5    1.100 .      S
C3    H6    1.106 .      S
C3    H7    1.106 .      S
C6    H8    1.057 .      S
C7    H9    1.080 .      S
C8    C11   1.460 1_565  S
C9    H10   1.062 1_565  S
N2    Zn9   2.147 1_455  S
C11   C8    1.460 1_545  S
C11   O2    1.341 .      S
O2    H11   0.965 .      S
H10   C9    1.062 1_545  S
C12   C13   1.508 .      S
C12   H12   1.103 .      S
C12   H13   1.103 .      S
C12   H14   1.106 .      S
C13   C14   1.453 .      S
C13   C15   1.462 .      S
C13   H15   1.105 .      S
C14   H16   1.096 .      S
C14   H17   1.087 .      S
C14   H18   1.062 .      S
C17   H19   1.059 .      S
C18   H20   1.078 .      S
C19   C22   1.441 .      S
C20   H21   1.069 .      S
C22   O4    1.347 .      S
O4    H22   0.965 .      S
C23   C24   1.488 .      S
C23   H23   1.093 .      S
C23   H24   1.103 .      S
C23   H25   1.108 .      S
C24   C25   1.517 .      S
C24   C26   1.490 .      S
C24   H26   1.107 .      S
C25   H27   1.108 .      S
C25   H28   1.109 .      S
C25   H29   1.105 .      S
C28   H30   1.075 .      S
C29   H31   1.079 .      S
C30   C33   1.468 .      S
C31   H32   1.075 .      S
C33   O6    1.345 .      S
O6    H33   0.966 .      S
C34   C35   1.513 .      S
C34   H34   1.101 .      S
C34   H35   1.101 .      S
C34   H36   1.105 .      S
C35   C36   1.517 .      S
C35   C37   1.524 1_545  S
C35   H37   1.101 .      S
C36   H38   1.102 .      S
C36   H39   1.105 .      S
C36   H40   1.098 .      S
C37   C35   1.524 1_565  S
C39   H41   1.062 .      S
C40   H42   1.073 .      S
C41   C44   1.462 .      S
C42   H43   1.072 .      S
C44   O8    1.343 1_554  S
O8    C44   1.343 1_556  S
O8    H44   0.964 .      S
C45   C46   1.506 .      S
C45   H45   1.104 .      S
C45   H46   1.094 .      S
C45   H47   1.096 .      S
C46   C47   1.520 .      S
C46   C48   1.500 .      S
C46   H48   1.100 .      S
C47   H49   1.106 .      S
C47   H50   1.106 .      S
C47   H51   1.098 .      S
C50   H52   1.077 .      S
C51   H53   1.080 .      S
C52   C55   1.467 .      S
C53   H54   1.078 .      S
C55   O10   1.342 .      S
O10   H55   0.966 .      S
C56   C57   1.517 .      S
C56   H56   1.106 .      S
C56   H57   1.104 .      S
C56   H58   1.101 .      S
C57   C58   1.497 .      S
C57   C59   1.480 .      S
C57   H59   1.090 .      S
C58   H60   1.090 .      S
C58   H61   1.093 .      S
C58   H62   1.104 .      S
C61   H63   1.058 .      S
C62   H64   1.079 .      S
C63   C66   1.459 .      S
C64   H65   1.079 .      S
C66   O12   1.340 .      S
O12   H66   0.966 1_554  S
H66   O12   0.966 1_556  S
C67   C68   1.480 .      S
C67   H67   1.100 .      S
C67   H68   1.107 .      S
C67   H69   1.089 .      S
C68   C69   1.514 .      S
C68   C70   1.496 .      S
C68   H70   1.089 .      S
C69   H71   1.098 .      S
C69   H72   1.107 .      S
C69   H73   1.108 .      S
C72   H74   1.074 .      S
C73   H75   1.081 .      S
C74   C77   1.467 .      S
C75   H76   1.064 .      S
C77   O14   1.345 .      S
O14   H77   0.966 .      S
C78   C79   1.502 .      S
C78   H78   1.098 .      S
C78   H79   1.100 .      S
C78   H80   1.090 .      S
C79   C80   1.504 .      S
C79   C81   1.433 .      S
C79   H81   1.082 .      S
C80   H82   1.108 .      S
C80   H83   1.079 .      S
C80   H84   1.105 .      S
C83   H85   1.070 .      S
C84   H86   1.081 .      S
C85   C88   1.466 .      S
C86   H87   1.077 .      S
C88   O16   1.347 .      S
O16   H88   0.966 .      S
C89   C90   1.519 .      S
C89   H89   1.109 .      S
C89   H90   1.108 .      S
C89   H91   1.105 .      S
C90   C91   1.468 1_554  S
C90   C92   1.474 1_554  S
C90   H92   1.072 .      S
C91   C90   1.468 1_556  S
C91   H93   1.107 .      S
C91   H94   1.109 1_556  S
C91   H95   1.080 .      S
C92   C90   1.474 1_556  S
C94   H96   1.064 .      S
C95   H97   1.081 .      S
C96   C99   1.467 .      S
C97   H98   1.076 .      S
C99   O18   1.342 .      S
O18   H99   0.966 .      S
H94   C91   1.109 1_554  S
C100  C101  1.483 .      S
C100  H100  1.097 .      S
C100  H101  1.088 .      S
C100  H102  1.063 .      S
C101  C102  1.445 .      S
C101  C103  1.464 .      S
C101  H103  1.083 .      S
C102  H104  1.103 .      S
C102  H105  1.096 .      S
C102  H106  1.071 .      S
C105  H107  1.054 .      S
C106  H108  1.081 .      S
C107  C110  1.465 .      S
C108  H109  1.054 .      S
N20   Zn17  2.284 1_565  S
C110  O20   1.346 .      S
O20   H110  0.966 .      S
C111  C112  1.514 .      S
C111  H111  1.107 .      S
C111  H112  1.101 .      S
C111  H113  1.105 .      S
C112  C113  1.519 .      S
C112  C114  1.517 .      S
C112  H114  1.104 .      S
C113  H115  1.108 .      S
C113  H116  1.107 .      S
C113  H117  1.098 .      S
C116  H118  1.063 .      S
C117  H119  1.080 .      S
C118  C121  1.469 .      S
C119  H120  1.076 .      S
C121  O22   1.341 .      S
O22   H121  0.966 .      S
C122  C123  1.475 .      S
C122  H122  1.100 .      S
C122  H123  1.106 .      S
C122  H124  1.093 .      S
C123  C124  1.506 .      S
C123  C125  1.477 .      S
C123  H125  1.080 .      S
C124  H126  1.105 .      S
C124  H127  1.096 .      S
C124  H128  1.101 .      S
C127  H129  1.071 .      S
C128  H130  1.080 .      S
C129  C132  1.467 .      S
C130  H131  1.079 .      S
C132  O24   1.345 .      S
O24   H132  0.966 .      S
C133  C134  1.523 .      S
C133  H133  1.095 .      S
C133  H134  1.103 .      S
C133  H135  1.106 .      S
C134  C135  1.498 .      S
C134  C136  1.472 .      S
C134  H136  1.104 .      S
C135  H137  1.105 .      S
C135  H138  1.108 .      S
C135  H139  1.098 .      S
C138  H140  1.076 .      S
C139  H141  1.072 .      S
C140  C143  1.452 .      S
C141  H142  1.060 .      S
C143  O26   1.344 .      S
O26   H143  0.961 1_565  S
H143  O26   0.961 1_545  S
C144  C145  1.517 .      S
C144  H144  1.094 .      S
C144  H145  1.109 .      S
C144  H146  1.109 .      S
C145  C146  1.492 .      S
C145  C147  1.481 .      S
C145  H147  1.091 .      S
C146  H148  1.100 .      S
C146  H149  1.104 .      S
C146  H150  1.104 .      S
C149  H151  1.065 .      S
C150  H152  1.081 .      S
C151  C154  1.469 .      S
C152  H153  1.073 .      S
C154  O28   1.346 .      S
O28   H154  0.966 .      S
C155  C156  1.485 .      S
C155  H155  1.104 .      S
C155  H156  1.107 .      S
C155  H157  1.090 .      S
C156  C157  1.480 .      S
C156  C158  1.487 .      S
C156  H158  1.083 .      S
C157  H159  1.099 .      S
C157  H160  1.106 .      S
C157  H161  1.098 .      S
C160  H162  1.069 .      S
C161  H163  1.079 .      S
C162  C165  1.466 .      S
C163  H164  1.075 .      S
C165  O30   1.346 .      S
O30   H165  0.966 .      S
C166  C167  1.462 .      S
C166  H166  1.067 .      S
C166  H167  1.105 .      S
C166  H168  1.072 .      S
C167  C168  1.504 1_565  S
C167  C169  1.444 .      S
C167  H169  1.092 .      S
C168  C167  1.504 1_545  S
C168  H170  1.106 .      S
C168  H171  1.105 .      S
C168  H172  1.107 .      S
C171  H173  1.054 .      S
C172  H174  1.081 .      S
C173  C176  1.466 .      S
C174  H175  1.075 .      S
C176  O32   1.346 .      S
O32   H176  0.965 .      S
C177  C178  1.481 .      S
C177  H177  1.093 .      S
C177  H178  1.085 .      S
C177  H179  1.083 .      S
C178  C179  1.509 .      S
C178  C180  1.459 .      S
C178  H180  1.099 .      S
C179  H181  1.107 .      S
C179  H182  1.098 .      S
C179  H183  1.097 .      S
C182  H184  1.079 .      S
C183  H185  1.081 .      S
C184  C187  1.467 .      S
C185  H186  1.075 .      S
C187  O34   1.345 .      S
O34   H187  0.966 .      S
C188  C189  1.508 1_554  S
C188  H188  1.103 .      S
C188  H189  1.102 .      S
C188  H190  1.103 .      S
C189  C188  1.508 1_556  S
C189  C190  1.508 .      S
C189  C191  1.471 .      S
C189  H191  1.089 .      S
C190  H192  1.109 .      S
C190  H193  1.105 .      S
C190  H194  1.094 1_556  S
N35   Zn13  2.130 1_556  S
C193  H195  1.072 1_556  S
C194  H196  1.081 .      S
C195  C198  1.467 1_565  S
C196  H197  1.067 .      S
C198  C195  1.467 1_545  S
C198  O36   1.345 .      S
O36   H198  0.966 .      S
H194  C190  1.094 1_554  S
H195  C193  1.072 1_554  S
C199  C200  1.482 .      S
C199  H199  1.080 .      S
C199  H200  1.086 .      S
C199  H201  1.093 .      S
C200  C201  1.520 .      S
C200  C202  1.476 .      S
C200  H202  1.072 .      S
C201  H203  1.101 .      S
C201  H204  1.106 .      S
C201  H205  1.107 .      S
C204  H206  1.075 .      S
C205  H207  1.081 .      S
C206  C209  1.468 .      S
C207  H208  1.077 .      S
C209  O38   1.346 .      S
O38   H209  0.966 .      S
C210  C211  1.511 .      S
C210  H210  1.108 .      S
C210  H211  1.102 .      S
C210  H212  1.100 .      S
C211  C212  1.467 .      S
C211  C213  1.483 .      S
C211  H213  1.101 .      S
C212  H214  1.100 .      S
C212  H215  1.103 .      S
C212  H216  1.103 .      S
C215  H217  1.062 .      S
C216  H218  1.076 .      S
C217  C220  1.457 .      S
C218  H219  1.062 .      S
C220  O40   1.344 .      S
O40   H220  0.965 .      S
C221  C222  1.492 .      S
C221  H221  1.089 .      S
C221  H222  1.098 .      S
C221  H223  1.096 .      S
C222  C223  1.474 .      S
C222  C224  1.456 .      S
C222  H224  1.092 .      S
C223  H225  1.074 .      S
C223  H226  1.081 .      S
C223  H227  1.088 .      S
N41   Zn22  2.162 1_655  S
C226  H228  1.071 .      S
C227  H229  1.076 .      S
C228  C231  1.468 .      S
C229  H230  1.080 .      S
C231  O42   1.346 .      S
O42   H231  0.966 .      S
C232  C233  1.498 .      S
C232  H232  1.092 .      S
C232  H233  1.104 .      S
C232  H234  1.098 .      S
C233  C234  1.487 .      S
C233  C235  1.508 .      S
C233  H235  1.104 .      S
C234  H236  1.090 .      S
C234  H237  1.098 .      S
C234  H238  1.109 .      S
C237  H239  1.048 .      S
C238  H240  1.059 .      S
C239  C242  1.449 1_565  S
C240  H241  1.067 1_565  S
C242  C239  1.449 1_545  S
C242  O44   1.347 .      S
O44   H242  0.963 .      S
H241  C240  1.067 1_545  S
C243  C244  1.518 1_655  S
C243  H243  1.090 .      S
C243  H244  1.107 .      S
C243  H245  1.103 .      S
C244  C243  1.518 1_455  S
C244  C245  1.508 .      S
C244  C246  1.460 .      S
C244  H246  1.084 1_455  S
C245  H247  1.094 .      S
C245  H248  1.090 1_455  S
C245  H249  1.058 .      S
C248  H250  1.073 .      S
C249  H251  1.081 1_554  S
C250  C253  1.462 .      S
C251  H252  1.069 1_554  S
N46   Zn28  2.106 1_455  S
C253  O46   1.343 .      S
O46   H253  0.963 .      S
H246  C244  1.084 1_655  S
H248  C245  1.090 1_655  S
H251  C249  1.081 1_556  S
H252  C251  1.069 1_556  S
C254  C255  1.499 1_655  S
C254  H254  1.091 .      S
C254  H255  1.106 .      S
C254  H256  1.102 .      S
C255  C254  1.499 1_455  S
C255  C256  1.477 .      S
C255  C257  1.471 .      S
C255  H257  1.092 .      S
C256  H258  1.094 .      S
C256  H259  1.090 .      S
C256  H260  1.100 .      S
C259  H261  1.068 .      S
C260  H262  1.080 1_455  S
C261  C264  1.468 .      S
C262  H263  1.070 .      S
C264  O48   1.343 .      S
O48   H264  0.966 .      S
H262  C260  1.080 1_655  S
C265  C266  1.504 .      S
C265  H265  1.085 .      S
C265  H266  1.109 .      S
C265  H267  1.098 .      S
C266  C267  1.518 .      S
C266  C268  1.508 .      S
C266  H268  1.102 .      S
C267  H269  1.099 .      S
C267  H270  1.103 .      S
C267  H271  1.104 .      S
C270  H272  1.072 .      S
C271  H273  1.080 .      S
C272  C275  1.465 .      S
C273  H274  1.078 .      S
C275  O50   1.344 .      S
O50   H275  0.965 .      S
C276  C277  1.460 .      S
C276  H276  1.101 .      S
C276  H277  1.076 .      S
C276  H278  1.074 .      S
C277  C278  1.512 .      S
C277  C279  1.484 .      S
C277  H279  1.074 .      S
C278  H280  1.106 .      S
C278  H281  1.105 .      S
C278  H282  1.097 .      S
C281  H283  1.074 .      S
C282  H284  1.079 .      S
C283  C286  1.469 .      S
C284  H285  1.072 .      S
N52   Zn26  2.231 1_565  S
C286  O52   1.345 .      S
O52   H286  0.966 .      S
C287  C288  1.472 .      S
C287  H287  1.102 .      S
C287  H288  1.109 .      S
C287  H289  1.093 .      S
C288  C289  1.519 .      S
C288  C290  1.486 .      S
C288  H290  1.079 .      S
C289  H291  1.100 .      S
C289  H292  1.107 .      S
C289  H293  1.106 .      S
C292  H294  1.077 .      S
C293  H295  1.081 .      S
C294  C297  1.468 .      S
C295  H296  1.076 .      S
C297  O54   1.346 .      S
O54   H297  0.966 .      S
C298  C299  1.507 .      S
C298  H298  1.094 .      S
C298  H299  1.100 .      S
C298  H300  1.098 .      S
C299  C300  1.519 .      S
C299  C301  1.497 .      S
C299  H301  1.108 .      S
C300  H302  1.101 .      S
C300  H303  1.107 .      S
C300  H304  1.107 .      S
C303  H305  1.079 .      S
C304  H306  1.081 .      S
C305  C308  1.467 .      S
C306  H307  1.071 .      S
C308  O56   1.347 .      S
O56   H308  0.966 .      S
C309  C310  1.511 .      S
C309  H309  1.096 .      S
C309  H310  1.104 .      S
C309  H311  1.104 .      S
C310  C311  1.500 .      S
C310  C312  1.488 .      S
C310  H312  1.083 .      S
C311  H313  1.103 .      S
C311  H314  1.109 .      S
C311  H315  1.087 .      S
C314  H316  1.067 .      S
C315  H317  1.080 .      S
C316  C319  1.469 1_554  S
C317  H318  1.073 .      S
C319  C316  1.469 1_556  S
C319  O58   1.346 .      S
O58   H319  0.966 .      S
C320  C321  1.503 .      S
C320  H320  1.090 .      S
C320  H321  1.108 .      S
C320  H322  1.103 .      S
C321  C322  1.510 .      S
C321  C323  1.495 .      S
C321  H323  1.106 .      S
C322  H324  1.109 .      S
C322  H325  1.094 .      S
C322  H326  1.108 .      S
N59   Zn18  2.170 1_545  S
C325  H327  1.069 1_545  S
C326  H328  1.074 1_545  S
C327  C330  1.420 .      S
C328  H329  1.040 .      S
C330  O60   1.339 .      S
O60   H330  0.959 .      S
H327  C325  1.069 1_565  S
H328  C326  1.074 1_565  S
C331  C332  1.520 .      S
C331  H331  1.084 .      S
C331  H332  1.099 .      S
C331  H333  1.107 .      S
C332  C333  1.517 .      S
C332  C334  1.475 .      S
C332  H334  1.097 .      S
C333  H335  1.083 .      S
C333  H336  1.091 .      S
C333  H337  1.106 .      S
C336  H338  1.062 .      S
C337  H339  1.049 .      S
C338  C341  1.427 .      S
C339  H340  1.023 .      S
C341  O62   1.324 .      S
O62   H341  0.953 .      S
C342  C343  1.501 .      S
C342  H342  1.094 .      S
C342  H343  1.108 .      S
C342  H344  1.106 .      S
C343  C344  1.512 .      S
C343  C345  1.489 .      S
C343  H345  1.087 .      S
C344  H346  1.105 .      S
C344  H347  1.108 .      S
C344  H348  1.099 .      S
C347  H349  1.070 .      S
C348  H350  1.081 .      S
C349  C352  1.468 .      S
C350  H351  1.073 .      S
C352  O64   1.347 .      S
O64   H352  0.966 .      S
C353  C354  1.499 .      S
C353  H353  1.106 .      S
C353  H354  1.099 1_655  S
C353  H355  1.108 1_655  S
C354  C355  1.504 .      S
C354  C356  1.493 .      S
C354  H356  1.091 .      S
C355  H357  1.102 .      S
C355  H358  1.103 1_655  S
C355  H359  1.088 .      S
C358  H360  1.062 .      S
C359  H361  1.080 .      S
C360  C363  1.468 .      S
C361  H362  1.062 .      S
C363  O66   1.346 .      S
O66   H363  0.966 .      S
H354  C353  1.099 1_455  S
H355  C353  1.108 1_455  S
H358  C355  1.103 1_455  S
C364  C365  1.486 .      S
C364  H364  1.098 .      S
C364  H365  1.107 .      S
C364  H366  1.085 .      S
C365  C366  1.487 .      S
C365  C367  1.474 .      S
C365  H367  1.092 .      S
C366  H368  1.096 .      S
C366  H369  1.083 .      S
C366  H370  1.087 .      S
C369  H371  1.060 .      S
C370  H372  1.081 .      S
C371  C374  1.466 .      S
C372  H373  1.061 .      S
C374  O68   1.343 .      S
O68   H374  0.966 .      S
C375  C376  1.504 .      S
C375  H375  1.092 .      S
C375  H376  1.091 .      S
C375  H377  1.109 .      S
C376  C377  1.478 .      S
C376  C378  1.439 .      S
C376  H378  1.100 .      S
C377  H379  1.069 .      S
C377  H380  1.087 .      S
C377  H381  1.102 .      S
N69   Zn6   2.207 1_565  S
C380  H382  1.071 .      S
C381  H383  1.070 .      S
C382  C385  1.439 .      S
C383  H384  1.077 .      S
C385  O70   1.340 1_545  S
O70   C385  1.340 1_565  S
O70   H385  0.957 .      S
C386  C387  1.471 .      S
C386  H386  1.086 .      S
C386  H387  1.096 .      S
C386  H388  1.090 .      S
C387  C388  1.502 .      S
C387  C389  1.424 .      S
C387  H389  1.083 .      S
C388  H390  1.105 .      S
C388  H391  1.094 .      S
C388  H392  1.095 .      S
C391  H393  1.074 .      S
C392  H394  1.081 .      S
C393  C396  1.468 .      S
C394  H395  1.071 .      S
C396  O72   1.346 .      S
O72   H396  0.966 .      S
C397  C398  1.481 .      S
C397  H397  1.071 .      S
C397  H398  1.100 .      S
C397  H399  1.099 .      S
C398  C399  1.459 1_455  S
C398  C400  1.433 .      S
C398  H400  1.082 .      S
C399  C398  1.459 1_655  S
C399  H401  1.077 .      S
C399  H402  1.086 .      S
C399  H403  1.101 .      S
C402  H404  1.071 .      S
C403  H405  1.080 .      S
C404  C407  1.468 .      S
C405  H406  1.057 .      S
N74   Zn21  2.349 1_455  S
C407  O74   1.346 .      S
O74   H407  0.966 .      S
C408  C409  1.517 .      S
C408  H408  1.104 .      S
C408  H409  1.108 .      S
C408  H410  1.105 .      S
C409  C410  1.511 .      S
C409  C411  1.535 .      S
C409  H411  1.103 .      S
C410  H412  1.106 .      S
C410  H413  1.094 .      S
C410  H414  1.097 .      S
C413  H415  1.062 .      S
C414  H416  1.080 .      S
C415  C418  1.469 .      S
C416  H417  1.073 .      S
C418  O76   1.346 .      S
O76   H418  0.966 .      S
C419  C420  1.526 1_455  S
C419  H419  1.094 1_455  S
C419  H420  1.097 .      S
C419  H421  1.107 1_455  S
C420  C419  1.526 1_655  S
C420  C421  1.489 1_655  S
C420  C422  1.429 .      S
C420  H422  1.092 .      S
C421  C420  1.489 1_455  S
C421  H423  1.100 .      S
C421  H424  1.102 .      S
C421  H425  1.097 .      S
C424  H426  1.061 .      S
C425  H427  1.081 .      S
C426  C429  1.469 .      S
C427  H428  1.068 .      S
C429  O78   1.347 .      S
O78   H429  0.966 .      S
H419  C419  1.094 1_655  S
H421  C419  1.107 1_655  S
C430  C431  1.480 .      S
C430  H430  1.104 1_655  S
C430  H431  1.107 .      S
C430  H432  1.099 .      S
C431  C432  1.519 1_655  S
C431  C433  1.485 1_655  S
C431  H433  1.091 .      S
C432  C431  1.519 1_455  S
C432  H434  1.107 1_455  S
C432  H435  1.108 1_455  S
C432  H436  1.103 .      S
C433  C431  1.485 1_455  S
C435  H437  1.073 .      S
C436  H438  1.078 .      S
C437  C440  1.468 .      S
C438  H439  1.046 .      S
C440  O80   1.345 .      S
O80   H440  0.965 .      S
H430  C430  1.104 1_455  S
H434  C432  1.107 1_655  S
H435  C432  1.108 1_655  S
C441  C442  1.506 1_455  S
C441  H441  1.094 .      S
C441  H442  1.100 .      S
C441  H443  1.107 .      S
C442  C441  1.506 1_655  S
C442  C443  1.507 .      S
C442  C444  1.464 1_655  S
C442  H444  1.088 .      S
C443  H445  1.108 1_556  S
C443  H446  1.106 .      S
C443  H447  1.091 .      S
C444  C442  1.464 1_455  S
C446  H448  1.060 .      S
C447  H449  1.081 1_554  S
C448  C451  1.463 .      S
C449  H450  1.077 .      S
N82   Zn28  2.133 1_455  S
C451  O82   1.346 .      S
O82   H451  0.964 .      S
H445  C443  1.108 1_554  S
H449  C447  1.081 1_556  S
C452  C453  1.537 .      S
C452  H452  1.092 .      S
C452  H453  1.092 .      S
C452  H454  1.104 .      S
C453  C454  1.491 .      S
C453  C455  1.435 .      S
C453  H455  1.102 .      S
C454  H456  1.073 .      S
C454  H457  1.087 .      S
C454  H458  1.089 .      S
C457  H459  1.073 .      S
C458  H460  1.079 .      S
C459  C462  1.469 .      S
C460  H461  1.059 .      S
C462  O84   1.345 .      S
O84   H462  0.966 .      S
C463  C464  1.512 .      S
C463  H463  1.102 .      S
C463  H464  1.093 .      S
C463  H465  1.101 .      S
C464  C465  1.521 .      S
C464  C466  1.511 .      S
C464  H466  1.100 .      S
C465  H467  1.108 .      S
C465  H468  1.109 .      S
C465  H469  1.103 .      S
C468  H470  1.078 .      S
C469  H471  1.081 .      S
C470  C473  1.467 .      S
C471  H472  1.075 .      S
C473  O86   1.344 .      S
O86   H473  0.966 .      S
C474  C475  1.493 1_655  S
C474  H474  1.098 .      S
C474  H475  1.103 .      S
C474  H476  1.068 .      S
C475  C474  1.493 1_455  S
C475  C476  1.478 .      S
C475  C477  1.455 .      S
C475  H477  1.087 .      S
C476  H478  1.098 .      S
C476  H479  1.091 .      S
C476  H480  1.109 .      S
N87   Zn3   2.154 1_455  S
C479  H481  1.056 .      S
C480  H482  1.081 .      S
C481  C484  1.467 .      S
C482  H483  1.067 .      S
C484  O88   1.346 .      S
O88   H484  0.966 .      S
C485  C486  1.520 .      S
C485  H485  1.098 .      S
C485  H486  1.099 .      S
C485  H487  1.102 .      S
C486  C487  1.516 .      S
C486  C488  1.476 .      S
C486  H488  1.107 .      S
C487  H489  1.095 .      S
C487  H490  1.100 .      S
C487  H491  1.105 .      S
C490  H492  1.047 .      S
C491  H493  1.070 1_455  S
C492  C495  1.449 1_455  S
C493  H494  1.058 .      S
C495  C492  1.449 1_655  S
C495  O90   1.330 .      S
O90   H495  0.962 .      S
H493  C491  1.070 1_655  S
C496  C497  1.506 .      S
C496  H496  1.102 .      S
C496  H497  1.099 .      S
C496  H498  1.099 1_655  S
C497  C498  1.501 .      S
C497  C499  1.517 .      S
C497  H499  1.079 .      S
C498  H500  1.106 .      S
C498  H501  1.090 .      S
C498  H502  1.086 .      S
C501  H503  1.072 .      S
C502  H504  1.073 .      S
C503  C506  1.466 .      S
C504  H505  1.057 .      S
C506  O92   1.344 .      S
O92   H506  0.966 .      S
H498  C496  1.099 1_455  S
C507  C508  1.499 .      S
C507  H507  1.109 .      S
C507  H508  1.107 .      S
C507  H509  1.104 .      S
C508  C509  1.469 .      S
C508  C510  1.504 .      S
C508  H510  1.092 .      S
C509  H511  1.097 .      S
C509  H512  1.104 .      S
C509  H513  1.098 .      S
C512  H514  1.076 .      S
C513  H515  1.078 1_556  S
C514  C517  1.469 1_556  S
C515  H516  1.063 .      S
N94   Zn4   2.118 1_655  S
C517  C514  1.469 1_554  S
C517  O94   1.344 .      S
O94   H517  0.966 .      S
H515  C513  1.078 1_554  S
C518  C519  1.476 .      S
C518  H518  1.106 1_565  S
C518  H519  1.095 .      S
C518  H520  1.076 .      S
C519  C520  1.512 1_565  S
C519  C521  1.444 .      S
C519  H521  1.081 .      S
C520  C519  1.512 1_545  S
C520  H522  1.107 .      S
C520  H523  1.108 .      S
C520  H524  1.088 .      S
N95   Zn7   2.098 1_565  S
C523  H525  1.075 1_565  S
C524  H526  1.080 .      S
C525  C528  1.468 .      S
C526  H527  1.063 .      S
C528  O96   1.345 .      S
O96   H528  0.966 .      S
H518  C518  1.106 1_545  S
H525  C523  1.075 1_545  S
C529  C530  1.514 .      S
C529  H529  1.089 .      S
C529  H530  1.106 .      S
C529  H531  1.104 1_455  S
C530  C531  1.515 .      S
C530  C532  1.525 1_455  S
C530  H532  1.105 .      S
C531  H533  1.106 .      S
C531  H534  1.108 .      S
C531  H535  1.090 .      S
C532  C530  1.525 1_655  S
C534  H536  1.065 .      S
C535  H537  1.081 .      S
C536  C539  1.465 .      S
C537  H538  1.076 .      S
C539  O98   1.346 .      S
O98   H539  0.966 .      S
H531  C529  1.104 1_655  S
C540  C541  1.525 .      S
C540  H540  1.094 .      S
C540  H541  1.096 .      S
C540  H542  1.098 .      S
C541  C542  1.480 .      S
C541  C543  1.453 .      S
C541  H543  1.105 .      S
C542  H544  1.102 .      S
C542  H545  1.090 .      S
C542  H546  1.098 .      S
C545  H547  1.069 .      S
C546  H548  1.081 .      S
C547  C550  1.468 1_565  S
C548  H549  1.073 1_565  S
N100  Zn7   2.178 1_565  S
C550  C547  1.468 1_545  S
C550  O100  1.346 .      S
O100  H550  0.966 .      S
H549  C548  1.073 1_545  S
C551  C552  1.519 .      S
C551  H551  1.103 .      S
C551  H552  1.099 .      S
C551  H553  1.107 .      S
C552  C553  1.478 .      S
C552  C554  1.469 .      S
C552  H554  1.103 .      S
C553  H555  1.101 .      S
C553  H556  1.091 .      S
C553  H557  1.087 .      S
C556  H558  1.072 .      S
C557  H559  1.080 .      S
C558  C561  1.468 .      S
C559  H560  1.073 .      S
C561  O102  1.345 .      S
O102  H561  0.966 .      S
C562  C563  1.536 .      S
C562  H562  1.110 .      S
C562  H563  1.106 .      S
C562  H564  1.102 1_545  S
C563  C564  1.509 .      S
C563  C565  1.517 1_545  S
C563  H565  1.089 1_455  S
C564  H566  1.075 .      S
C564  H567  1.105 1_455  S
C564  H568  1.107 .      S
C565  C563  1.517 1_565  S
N103  Zn26  2.193 1_565  S
C567  H569  1.066 1_565  S
C568  H570  1.080 .      S
C569  C572  1.466 .      S
C570  H571  1.072 .      S
C572  O104  1.345 .      S
O104  H572  0.966 .      S
H564  C562  1.102 1_565  S
H565  C563  1.089 1_655  S
H567  C564  1.105 1_655  S
H569  C567  1.066 1_545  S
C573  C574  1.489 .      S
C573  H573  1.086 1_655  S
C573  H574  1.108 .      S
C573  H575  1.090 1_655  S
C574  C575  1.512 .      S
C574  C576  1.501 .      S
C574  H576  1.101 .      S
C575  H577  1.107 .      S
C575  H578  1.085 .      S
C575  H579  1.102 .      S
C578  H580  1.049 .      S
C579  H581  1.062 .      S
C580  C583  1.432 .      S
C581  H582  1.063 .      S
N106  Zn26  2.174 1_565  S
C583  O106  1.345 .      S
O106  H583  0.962 .      S
H573  C573  1.086 1_455  S
H575  C573  1.090 1_455  S
C584  C585  1.488 1_655  S
C584  H584  1.102 .      S
C584  H585  1.093 .      S
C584  H586  1.059 .      S
C585  C584  1.488 1_455  S
C585  C586  1.487 .      S
C585  C587  1.489 .      S
C585  H587  1.093 .      S
C586  H588  1.099 .      S
C586  H589  1.087 .      S
C586  H590  1.085 .      S
N107  Zn9   2.050 1_455  S
C589  H591  1.071 .      S
C590  H592  1.080 .      S
C591  C594  1.469 .      S
C592  H593  1.074 .      S
C594  O108  1.346 .      S
O108  H594  0.966 .      S
C595  C596  1.496 1_565  S
C595  H595  1.097 1_655  S
C595  H596  1.106 .      S
C595  H597  1.092 .      S
C596  C595  1.496 1_545  S
C596  C597  1.509 .      S
C596  C598  1.499 1_655  S
C596  H598  1.105 .      S
C597  H599  1.095 1_655  S
C597  H600  1.107 .      S
C597  H601  1.109 .      S
C598  C596  1.499 1_455  S
N109  Zn27  2.223 1_545  S
C600  H602  1.052 .      S
C601  H603  1.080 .      S
C602  C605  1.466 .      S
C603  H604  1.069 .      S
C605  O110  1.346 .      S
O110  H605  0.966 .      S
H595  C595  1.097 1_455  S
H599  C597  1.095 1_455  S
C606  C607  1.514 .      S
C606  H606  1.107 1_554  S
C606  H607  1.104 1_554  S
C606  H608  1.100 1_554  S
C607  C608  1.523 .      S
C607  C609  1.495 .      S
C607  H609  1.078 .      S
C608  H610  1.103 .      S
C608  H611  1.095 .      S
C608  H612  1.091 .      S
N111  Zn28  2.118 1_455  S
C611  H613  1.062 .      S
C612  H614  1.081 .      S
C613  C616  1.468 .      S
C614  H615  1.067 .      S
N112  Zn9   2.127 1_455  S
C616  O112  1.346 .      S
O112  H616  0.966 .      S
H606  C606  1.107 1_556  S
H607  C606  1.104 1_556  S
H608  C606  1.100 1_556  S
C4    N1    1.408 .      A
C4    N2    1.393 1_556  A
N1    C5    1.353 1_455  A
C5    N1    1.353 1_655  A
C5    C6    1.364 .      A
C5    C10   1.335 1_556  A
C6    C7    1.378 1_556  A
C7    C6    1.378 1_554  A
C7    C8    1.380 .      A
C8    C9    1.381 .      A
C9    C10   1.366 .      A
C10   C5    1.335 1_554  A
C10   N2    1.334 1_655  A
N2    C4    1.393 1_554  A
N2    C10   1.334 1_455  A
C15   N3    1.414 .      A
C15   N4    1.373 .      A
N3    C16   1.354 .      A
C16   C17   1.371 .      A
C16   C21   1.354 .      A
C17   C18   1.369 .      A
C18   C19   1.375 .      A
C19   C20   1.377 .      A
C20   C21   1.349 .      A
C21   N4    1.336 .      A
C26   N5    1.436 .      A
C26   N6    1.408 .      A
N5    C27   1.352 .      A
C27   C28   1.363 .      A
C27   C32   1.382 .      A
C28   C29   1.383 .      A
C29   C30   1.392 .      A
C30   C31   1.387 .      A
C31   C32   1.373 .      A
C32   N6    1.349 .      A
C37   N7    1.401 1_565  A
C37   N8    1.383 .      A
N7    C37   1.401 1_545  A
N7    C38   1.355 1_545  A
C38   N7    1.355 1_565  A
C38   C39   1.360 .      A
C38   C43   1.349 .      A
C39   C40   1.388 .      A
C40   C41   1.376 .      A
C41   C42   1.372 .      A
C42   C43   1.363 .      A
C43   N8    1.328 .      A
C48   N9    1.409 .      A
C48   N10   1.402 .      A
N9    C49   1.344 .      A
C49   C50   1.370 .      A
C49   C54   1.368 .      A
C50   C51   1.379 .      A
C51   C52   1.393 .      A
C52   C53   1.396 .      A
C53   C54   1.374 .      A
C54   N10   1.349 .      A
C59   N11   1.392 .      A
C59   N12   1.394 .      A
N11   C60   1.366 .      A
C60   C61   1.371 .      A
C60   C65   1.358 .      A
C61   C62   1.375 .      A
C62   C63   1.375 .      A
C63   C64   1.381 .      A
C64   C65   1.363 .      A
C65   N12   1.330 .      A
C70   N13   1.403 .      A
C70   N14   1.388 .      A
N13   C71   1.332 .      A
C71   C72   1.370 .      A
C71   C76   1.368 .      A
C72   C73   1.372 .      A
C73   C74   1.384 .      A
C74   C75   1.393 .      A
C75   C76   1.386 .      A
C76   N14   1.374 .      A
C81   N15   1.393 .      A
C81   N16   1.368 .      A
N15   C82   1.355 1_554  A
C82   N15   1.355 1_556  A
C82   C83   1.369 .      A
C82   C87   1.373 1_556  A
C83   C84   1.383 .      A
C84   C85   1.393 .      A
C85   C86   1.387 .      A
C86   C87   1.370 1_556  A
C87   C82   1.373 1_554  A
C87   C86   1.370 1_554  A
C87   N16   1.346 .      A
C92   N17   1.412 .      A
C92   N18   1.417 1_556  A
N17   C93   1.346 .      A
C93   C94   1.357 .      A
C93   C98   1.379 .      A
C94   C95   1.376 .      A
C95   C96   1.390 .      A
C96   C97   1.394 .      A
C97   C98   1.379 .      A
C98   N18   1.355 1_556  A
N18   C92   1.417 1_554  A
N18   C98   1.355 1_554  A
C103  N19   1.422 .      A
C103  N20   1.393 .      A
N19   C104  1.342 .      A
C104  C105  1.360 .      A
C104  C109  1.371 .      A
C105  C106  1.371 .      A
C106  C107  1.376 1_565  A
C107  C106  1.376 1_545  A
C107  C108  1.385 .      A
C108  C109  1.380 1_545  A
C109  C108  1.380 1_565  A
C109  N20   1.365 .      A
C114  N21   1.403 .      A
C114  N22   1.395 .      A
N21   C115  1.342 .      A
C115  C116  1.363 .      A
C115  C120  1.364 .      A
C116  C117  1.374 .      A
C117  C118  1.387 .      A
C118  C119  1.395 .      A
C119  C120  1.381 .      A
C120  N22   1.356 .      A
C125  N23   1.427 .      A
C125  N24   1.401 .      A
N23   C126  1.357 .      A
C126  C127  1.370 .      A
C126  C131  1.382 .      A
C127  C128  1.383 .      A
C128  C129  1.391 .      A
C129  C130  1.387 .      A
C130  C131  1.372 .      A
C131  N24   1.344 .      A
C136  N25   1.395 .      A
C136  N26   1.396 .      A
N25   C137  1.331 .      A
C137  C138  1.352 .      A
C137  C142  1.356 .      A
C138  C139  1.380 .      A
C139  C140  1.381 .      A
C140  C141  1.372 .      A
C141  C142  1.360 .      A
C142  N26   1.345 .      A
C147  N27   1.388 .      A
C147  N28   1.376 .      A
N27   C148  1.345 .      A
C148  C149  1.365 .      A
C148  C153  1.363 .      A
C149  C150  1.379 .      A
C150  C151  1.388 .      A
C151  C152  1.387 .      A
C152  C153  1.379 .      A
C153  N28   1.356 .      A
C158  N29   1.389 .      A
C158  N30   1.400 .      A
N29   C159  1.343 .      A
C159  C160  1.366 .      A
C159  C164  1.356 .      A
C160  C161  1.382 .      A
C161  C162  1.385 .      A
C162  C163  1.384 .      A
C163  C164  1.358 .      A
C164  N30   1.341 .      A
C169  N31   1.387 1_565  A
C169  N32   1.386 .      A
N31   C169  1.387 1_545  A
N31   C170  1.357 .      A
C170  C171  1.364 .      A
C170  C175  1.370 .      A
C171  C172  1.383 .      A
C172  C173  1.389 .      A
C173  C174  1.383 .      A
C174  C175  1.372 .      A
C175  N32   1.340 1_545  A
N32   C175  1.340 1_565  A
C180  N33   1.383 .      A
C180  N34   1.371 .      A
N33   C181  1.339 1_565  A
C181  N33   1.339 1_545  A
C181  C182  1.365 .      A
C181  C186  1.366 1_545  A
C182  C183  1.382 .      A
C183  C184  1.395 .      A
C184  C185  1.391 .      A
C185  C186  1.375 1_545  A
C186  C181  1.366 1_565  A
C186  C185  1.375 1_565  A
C186  N34   1.355 .      A
C191  N35   1.393 .      A
C191  N36   1.390 .      A
N35   C192  1.345 .      A
C192  C193  1.369 .      A
C192  C197  1.362 .      A
C193  C194  1.378 .      A
C194  C195  1.388 .      A
C195  C196  1.388 .      A
C196  C197  1.373 .      A
C197  N36   1.355 .      A
C202  N37   1.399 .      A
C202  N38   1.381 .      A
N37   C203  1.347 .      A
C203  C204  1.370 .      A
C203  C208  1.376 .      A
C204  C205  1.381 .      A
C205  C206  1.391 .      A
C206  C207  1.387 .      A
C207  C208  1.381 .      A
C208  N38   1.361 .      A
C213  N39   1.416 .      A
C213  N40   1.390 .      A
N39   C214  1.368 .      A
C214  C215  1.368 .      A
C214  C219  1.365 .      A
C215  C216  1.383 .      A
C216  C217  1.374 .      A
C217  C218  1.368 .      A
C218  C219  1.369 .      A
C219  N40   1.333 .      A
C224  N41   1.394 .      A
C224  N42   1.383 .      A
N41   C225  1.351 .      A
C225  C226  1.369 .      A
C225  C230  1.369 .      A
C226  C227  1.383 1_556  A
C227  C226  1.383 1_554  A
C227  C228  1.389 .      A
C228  C229  1.384 1_554  A
C229  C228  1.384 1_556  A
C229  C230  1.379 .      A
C230  N42   1.356 .      A
C235  N43   1.400 .      A
C235  N44   1.386 .      A
N43   C236  1.338 .      A
C236  C237  1.341 .      A
C236  C241  1.351 .      A
C237  C238  1.362 .      A
C238  C239  1.368 .      A
C239  C240  1.371 .      A
C240  C241  1.367 .      A
C241  N44   1.329 .      A
C246  N45   1.383 .      A
C246  N46   1.374 .      A
N45   C247  1.358 .      A
C247  C248  1.377 .      A
C247  C252  1.364 .      A
C248  C249  1.375 .      A
C249  C250  1.381 1_554  A
C250  C249  1.381 1_556  A
C250  C251  1.382 1_556  A
C251  C250  1.382 1_554  A
C251  C252  1.378 .      A
C252  N46   1.353 .      A
C257  N47   1.391 1_455  A
C257  N48   1.403 .      A
N47   C257  1.391 1_655  A
N47   C258  1.346 1_655  A
C258  N47   1.346 1_455  A
C258  C259  1.364 1_455  A
C258  C263  1.364 .      A
C259  C258  1.364 1_655  A
C259  C260  1.383 1_655  A
C260  C259  1.383 1_455  A
C260  C261  1.391 .      A
C261  C262  1.388 .      A
C262  C263  1.370 .      A
C263  N48   1.344 .      A
C268  N49   1.407 .      A
C268  N50   1.417 .      A
N49   C269  1.346 .      A
C269  C270  1.365 .      A
C269  C274  1.374 .      A
C270  C271  1.380 .      A
C271  C272  1.392 .      A
C272  C273  1.389 .      A
C273  C274  1.374 .      A
C274  N50   1.350 .      A
C279  N51   1.407 .      A
C279  N52   1.409 .      A
N51   C280  1.339 .      A
C280  C281  1.360 .      A
C280  C285  1.369 .      A
C281  C282  1.382 .      A
C282  C283  1.388 1_565  A
C283  C282  1.388 1_545  A
C283  C284  1.389 .      A
C284  C285  1.372 1_545  A
C285  C284  1.372 1_565  A
C285  N52   1.353 .      A
C290  N53   1.412 .      A
C290  N54   1.404 .      A
N53   C291  1.350 .      A
C291  C292  1.365 .      A
C291  C296  1.376 .      A
C292  C293  1.384 .      A
C293  C294  1.392 .      A
C294  C295  1.386 .      A
C295  C296  1.373 .      A
C296  N54   1.347 .      A
C301  N55   1.413 .      A
C301  N56   1.401 .      A
N55   C302  1.340 .      A
C302  C303  1.367 .      A
C302  C307  1.367 .      A
C303  C304  1.384 .      A
C304  C305  1.395 .      A
C305  C306  1.389 .      A
C306  C307  1.364 .      A
C307  N56   1.350 .      A
C312  N57   1.401 1_545  A
C312  N58   1.388 1_545  A
N57   C312  1.401 1_565  A
N57   C313  1.358 .      A
C313  C314  1.374 .      A
C313  C318  1.367 .      A
C314  C315  1.384 .      A
C315  C316  1.390 .      A
C316  C317  1.385 .      A
C317  C318  1.372 .      A
C318  N58   1.342 .      A
N58   C312  1.388 1_565  A
C323  N59   1.415 .      A
C323  N60   1.384 .      A
N59   C324  1.334 .      A
C324  C325  1.369 .      A
C324  C329  1.353 .      A
C325  C326  1.356 .      A
C326  C327  1.369 .      A
C327  C328  1.362 .      A
C328  C329  1.354 .      A
C329  N60   1.349 .      A
C334  N61   1.384 .      A
C334  N62   1.400 1_655  A
N61   C335  1.306 .      A
C335  C336  1.355 .      A
C335  C340  1.347 1_655  A
C336  C337  1.332 .      A
C337  C338  1.346 1_655  A
C338  C337  1.346 1_455  A
C338  C339  1.382 .      A
C339  C340  1.340 .      A
C340  C335  1.347 1_455  A
C340  N62   1.358 .      A
N62   C334  1.400 1_455  A
C345  N63   1.403 .      A
C345  N64   1.371 .      A
N63   C346  1.353 .      A
C346  C347  1.367 .      A
C346  C351  1.362 .      A
C347  C348  1.385 .      A
C348  C349  1.392 .      A
C349  C350  1.384 .      A
C350  C351  1.370 .      A
C351  N64   1.340 .      A
C356  N65   1.409 .      A
C356  N66   1.385 .      A
N65   C357  1.340 .      A
C357  C358  1.353 .      A
C357  C362  1.351 .      A
C358  C359  1.380 .      A
C359  C360  1.390 .      A
C360  C361  1.391 .      A
C361  C362  1.370 .      A
C362  N66   1.345 .      A
C367  N67   1.392 .      A
C367  N68   1.396 .      A
N67   C368  1.341 .      A
C368  C369  1.350 .      A
C368  C373  1.359 .      A
C369  C370  1.378 .      A
C370  C371  1.387 .      A
C371  C372  1.389 .      A
C372  C373  1.372 .      A
C373  N68   1.349 .      A
C378  N69   1.412 .      A
C378  N70   1.378 .      A
N69   C379  1.331 .      A
C379  C380  1.349 1_565  A
C379  C384  1.348 .      A
C380  C379  1.349 1_545  A
C380  C381  1.377 .      A
C381  C382  1.380 .      A
C382  C383  1.364 1_545  A
C383  C382  1.364 1_565  A
C383  C384  1.356 .      A
C384  N70   1.343 .      A
C389  N71   1.395 .      A
C389  N72   1.390 .      A
N71   C390  1.356 .      A
C390  C391  1.372 .      A
C390  C395  1.378 .      A
C391  C392  1.380 .      A
C392  C393  1.388 .      A
C393  C394  1.386 .      A
C394  C395  1.378 .      A
C395  N72   1.357 .      A
C400  N73   1.382 .      A
C400  N74   1.415 .      A
N73   C401  1.346 .      A
C401  C402  1.368 .      A
C401  C406  1.379 .      A
C402  C403  1.379 .      A
C403  C404  1.389 .      A
C404  C405  1.389 .      A
C405  C406  1.368 .      A
C406  N74   1.360 .      A
C411  N75   1.410 .      A
C411  N76   1.403 .      A
N75   C412  1.354 .      A
C412  C413  1.368 .      A
C412  C417  1.363 .      A
C413  C414  1.379 .      A
C414  C415  1.384 .      A
C415  C416  1.383 .      A
C416  C417  1.379 .      A
C417  N76   1.345 .      A
C422  N77   1.404 .      A
C422  N78   1.390 .      A
N77   C423  1.356 .      A
C423  C424  1.363 .      A
C423  C428  1.374 .      A
C424  C425  1.381 .      A
C425  C426  1.387 .      A
C426  C427  1.384 .      A
C427  C428  1.377 .      A
C428  N78   1.354 .      A
C433  N79   1.389 .      A
C433  N80   1.397 .      A
N79   C434  1.339 .      A
C434  C435  1.371 .      A
C434  C439  1.363 .      A
C435  C436  1.379 .      A
C436  C437  1.385 .      A
C437  C438  1.385 .      A
C438  C439  1.371 .      A
C439  N80   1.361 .      A
C444  N81   1.398 .      A
C444  N82   1.382 1_556  A
N81   C445  1.359 .      A
C445  C446  1.374 .      A
C445  C450  1.367 1_556  A
C446  C447  1.382 1_556  A
C447  C446  1.382 1_554  A
C447  C448  1.387 .      A
C448  C449  1.381 .      A
C449  C450  1.375 .      A
C450  C445  1.367 1_554  A
C450  N82   1.346 .      A
N82   C444  1.382 1_554  A
C455  N83   1.400 .      A
C455  N84   1.380 .      A
N83   C456  1.351 .      A
C456  C457  1.373 .      A
C456  C461  1.373 .      A
C457  C458  1.380 .      A
C458  C459  1.386 .      A
C459  C460  1.387 .      A
C460  C461  1.370 .      A
C461  N84   1.352 .      A
C466  N85   1.420 .      A
C466  N86   1.390 .      A
N85   C467  1.341 .      A
C467  C468  1.369 .      A
C467  C472  1.370 .      A
C468  C469  1.379 .      A
C469  C470  1.392 .      A
C470  C471  1.392 .      A
C471  C472  1.375 .      A
C472  N86   1.355 .      A
C477  N87   1.389 .      A
C477  N88   1.381 .      A
N87   C478  1.348 .      A
C478  C479  1.356 .      A
C478  C483  1.360 .      A
C479  C480  1.381 .      A
C480  C481  1.387 .      A
C481  C482  1.384 .      A
C482  C483  1.369 .      A
C483  N88   1.342 .      A
C488  N89   1.397 .      A
C488  N90   1.391 .      A
N89   C489  1.330 .      A
C489  C490  1.357 .      A
C489  C494  1.364 .      A
C490  C491  1.343 .      A
C491  C492  1.363 .      A
C492  C493  1.395 .      A
C493  C494  1.379 .      A
C494  N90   1.367 .      A
C499  N91   1.398 .      A
C499  N92   1.396 .      A
N91   C500  1.335 .      A
C500  C501  1.367 .      A
C500  C505  1.361 .      A
C501  C502  1.373 .      A
C502  C503  1.383 .      A
C503  C504  1.390 .      A
C504  C505  1.367 .      A
C505  N92   1.354 .      A
C510  N93   1.389 .      A
C510  N94   1.384 .      A
N93   C511  1.341 .      A
C511  C512  1.378 .      A
C511  C516  1.354 .      A
C512  C513  1.376 1_565  A
C513  C512  1.376 1_545  A
C513  C514  1.382 .      A
C514  C515  1.387 1_545  A
C515  C514  1.387 1_565  A
C515  C516  1.376 .      A
C516  N94   1.363 .      A
C521  N95   1.377 .      A
C521  N96   1.361 .      A
N95   C522  1.346 .      A
C522  C523  1.366 .      A
C522  C527  1.359 .      A
C523  C524  1.380 .      A
C524  C525  1.385 .      A
C525  C526  1.385 .      A
C526  C527  1.374 .      A
C527  N96   1.347 .      A
C532  N97   1.416 .      A
C532  N98   1.398 .      A
N97   C533  1.349 .      A
C533  C534  1.366 .      A
C533  C538  1.356 .      A
C534  C535  1.379 .      A
C535  C536  1.387 .      A
C536  C537  1.386 .      A
C537  C538  1.373 .      A
C538  N98   1.345 .      A
C543  N99   1.399 .      A
C543  N100  1.386 .      A
N99   C544  1.354 .      A
C544  C545  1.369 .      A
C544  C549  1.363 .      A
C545  C546  1.385 .      A
C546  C547  1.387 .      A
C547  C548  1.382 .      A
C548  C549  1.367 .      A
C549  N100  1.341 .      A
C554  N101  1.395 .      A
C554  N102  1.383 .      A
N101  C555  1.354 .      A
C555  C556  1.367 .      A
C555  C560  1.372 .      A
C556  C557  1.381 .      A
C557  C558  1.389 .      A
C558  C559  1.388 .      A
C559  C560  1.377 .      A
C560  N102  1.351 .      A
C565  N103  1.396 .      A
C565  N104  1.391 .      A
N103  C566  1.351 .      A
C566  C567  1.367 .      A
C566  C571  1.358 .      A
C567  C568  1.380 .      A
C568  C569  1.384 .      A
C569  C570  1.383 .      A
C570  C571  1.372 .      A
C571  N104  1.339 .      A
C576  N105  1.413 .      A
C576  N106  1.394 1_645  A
N105  C577  1.314 1_545  A
C577  N105  1.314 1_565  A
C577  C578  1.331 .      A
C577  C582  1.347 1_655  A
C578  C579  1.345 1_655  A
C579  C578  1.345 1_455  A
C579  C580  1.369 .      A
C580  C581  1.373 .      A
C581  C582  1.339 .      A
C582  C577  1.347 1_455  A
C582  N106  1.336 .      A
N106  C576  1.394 1_465  A
C587  N107  1.383 .      A
C587  N108  1.378 .      A
N107  C588  1.342 .      A
C588  C589  1.371 .      A
C588  C593  1.363 .      A
C589  C590  1.379 1_565  A
C590  C589  1.379 1_545  A
C590  C591  1.387 .      A
C591  C592  1.386 .      A
C592  C593  1.386 1_545  A
C593  C592  1.386 1_565  A
C593  N108  1.366 .      A
C598  N109  1.411 .      A
C598  N110  1.407 1_455  A
N109  C599  1.330 .      A
C599  C600  1.349 .      A
C599  C604  1.355 .      A
C600  C601  1.367 .      A
C601  C602  1.373 .      A
C602  C603  1.392 .      A
C603  C604  1.382 .      A
C604  N110  1.367 1_455  A
N110  C598  1.407 1_655  A
N110  C604  1.367 1_655  A
C609  N111  1.385 1_655  A
C609  N112  1.399 1_655  A
N111  C609  1.385 1_455  A
N111  C610  1.346 .      A
C610  C611  1.364 1_554  A
C610  C615  1.358 .      A
C611  C610  1.364 1_556  A
C611  C612  1.383 .      A
C612  C613  1.391 .      A
C613  C614  1.385 1_556  A
C614  C613  1.385 1_554  A
C614  C615  1.370 .      A
C615  N112  1.345 .      A
N112  C609  1.399 1_455  A
C11   O1    1.218 .      D
C22   O3    1.214 .      D
C33   O5    1.219 .      D
C44   O7    1.217 .      D
C55   O9    1.219 .      D
C66   O11   1.213 .      D
C77   O13   1.219 .      D
C88   O15   1.219 .      D
C99   O17   1.219 .      D
C110  O19   1.218 .      D
C121  O21   1.219 .      D
C132  O23   1.219 .      D
C143  O25   1.216 1_565  D
O25   C143  1.216 1_545  D
C154  O27   1.219 .      D
C165  O29   1.219 .      D
C176  O31   1.219 .      D
C187  O33   1.219 .      D
C198  O35   1.219 .      D
C209  O37   1.219 .      D
C220  O39   1.216 .      D
C231  O41   1.219 .      D
C242  O43   1.217 .      D
C253  O45   1.219 .      D
C264  O47   1.219 .      D
C275  O49   1.219 .      D
C286  O51   1.219 .      D
C297  O53   1.219 .      D
C308  O55   1.219 .      D
C319  O57   1.219 .      D
C330  O59   1.206 .      D
C341  O61   1.213 1_455  D
O61   C341  1.213 1_655  D
C352  O63   1.219 .      D
C363  O65   1.218 .      D
C374  O67   1.219 .      D
C385  O69   1.219 .      D
C396  O71   1.219 .      D
C407  O73   1.218 .      D
C418  O75   1.219 .      D
C429  O77   1.219 .      D
C440  O79   1.219 .      D
C451  O81   1.219 .      D
C462  O83   1.219 .      D
C473  O85   1.219 .      D
C484  O87   1.219 .      D
C495  O89   1.216 .      D
C506  O91   1.219 .      D
C517  O93   1.219 .      D
C528  O95   1.219 .      D
C539  O97   1.219 .      D
C550  O99   1.219 1_545  D
O99   C550  1.219 1_565  D
C561  O101  1.219 .      D
C572  O103  1.219 .      D
C583  O105  1.202 .      D
C594  O107  1.219 .      D
C605  O109  1.216 .      D
C616  O111  1.219 .      D
