data_str_m1_o12004_UFI
_audit_creation_date              2015-10-01T06:33:53-0700
_symmetry_space_group_name_H-M    P1
_symmetry_Int_Tables_number       1
_space_group_crystal_system       triclinic
loop_
_symmetry_equiv_pos_as_xyz
  x,y,z
_cell_length_a                    24.3359291
_cell_length_b                    25.1297495
_cell_length_c                    33.2687512
_cell_angle_alpha                 71.3898046
_cell_angle_beta                  71.3237351
_cell_angle_gamma                 93.2064679
_cell_volume                      17980.9876815

loop_
_atom_site_label
_atom_site_type_symbol
_atom_site_description
_atom_site_fract_x
_atom_site_fract_y
_atom_site_fract_z
_atom_type_partial_charge
Zn1   Zn    Zn3+2 0.164845 0.949846 0.527276 0.000000
Zn2   Zn    Zn3+2 0.867937 0.838194 0.385678 0.000000
Zn3   Zn    Zn3+2 0.030557 0.616350 0.173104 0.000000
Zn4   Zn    Zn3+2 0.620010 0.871123 0.368638 0.000000
Zn5   Zn    Zn3+2 0.465569 0.460542 0.169768 0.000000
Zn6   Zn    Zn3+2 0.473685 0.065993 0.165505 0.000000
Zn7   Zn    Zn3+2 0.421648 0.286477 0.368170 0.000000
Zn8   Zn    Zn3+2 0.045884 0.279429 0.380524 0.000000
Zn9   Zn    Zn3+2 0.642692 0.651183 0.163658 0.000000
Zn10  Zn    Zn3+2 0.057083 0.026295 0.368149 0.000000
Zn11  Zn    Zn3+2 0.989821 0.219530 0.884173 0.000000
Zn12  Zn    Zn3+2 0.811126 0.393020 0.887665 0.000000
Zn13  Zn    Zn3+2 0.173193 0.420704 0.876150 0.000000
Zn14  Zn    Zn3+2 0.919369 0.956776 0.030442 0.000000
Zn15  Zn    Zn3+2 0.096888 0.323859 0.668029 0.000000
Zn16  Zn    Zn3+2 0.983994 0.585269 0.883792 0.000000
Zn17  Zn    Zn3+2 0.281138 0.318928 0.031026 0.000000
Zn18  Zn    Zn3+2 0.908219 0.496350 0.665630 0.000000
Zn19  Zn    Zn3+2 0.270566 0.527317 0.660751 0.000000
Zn20  Zn    Zn3+2 0.164687 0.198825 0.526193 0.000000
Zn21  Zn    Zn3+2 0.540581 0.325970 0.032385 0.000000
Zn22  Zn    Zn3+2 0.652173 0.900336 0.158042 0.000000
Zn23  Zn    Zn3+2 0.035116 0.865478 0.180855 0.000000
Zn24  Zn    Zn3+2 0.210673 0.450103 0.176946 0.000000
Zn25  Zn    Zn3+2 0.904103 0.703936 0.033395 0.000000
Zn26  Zn    Zn3+2 0.073654 0.690002 0.667497 0.000000
Zn27  Zn    Zn3+2 0.217056 0.057348 0.163535 0.000000
Zn28  Zn    Zn3+2 0.783227 0.585497 0.523357 0.000000
Zn29  Zn    Zn3+2 0.535631 0.605407 0.502164 0.000000
Zn30  Zn    Zn3+2 0.866334 0.457254 0.379281 0.000000
Zn31  Zn    Zn3+2 0.610294 0.474421 0.364387 0.000000
Zn32  Zn    Zn3+2 0.424707 0.024445 0.377867 0.000000
C1    C     C_3   0.325597 0.092163 0.522400 0.000000
N1    N     N_3   0.309396 0.064985 0.494194 0.000000
C2    C     C_3   0.321732 0.007102 0.505782 0.000000
C3    C     C_R   0.306025 0.978305 0.477217 0.000000
N2    N     N_R   0.250648 0.945863 0.493110 0.000000
C4    C     C_R   0.253129 0.924926 0.460831 0.000000
C5    C     C_R   0.206233 0.893874 0.459155 0.000000
C6    C     C_R   0.207487 0.894846 0.417580 0.000000
C7    C     C_R   0.249354 0.935056 0.379652 0.000000
C8    C     C_R   0.293677 0.966843 0.384086 0.000000
C9    C     C_R   0.302043 0.951767 0.424056 0.000000
N3    N     N_R   0.340439 0.983051 0.433034 0.000000
H1    H     H_    0.340625 0.138520 0.503117 0.000000
H2    H     H_    0.287240 0.086235 0.553065 0.000000
H3    H     H_    0.360375 0.073161 0.533693 0.000000
H4    H     H_    0.334198 0.088040 0.460268 0.000000
H5    H     H_    0.367474 0.004949 0.503423 0.000000
H6    H     H_    0.293825 0.982626 0.541560 0.000000
H7    H     H_    0.167105 0.873431 0.488664 0.000000
H8    H     H_    0.171360 0.870704 0.415269 0.000000
H9    H     H_    0.247079 0.943432 0.346583 0.000000
H10   H     H_    0.321180 0.003959 0.357184 0.000000
C10   C     C_3   0.959896 0.873887 0.564274 0.000000
N4    N     N_3   0.019206 0.906332 0.538209 0.000000
C11   C     C_3   0.027243 0.923621 0.490531 0.000000
C12   C     C_R   0.083431 0.964426 0.462003 0.000000
N5    N     N_R   0.096584 0.996714 0.416497 0.000000
C13   C     C_R   0.151805 0.023068 0.404967 0.000000
C14   C     C_R   0.192430 0.050796 0.362974 0.000000
C15   C     C_R   0.246299 0.076535 0.358549 0.000000
C16   C     C_R   0.259501 0.072389 0.396613 0.000000
C17   C     C_R   0.218300 0.042500 0.438632 0.000000
C18   C     C_R   0.168141 0.012387 0.441083 0.000000
N6    N     N_R   0.128371 0.972407 0.477785 0.000000
H11   H     H_    0.954042 0.856781 0.600781 0.000000
H12   H     H_    0.926852 0.901609 0.559711 0.000000
H13   H     H_    0.953038 0.837715 0.553122 0.000000
H14   H     H_    0.047436 0.877274 0.543034 0.000000
H15   H     H_    0.030627 0.885289 0.481604 0.000000
H16   H     H_    0.989760 0.943187 0.484035 0.000000
H17   H     H_    0.185938 0.046277 0.334508 0.000000
H18   H     H_    0.278597 0.098664 0.325349 0.000000
H19   H     H_    0.302039 0.091951 0.393521 0.000000
H20   H     H_    0.226431 0.042106 0.468331 0.000000
C19   C     C_3   0.653368 0.789121 0.514331 0.000000
N7    N     N_3   0.664188 0.826030 0.467929 0.000000
C20   C     C_3   0.705200 0.803178 0.438004 0.000000
C21   C     C_R   0.734311 0.848232 0.392392 0.000000
N8    N     N_R   0.794583 0.865187 0.374849 0.000000
C22   C     C_R   0.801708 0.917911 0.345163 0.000000
C23   C     C_R   0.853930 0.955499 0.320540 0.000000
C24   C     C_R   0.852827 0.010605 0.295604 0.000000
C25   C     C_R   0.799283 0.027414 0.297841 0.000000
C26   C     C_R   0.747315 0.988678 0.322960 0.000000
C27   C     C_R   0.749018 0.932211 0.344401 0.000000
N9    N     N_R   0.704593 0.887012 0.371684 0.000000
H21   H     H_    0.617585 0.801713 0.537952 0.000000
H22   H     H_    0.640195 0.744228 0.518424 0.000000
H23   H     H_    0.693668 0.793442 0.522647 0.000000
H24   H     H_    0.685289 0.865823 0.463660 0.000000
H25   H     H_    0.739810 0.789926 0.451922 0.000000
H26   H     H_    0.682265 0.765576 0.436271 0.000000
H27   H     H_    0.894866 0.942213 0.321051 0.000000
H28   H     H_    0.893368 0.041068 0.276272 0.000000
H29   H     H_    0.797828 0.071627 0.281099 0.000000
H30   H     H_    0.708044 0.005707 0.328751 0.000000
C28   C     C_3   0.012370 0.794624 0.456287 0.000000
N10   N     N_3   0.971918 0.830630 0.442945 0.000000
C29   C     C_3   0.005130 0.880263 0.403338 0.000000
C30   C     C_R   0.965299 0.919875 0.392678 0.000000
N11   N     N_R   0.907917 0.901857 0.399001 0.000000
C31   C     C_R   0.883291 0.947596 0.402630 0.000000
C32   C     C_R   0.824614 0.951392 0.417137 0.000000
C33   C     C_R   0.810330 0.005132 0.410344 0.000000
C34   C     C_R   0.854458 0.052947 0.388435 0.000000
C35   C     C_R   0.913024 0.047087 0.378765 0.000000
C36   C     C_R   0.925539 0.993083 0.390460 0.000000
N12   N     N_R   0.978182 0.976659 0.385926 0.000000
H31   H     H_    0.000689 0.752215 0.455173 0.000000
H32   H     H_    0.058541 0.813381 0.433317 0.000000
H33   H     H_    0.007801 0.789152 0.491678 0.000000
H34   H     H_    0.953181 0.845552 0.469214 0.000000
H35   H     H_    0.035888 0.903254 0.412263 0.000000
H36   H     H_    0.028816 0.868719 0.373937 0.000000
H37   H     H_    0.790615 0.914056 0.432658 0.000000
H38   H     H_    0.764710 0.009841 0.420040 0.000000
H39   H     H_    0.842915 0.094976 0.380071 0.000000
H40   H     H_    0.947429 0.083824 0.361459 0.000000
C37   C     C_3   0.078849 0.575834 0.327179 0.000000
N13   N     N_3   0.041719 0.542912 0.313702 0.000000
C38   C     C_3   0.004651 0.579526 0.295971 0.000000
C39   C     C_R   0.964599 0.548476 0.282243 0.000000
N14   N     N_R   0.917497 0.505401 0.312928 0.000000
C40   C     C_R   0.898609 0.487179 0.285127 0.000000
C41   C     C_R   0.858668 0.438931 0.296724 0.000000
C42   C     C_R   0.846641 0.425931 0.263022 0.000000
C43   C     C_R   0.868894 0.465104 0.219607 0.000000
C44   C     C_R   0.904069 0.515640 0.210650 0.000000
C45   C     C_R   0.926629 0.521136 0.241619 0.000000
N15   N     N_R   0.970071 0.561122 0.237208 0.000000
H41   H     H_    0.062023 0.562405 0.364657 0.000000
H42   H     H_    0.124467 0.567763 0.315654 0.000000
H43   H     H_    0.079509 0.622161 0.311954 0.000000
H44   H     H_    0.014486 0.509878 0.342790 0.000000
H45   H     H_    0.978026 0.594015 0.322576 0.000000
H46   H     H_    0.032628 0.615815 0.265468 0.000000
H47   H     H_    0.844540 0.406779 0.329734 0.000000
H48   H     H_    0.818326 0.386496 0.270902 0.000000
H49   H     H_    0.855258 0.457885 0.193678 0.000000
H50   H     H_    0.905500 0.552523 0.183813 0.000000
C46   C     C_3   0.447086 0.797423 0.387246 0.000000
N16   N     N_3   0.490193 0.835660 0.391284 0.000000
C47   C     C_3   0.464324 0.884850 0.395546 0.000000
C48   C     C_R   0.508563 0.931125 0.390616 0.000000
N17   N     N_R   0.496364 0.984981 0.388157 0.000000
C49   C     C_R   0.546083 0.009546 0.390030 0.000000
C50   C     C_R   0.565538 0.065999 0.380805 0.000000
C51   C     C_R   0.616125 0.080389 0.388192 0.000000
C52   C     C_R   0.647290 0.038746 0.403177 0.000000
C53   C     C_R   0.631492 0.983411 0.406363 0.000000
C54   C     C_R   0.582654 0.971180 0.396634 0.000000
N18   N     N_R   0.563653 0.923158 0.391828 0.000000
H51   H     H_    0.461968 0.755854 0.390573 0.000000
H52   H     H_    0.403706 0.791930 0.413902 0.000000
H53   H     H_    0.442711 0.815273 0.353668 0.000000
H54   H     H_    0.525437 0.849454 0.360540 0.000000
H55   H     H_    0.449207 0.901333 0.367873 0.000000
H56   H     H_    0.427619 0.873287 0.428619 0.000000
H57   H     H_    0.543847 0.098978 0.366694 0.000000
H58   H     H_    0.631238 0.124363 0.382484 0.000000
H59   H     H_    0.685853 0.050490 0.409875 0.000000
H60   H     H_    0.657118 0.951309 0.415895 0.000000
C55   C     C_3   0.449328 0.639436 0.241280 0.000000
N19   N     N_3   0.500541 0.617192 0.220442 0.000000
C56   C     C_3   0.485828 0.589006 0.192410 0.000000
C57   C     C_R   0.538113 0.569516 0.167275 0.000000
N20   N     N_R   0.594361 0.600865 0.145962 0.000000
C58   C     C_R   0.622777 0.570653 0.121288 0.000000
C59   C     C_R   0.676702 0.585702 0.086487 0.000000
C60   C     C_R   0.698768 0.545467 0.068669 0.000000
C61   C     C_R   0.667120 0.490926 0.086077 0.000000
C62   C     C_R   0.611198 0.478499 0.118051 0.000000
C63   C     C_R   0.588145 0.520780 0.132230 0.000000
N21   N     N_R   0.533016 0.519527 0.159446 0.000000
H61   H     H_    0.437929 0.623637 0.278551 0.000000
H62   H     H_    0.459419 0.686621 0.227952 0.000000
H63   H     H_    0.410906 0.625733 0.233762 0.000000
H64   H     H_    0.508665 0.586298 0.246295 0.000000
H65   H     H_    0.450915 0.551425 0.213247 0.000000
H66   H     H_    0.469112 0.618199 0.168147 0.000000
H67   H     H_    0.699616 0.628340 0.069786 0.000000
H68   H     H_    0.741055 0.556487 0.041425 0.000000
H69   H     H_    0.685220 0.458653 0.073569 0.000000
H70   H     H_    0.587672 0.436012 0.132746 0.000000
C64   C     C_3   0.406977 0.491911 0.315588 0.000000
N22   N     N_3   0.409355 0.432703 0.321167 0.000000
C65   C     C_3   0.462638 0.430827 0.285982 0.000000
C66   C     C_R   0.452678 0.382969 0.271706 0.000000
N23   N     N_R   0.417263 0.334290 0.305034 0.000000
C67   C     C_R   0.377025 0.325787 0.287138 0.000000
C68   C     C_R   0.318753 0.324191 0.309258 0.000000
C69   C     C_R   0.283197 0.337444 0.284368 0.000000
C70   C     C_R   0.304532 0.347520 0.238384 0.000000
C71   C     C_R   0.363885 0.358226 0.216217 0.000000
C72   C     C_R   0.398071 0.355282 0.241764 0.000000
N24   N     N_R   0.444907 0.394434 0.230702 0.000000
H71   H     H_    0.371016 0.494607 0.344975 0.000000
H72   H     H_    0.449600 0.513654 0.312375 0.000000
H73   H     H_    0.397727 0.512810 0.284707 0.000000
H74   H     H_    0.372385 0.418031 0.315936 0.000000
H75   H     H_    0.474481 0.470183 0.256065 0.000000
H76   H     H_    0.496523 0.422815 0.300563 0.000000
H77   H     H_    0.302615 0.320124 0.344326 0.000000
H78   H     H_    0.237441 0.335988 0.301471 0.000000
H79   H     H_    0.276400 0.356806 0.218876 0.000000
H80   H     H_    0.381975 0.377007 0.180122 0.000000
C73   C     C_3   0.596011 0.137962 0.257784 0.000000
N25   N     N_3   0.563170 0.092507 0.251826 0.000000
C74   C     C_3   0.503268 0.102502 0.263368 0.000000
C75   C     C_R   0.460709 0.053531 0.270696 0.000000
N26   N     N_R   0.451355 0.039174 0.236183 0.000000
C76   C     C_R   0.412807 0.989680 0.259768 0.000000
C77   C     C_R   0.393220 0.953139 0.242092 0.000000
C78   C     C_R   0.359976 0.900565 0.270651 0.000000
C79   C     C_R   0.350094 0.883476 0.316314 0.000000
C80   C     C_R   0.372278 0.919398 0.333465 0.000000
C81   C     C_R   0.400819 0.974758 0.305190 0.000000
N27   N     N_R   0.427382 0.016898 0.314187 0.000000
H81   H     H_    0.641154 0.150996 0.232617 0.000000
H82   H     H_    0.574549 0.175989 0.253590 0.000000
H83   H     H_    0.599225 0.122774 0.291709 0.000000
H84   H     H_    0.562749 0.054558 0.276746 0.000000
H85   H     H_    0.491752 0.105859 0.297090 0.000000
H86   H     H_    0.499716 0.140016 0.236285 0.000000
H87   H     H_    0.408696 0.961700 0.206593 0.000000
H88   H     H_    0.345193 0.871369 0.256882 0.000000
H89   H     H_    0.326387 0.841171 0.338657 0.000000
H90   H     H_    0.364848 0.902914 0.369110 0.000000
C82   C     C_3   0.378924 0.190919 0.259166 0.000000
N28   N     N_3   0.382015 0.160759 0.303309 0.000000
C83   C     C_3   0.433268 0.188962 0.306231 0.000000
C84   C     C_R   0.434679 0.166559 0.352731 0.000000
N29   N     N_R   0.439164 0.204712 0.373956 0.000000
C85   C     C_R   0.448696 0.172604 0.410877 0.000000
C86   C     C_R   0.460355 0.190746 0.442566 0.000000
C87   C     C_R   0.473805 0.151489 0.476390 0.000000
C88   C     C_R   0.473108 0.095309 0.478609 0.000000
C89   C     C_R   0.457871 0.077522 0.447637 0.000000
C90   C     C_R   0.447068 0.117416 0.413080 0.000000
N30   N     N_R   0.436908 0.110440 0.377073 0.000000
H91   H     H_    0.335185 0.176267 0.259606 0.000000
H92   H     H_    0.383469 0.237286 0.252013 0.000000
H93   H     H_    0.413873 0.182382 0.232266 0.000000
H94   H     H_    0.387008 0.119127 0.305717 0.000000
H95   H     H_    0.474189 0.188329 0.281073 0.000000
H96   H     H_    0.433094 0.234876 0.297223 0.000000
H97   H     H_    0.460684 0.234485 0.440577 0.000000
H98   H     H_    0.484515 0.164477 0.501380 0.000000
H99   H     H_    0.483151 0.064809 0.505439 0.000000
H100  H     H_    0.456423 0.033687 0.450020 0.000000
C91   C     C_3   0.408527 0.475756 0.421146 0.000000
N31   N     N_3   0.453800 0.458495 0.389550 0.000000
C92   C     C_3   0.453124 0.398404 0.410567 0.000000
C93   C     C_R   0.501826 0.379326 0.382045 0.000000
N32   N     N_R   0.560098 0.405275 0.365173 0.000000
C94   C     C_R   0.587286 0.372506 0.342612 0.000000
C95   C     C_R   0.646297 0.380244 0.317480 0.000000
C96   C     C_R   0.665244 0.340751 0.297533 0.000000
C97   C     C_R   0.624913 0.296888 0.300679 0.000000
C98   C     C_R   0.565269 0.292033 0.323761 0.000000
C99   C     C_R   0.547600 0.329565 0.345799 0.000000
N33   N     N_R   0.492387 0.333059 0.369867 0.000000
H101  H     H_    0.421606 0.475285 0.450256 0.000000
H102  H     H_    0.402685 0.519423 0.403570 0.000000
H103  H     H_    0.366070 0.446771 0.433218 0.000000
H104  H     H_    0.494278 0.480436 0.384279 0.000000
H105  H     H_    0.457568 0.389970 0.443890 0.000000
H106  H     H_    0.412311 0.373972 0.413453 0.000000
H107  H     H_    0.677076 0.416322 0.312613 0.000000
H108  H     H_    0.711388 0.345307 0.277967 0.000000
H109  H     H_    0.639941 0.267539 0.283525 0.000000
H110  H     H_    0.534646 0.260212 0.323205 0.000000
C100  C     C_3   0.995555 0.411488 0.295020 0.000000
N34   N     N_3   0.942549 0.373133 0.303793 0.000000
C101  C     C_3   0.921222 0.328458 0.348590 0.000000
C102  C     C_R   0.936045 0.347213 0.382279 0.000000
N35   N     N_R   0.916236 0.392898 0.393925 0.000000
C103  C     C_R   0.947863 0.398950 0.419168 0.000000
C104  C     C_R   0.955945 0.445308 0.431025 0.000000
C105  C     C_R   0.987691 0.444506 0.458474 0.000000
C106  C     C_R   0.016956 0.399975 0.468957 0.000000
C107  C     C_R   0.017919 0.359424 0.449237 0.000000
C108  C     C_R   0.982005 0.358378 0.424504 0.000000
N36   N     N_R   0.978301 0.325682 0.399516 0.000000
H111  H     H_    0.985857 0.443403 0.310675 0.000000
H112  H     H_    0.024018 0.389738 0.311034 0.000000
H113  H     H_    0.018515 0.433260 0.257941 0.000000
H114  H     H_    0.949398 0.355062 0.278901 0.000000
H115  H     H_    0.873010 0.315808 0.359607 0.000000
H116  H     H_    0.940101 0.290131 0.347440 0.000000
H117  H     H_    0.943042 0.483768 0.415669 0.000000
H118  H     H_    0.992659 0.480232 0.469102 0.000000
H119  H     H_    0.044483 0.399696 0.488621 0.000000
H120  H     H_    0.048368 0.332313 0.453660 0.000000
C109  C     C_3   0.858712 0.121879 0.459326 0.000000
N37   N     N_3   0.911503 0.143993 0.418738 0.000000
C110  C     C_3   0.959783 0.118153 0.428922 0.000000
C111  C     C_R   0.015364 0.143078 0.388969 0.000000
N38   N     N_R   0.042772 0.199236 0.375345 0.000000
C112  C     C_R   0.095479 0.198951 0.345983 0.000000
C113  C     C_R   0.147362 0.236168 0.330874 0.000000
C114  C     C_R   0.195817 0.227845 0.299454 0.000000
C115  C     C_R   0.194076 0.181973 0.287081 0.000000
C116  C     C_R   0.145307 0.142089 0.308718 0.000000
C117  C     C_R   0.096969 0.149629 0.338631 0.000000
N39   N     N_R   0.048690 0.110837 0.366336 0.000000
H121  H     H_    0.820502 0.137253 0.450930 0.000000
H122  H     H_    0.863817 0.137108 0.485856 0.000000
H123  H     H_    0.850489 0.074592 0.472246 0.000000
H124  H     H_    0.921598 0.187893 0.410691 0.000000
H125  H     H_    0.965230 0.126251 0.458099 0.000000
H126  H     H_    0.950580 0.071388 0.437949 0.000000
H127  H     H_    0.151899 0.268045 0.345334 0.000000
H128  H     H_    0.237677 0.252412 0.286238 0.000000
H129  H     H_    0.232590 0.174027 0.264195 0.000000
H130  H     H_    0.147575 0.106010 0.301909 0.000000
C118  C     C_3   0.610756 0.428514 0.220390 0.000000
N40   N     N_3   0.639431 0.478881 0.223092 0.000000
C119  C     C_3   0.595195 0.500015 0.252255 0.000000
C120  C     C_R   0.621511 0.547832 0.259779 0.000000
N41   N     N_R   0.631150 0.540789 0.299904 0.000000
C121  C     C_R   0.665391 0.590978 0.288181 0.000000
C122  C     C_R   0.685325 0.611745 0.314530 0.000000
C123  C     C_R   0.733694 0.654604 0.292151 0.000000
C124  C     C_R   0.759339 0.675246 0.245899 0.000000
C125  C     C_R   0.731094 0.660060 0.220862 0.000000
C126  C     C_R   0.679228 0.622712 0.243854 0.000000
N42   N     N_R   0.647108 0.600383 0.225612 0.000000
H131  H     H_    0.642667 0.413685 0.195851 0.000000
H132  H     H_    0.593548 0.394396 0.253716 0.000000
H133  H     H_    0.572417 0.437729 0.210337 0.000000
H134  H     H_    0.654724 0.509656 0.190684 0.000000
H135  H     H_    0.562122 0.513758 0.237419 0.000000
H136  H     H_    0.576896 0.467383 0.285789 0.000000
H137  H     H_    0.667317 0.591637 0.350920 0.000000
H138  H     H_    0.757804 0.666929 0.309985 0.000000
H139  H     H_    0.801279 0.703246 0.230386 0.000000
H140  H     H_    0.749876 0.676689 0.184710 0.000000
C127  C     C_3   0.984216 0.345945 0.802893 0.000000
N43   N     N_3   0.957434 0.380974 0.826902 0.000000
C128  C     C_3   0.950888 0.354891 0.873747 0.000000
C129  C     C_R   0.901593 0.307037 0.894593 0.000000
N44   N     N_R   0.845119 0.316698 0.898027 0.000000
C130  C     C_R   0.819529 0.267019 0.899302 0.000000
C131  C     C_R   0.764500 0.254548 0.898265 0.000000
C132  C     C_R   0.749941 0.203469 0.893431 0.000000
C133  C     C_R   0.791004 0.167614 0.887797 0.000000
C134  C     C_R   0.846784 0.181677 0.887934 0.000000
C135  C     C_R   0.859047 0.230352 0.895920 0.000000
N45   N     N_R   0.911414 0.253561 0.894218 0.000000
H141  H     H_    0.994383 0.369616 0.766982 0.000000
H142  H     H_    0.024319 0.334667 0.809829 0.000000
H143  H     H_    0.950989 0.308862 0.811780 0.000000
H144  H     H_    0.915551 0.377059 0.825638 0.000000
H145  H     H_    0.991363 0.341365 0.876149 0.000000
H146  H     H_    0.943174 0.386273 0.890055 0.000000
H147  H     H_    0.733693 0.283656 0.900605 0.000000
H148  H     H_    0.706875 0.192189 0.892650 0.000000
H149  H     H_    0.779590 0.128829 0.882520 0.000000
H150  H     H_    0.879882 0.155518 0.881394 0.000000
C136  C     C_3   0.212319 0.257625 0.797264 0.000000
N46   N     N_3   0.171970 0.262490 0.838410 0.000000
C137  C     C_3   0.139974 0.308912 0.827058 0.000000
C138  C     C_R   0.098863 0.312335 0.869695 0.000000
N47   N     N_R   0.048022 0.272335 0.895997 0.000000
C139  C     C_R   0.033984 0.280359 0.935905 0.000000
C140  C     C_R   0.989932 0.248535 0.975871 0.000000
C141  C     C_R   0.986092 0.261665 0.013920 0.000000
C142  C     C_R   0.024079 0.307611 0.010706 0.000000
C143  C     C_R   0.066647 0.340907 0.969423 0.000000
C144  C     C_R   0.071582 0.325142 0.932723 0.000000
N48   N     N_R   0.113046 0.347838 0.890837 0.000000
H151  H     H_    0.191218 0.226578 0.787357 0.000000
H152  H     H_    0.226124 0.299098 0.769059 0.000000
H153  H     H_    0.251444 0.241965 0.803775 0.000000
H154  H     H_    0.197185 0.272896 0.855756 0.000000
H155  H     H_    0.170999 0.349334 0.807968 0.000000
H156  H     H_    0.114623 0.300953 0.806807 0.000000
H157  H     H_    0.961073 0.213026 0.977900 0.000000
H158  H     H_    0.953002 0.236226 0.046383 0.000000
H159  H     H_    0.020221 0.317462 0.040730 0.000000
H160  H     H_    0.096553 0.376325 0.966791 0.000000
C145  C     C_3   0.806003 0.146974 0.015015 0.000000
N49   N     N_3   0.866839 0.141855 0.994465 0.000000
C146  C     C_3   0.868664 0.092967 0.979965 0.000000
C147  C     C_R   0.931310 0.087614 0.960393 0.000000
N50   N     N_R   0.975850 0.134579 0.931521 0.000000
C148  C     C_R   0.023485 0.114560 0.938800 0.000000
C149  C     C_R   0.080401 0.143079 0.922221 0.000000
C150  C     C_R   0.123003 0.113018 0.932572 0.000000
C151  C     C_R   0.107620 0.056477 0.961362 0.000000
C152  C     C_R   0.049659 0.029510 0.978751 0.000000
C153  C     C_R   0.009275 0.058926 0.966209 0.000000
N51   N     N_R   0.951576 0.039245 0.980506 0.000000
H161  H     H_    0.804849 0.181360 0.029300 0.000000
H162  H     H_    0.785387 0.158445 0.988923 0.000000
H163  H     H_    0.781501 0.106417 0.042842 0.000000
H164  H     H_    0.884746 0.132963 0.020023 0.000000
H165  H     H_    0.845942 0.053971 0.009794 0.000000
H166  H     H_    0.846060 0.096559 0.955668 0.000000
H167  H     H_    0.092340 0.186404 0.899685 0.000000
H168  H     H_    0.168605 0.133452 0.917758 0.000000
H169  H     H_    0.140995 0.033447 0.969813 0.000000
H170  H     H_    0.035167 0.986125 0.000676 0.000000
C154  C     C_3   0.904879 0.136527 0.788617 0.000000
N52   N     N_3   0.956338 0.161515 0.793807 0.000000
C155  C     C_3   0.963161 0.223374 0.774583 0.000000
C156  C     C_R   0.018604 0.250444 0.775979 0.000000
N53   N     N_R   0.028443 0.223206 0.815635 0.000000
C157  C     C_R   0.075694 0.200191 0.800022 0.000000
C158  C     C_R   0.086494 0.148582 0.823580 0.000000
C159  C     C_R   0.125375 0.121212 0.800661 0.000000
C160  C     C_R   0.146079 0.141441 0.753924 0.000000
C161  C     C_R   0.128518 0.189278 0.730741 0.000000
C162  C     C_R   0.098544 0.222054 0.753442 0.000000
N54   N     N_R   0.067710 0.261326 0.737211 0.000000
H171  H     H_    0.896223 0.089676 0.806486 0.000000
H172  H     H_    0.865800 0.154039 0.803425 0.000000
H173  H     H_    0.913069 0.145611 0.752107 0.000000
H174  H     H_    0.992443 0.149120 0.774162 0.000000
H175  H     H_    0.966820 0.235149 0.738679 0.000000
H176  H     H_    0.924498 0.236722 0.794539 0.000000
H177  H     H_    0.058740 0.125115 0.857590 0.000000
H178  H     H_    0.133353 0.080221 0.819012 0.000000
H179  H     H_    0.169779 0.115940 0.735900 0.000000
H180  H     H_    0.129458 0.193922 0.697592 0.000000
C163  C     C_3   0.678435 0.361072 0.805733 0.000000
N55   N     N_3   0.731236 0.404044 0.777750 0.000000
C164  C     C_3   0.780785 0.383636 0.789240 0.000000
C165  C     C_R   0.827099 0.431621 0.780282 0.000000
N56   N     N_R   0.868246 0.464472 0.737255 0.000000
C166  C     C_R   0.908485 0.488117 0.748775 0.000000
C167  C     C_R   0.966365 0.507219 0.721794 0.000000
C168  C     C_R   0.003994 0.530307 0.736898 0.000000
C169  C     C_R   0.986397 0.520693 0.781917 0.000000
C170  C     C_R   0.932677 0.488805 0.810808 0.000000
C171  C     C_R   0.891858 0.475287 0.793928 0.000000
N57   N     N_R   0.840946 0.437416 0.816161 0.000000
H181  H     H_    0.640706 0.375744 0.796199 0.000000
H182  H     H_    0.685263 0.320415 0.800020 0.000000
H183  H     H_    0.667885 0.353705 0.842178 0.000000
H184  H     H_    0.725827 0.442597 0.782453 0.000000
H185  H     H_    0.765785 0.357318 0.825743 0.000000
H186  H     H_    0.799593 0.357147 0.769446 0.000000
H187  H     H_    0.984131 0.502663 0.689553 0.000000
H188  H     H_    0.048689 0.550315 0.714871 0.000000
H189  H     H_    0.016261 0.535816 0.794661 0.000000
H190  H     H_    0.928961 0.467695 0.844482 0.000000
C172  C     C_3   0.744352 0.368554 0.046020 0.000000
N58   N     N_3   0.702379 0.372696 0.022894 0.000000
C173  C     C_3   0.707757 0.331345 0.000191 0.000000
C174  C     C_R   0.681666 0.349750 0.964992 0.000000
N59   N     N_R   0.622006 0.352621 0.973688 0.000000
C175  C     C_R   0.624086 0.386475 0.931974 0.000000
C176  C     C_R   0.578893 0.409672 0.920148 0.000000
C177  C     C_R   0.592621 0.452540 0.878408 0.000000
C178  C     C_R   0.650777 0.473437 0.850002 0.000000
C179  C     C_R   0.695634 0.449692 0.862063 0.000000
C180  C     C_R   0.681021 0.404168 0.901903 0.000000
N60   N     N_R   0.718625 0.379274 0.920702 0.000000
H191  H     H_    0.722379 0.370611 0.080115 0.000000
H192  H     H_    0.760996 0.327722 0.050001 0.000000
H193  H     H_    0.781104 0.405255 0.026688 0.000000
H194  H     H_    0.713186 0.413324 0.998033 0.000000
H195  H     H_    0.754407 0.331896 0.982307 0.000000
H196  H     H_    0.687051 0.287480 0.023598 0.000000
H197  H     H_    0.534515 0.399470 0.943783 0.000000
H198  H     H_    0.557966 0.472236 0.869097 0.000000
H199  H     H_    0.661201 0.509015 0.818506 0.000000
H200  H     H_    0.740846 0.467771 0.841052 0.000000
C181  C     C_3   0.725285 0.545242 0.926494 0.000000
N61   N     N_3   0.783090 0.539636 0.929217 0.000000
C182  C     C_3   0.820750 0.533816 0.887606 0.000000
C183  C     C_R   0.864998 0.499178 0.897929 0.000000
N62   N     N_R   0.912725 0.517006 0.907719 0.000000
C184  C     C_R   0.914581 0.468310 0.939635 0.000000
C185  C     C_R   0.947880 0.460954 0.966558 0.000000
C186  C     C_R   0.940295 0.408021 0.999145 0.000000
C187  C     C_R   0.902557 0.362323 0.002314 0.000000
C188  C     C_R   0.872222 0.369319 0.972928 0.000000
C189  C     C_R   0.876456 0.423645 0.943706 0.000000
N63   N     N_R   0.847839 0.441119 0.914810 0.000000
H201  H     H_    0.700213 0.561029 0.953268 0.000000
H202  H     H_    0.729623 0.576167 0.892807 0.000000
H203  H     H_    0.701477 0.503113 0.932050 0.000000
H204  H     H_    0.778303 0.502308 0.956316 0.000000
H205  H     H_    0.794082 0.510862 0.874891 0.000000
H206  H     H_    0.840392 0.575614 0.862057 0.000000
H207  H     H_    0.978111 0.495305 0.963460 0.000000
H208  H     H_    0.964405 0.402275 0.021977 0.000000
H209  H     H_    0.896454 0.321055 0.027988 0.000000
H210  H     H_    0.844939 0.333059 0.974548 0.000000
C190  C     C_3   0.282327 0.623477 0.786206 0.000000
N64   N     N_3   0.284894 0.585417 0.761001 0.000000
C191  C     C_3   0.226576 0.552070 0.775761 0.000000
C192  C     C_R   0.233132 0.496280 0.770288 0.000000
N65   N     N_R   0.264515 0.490277 0.729325 0.000000
C193  C     C_R   0.283430 0.440830 0.744135 0.000000
C194  C     C_R   0.312235 0.410598 0.719176 0.000000
C195  C     C_R   0.333389 0.363946 0.740804 0.000000
C196  C     C_R   0.321451 0.346691 0.787189 0.000000
C197  C     C_R   0.284127 0.372751 0.812781 0.000000
C198  C     C_R   0.264521 0.419020 0.790227 0.000000
N66   N     N_R   0.227556 0.449928 0.808109 0.000000
H211  H     H_    0.320428 0.659032 0.767248 0.000000
H212  H     H_    0.240984 0.641249 0.790515 0.000000
H213  H     H_    0.285361 0.599979 0.819511 0.000000
H214  H     H_    0.313588 0.557765 0.768495 0.000000
H215  H     H_    0.204450 0.543751 0.812156 0.000000
H216  H     H_    0.199425 0.574866 0.757523 0.000000
H217  H     H_    0.317244 0.423321 0.684051 0.000000
H218  H     H_    0.358415 0.339909 0.722039 0.000000
H219  H     H_    0.338370 0.310482 0.803759 0.000000
H220  H     H_    0.272914 0.358279 0.848884 0.000000
C199  C     C_3   0.097619 0.458107 0.792240 0.000000
N67   N     N_3   0.099746 0.491339 0.819491 0.000000
C200  C     C_3   0.051819 0.468759 0.862452 0.000000
C201  C     C_R   0.071926 0.494292 0.889036 0.000000
N68   N     N_R   0.125313 0.483728 0.892679 0.000000
C202  C     C_R   0.144969 0.531037 0.898322 0.000000
C203  C     C_R   0.196162 0.543995 0.904757 0.000000
C204  C     C_R   0.212199 0.598743 0.902738 0.000000
C205  C     C_R   0.177786 0.639488 0.893135 0.000000
C206  C     C_R   0.125257 0.624748 0.888540 0.000000
C207  C     C_R   0.107823 0.569481 0.893883 0.000000
N69   N     N_R   0.058870 0.546928 0.890075 0.000000
H221  H     H_    0.125036 0.484996 0.757279 0.000000
H222  H     H_    0.115506 0.419259 0.803771 0.000000
H223  H     H_    0.052386 0.446300 0.794952 0.000000
H224  H     H_    0.098732 0.533839 0.802681 0.000000
H225  H     H_    0.010472 0.482296 0.860651 0.000000
H226  H     H_    0.046581 0.422078 0.877033 0.000000
H227  H     H_    0.222120 0.512282 0.912643 0.000000
H228  H     H_    0.252634 0.610580 0.907121 0.000000
H229  H     H_    0.191463 0.682710 0.890071 0.000000
H230  H     H_    0.098881 0.655919 0.881434 0.000000
C208  C     C_3   0.223437 0.207777 0.946262 0.000000
N70   N     N_3   0.242320 0.259233 0.952734 0.000000
C209  C     C_3   0.200769 0.297567 0.947175 0.000000
C210  C     C_R   0.221067 0.352222 0.951051 0.000000
N71   N     N_R   0.264196 0.357090 0.969772 0.000000
C211  C     C_R   0.300928 0.405131 0.937966 0.000000
C212  C     C_R   0.355670 0.427817 0.934584 0.000000
C213  C     C_R   0.387327 0.475634 0.897141 0.000000
C214  C     C_R   0.364182 0.500091 0.863887 0.000000
C215  C     C_R   0.309136 0.476783 0.867798 0.000000
C216  C     C_R   0.278245 0.429846 0.905523 0.000000
N72   N     N_R   0.225693 0.399734 0.914585 0.000000
H231  H     H_    0.245305 0.173284 0.961278 0.000000
H232  H     H_    0.175107 0.194111 0.962949 0.000000
H233  H     H_    0.236507 0.215911 0.909436 0.000000
H234  H     H_    0.281549 0.279319 0.925425 0.000000
H235  H     H_    0.200367 0.307564 0.912603 0.000000
H236  H     H_    0.155080 0.278275 0.969356 0.000000
H237  H     H_    0.374512 0.409450 0.959540 0.000000
H238  H     H_    0.430517 0.494013 0.893795 0.000000
H239  H     H_    0.389295 0.537435 0.834795 0.000000
H240  H     H_    0.290673 0.495410 0.842331 0.000000
C217  C     C_3   0.819932 0.010425 0.176475 0.000000
N73   N     N_3   0.813574 0.966146 0.158080 0.000000
C218  C     C_3   0.805553 0.991420 0.115359 0.000000
C219  C     C_R   0.791695 0.946823 0.098479 0.000000
N74   N     N_R   0.830911 0.946120 0.058717 0.000000
C220  C     C_R   0.796415 0.926264 0.040588 0.000000
C221  C     C_R   0.811816 0.930174 0.996209 0.000000
C222  C     C_R   0.766843 0.920055 0.981265 0.000000
C223  C     C_R   0.708673 0.904530 0.011038 0.000000
C224  C     C_R   0.694690 0.898250 0.056213 0.000000
C225  C     C_R   0.739774 0.910130 0.070183 0.000000
N75   N     N_R   0.734786 0.921580 0.108128 0.000000
H241  H     H_    0.858399 0.007380 0.186932 0.000000
H242  H     H_    0.824586 0.053505 0.151448 0.000000
H243  H     H_    0.782207 0.002563 0.207918 0.000000
H244  H     H_    0.774799 0.937678 0.179699 0.000000
H245  H     H_    0.771719 0.018404 0.117371 0.000000
H246  H     H_    0.845821 0.019688 0.089654 0.000000
H247  H     H_    0.856760 0.945389 0.972774 0.000000
H248  H     H_    0.776858 0.925448 0.945969 0.000000
H249  H     H_    0.673787 0.898463 0.998561 0.000000
H250  H     H_    0.649357 0.891248 0.077798 0.000000
C226  C     C_3   0.093244 0.892502 0.004082 0.000000
N76   N     N_3   0.074951 0.898752 0.048446 0.000000
C227  C     C_3   0.015702 0.868495 0.078368 0.000000
C228  C     C_R   0.983616 0.905544 0.101057 0.000000
N77   N     N_R   0.991714 0.912477 0.138467 0.000000
C229  C     C_R   0.975681 0.964678 0.135309 0.000000
C230  C     C_R   0.975770 0.997780 0.161356 0.000000
C231  C     C_R   0.966361 0.053363 0.146936 0.000000
C232  C     C_R   0.954121 0.075323 0.107685 0.000000
C233  C     C_R   0.950446 0.041184 0.083212 0.000000
C234  C     C_R   0.958740 0.985705 0.098867 0.000000
N78   N     N_R   0.958474 0.947621 0.078677 0.000000
H251  H     H_    0.139989 0.887025 0.994262 0.000000
H252  H     H_    0.066476 0.855366 0.004396 0.000000
H253  H     H_    0.091307 0.931045 0.977473 0.000000
H254  H     H_    0.078810 0.941654 0.044798 0.000000
H255  H     H_    0.991338 0.857204 0.059062 0.000000
H256  H     H_    0.018601 0.829838 0.104550 0.000000
H257  H     H_    0.976981 0.981649 0.194249 0.000000
H258  H     H_    0.966525 0.079154 0.167432 0.000000
H259  H     H_    0.946854 0.118816 0.096520 0.000000
H260  H     H_    0.941424 0.058342 0.052484 0.000000
C235  C     C_3   0.872385 0.798950 0.140980 0.000000
N79   N     N_3   0.852254 0.837215 0.108627 0.000000
C236  C     C_3   0.850807 0.810470 0.076492 0.000000
C237  C     C_R   0.905332 0.829710 0.034765 0.000000
N80   N     N_R   0.931534 0.886362 0.010281 0.000000
C238  C     C_R   0.971488 0.883106 0.972610 0.000000
C239  C     C_R   0.008408 0.927164 0.935078 0.000000
C240  C     C_R   0.046447 0.913541 0.900270 0.000000
C241  C     C_R   0.046492 0.856989 0.903404 0.000000
C242  C     C_R   0.007901 0.813069 0.941092 0.000000
C243  C     C_R   0.970718 0.827447 0.975227 0.000000
N81   N     N_R   0.929371 0.792087 0.014205 0.000000
H261  H     H_    0.912611 0.787283 0.121910 0.000000
H262  H     H_    0.881752 0.820362 0.163097 0.000000
H263  H     H_    0.838666 0.760342 0.161398 0.000000
H264  H     H_    0.884068 0.873137 0.091799 0.000000
H265  H     H_    0.846014 0.764282 0.093406 0.000000
H266  H     H_    0.812171 0.820090 0.066890 0.000000
H267  H     H_    0.007579 0.970953 0.932299 0.000000
H268  H     H_    0.076375 0.947238 0.870305 0.000000
H269  H     H_    0.076725 0.847338 0.875966 0.000000
H270  H     H_    0.007532 0.769170 0.943565 0.000000
C244  C     C_3   0.853494 0.279192 0.739802 0.000000
N82   N     N_3   0.893784 0.327109 0.701851 0.000000
C245  C     C_3   0.934917 0.353532 0.716373 0.000000
C246  C     C_R   0.982181 0.393227 0.675699 0.000000
N83   N     N_R   0.032554 0.375232 0.653482 0.000000
C247  C     C_R   0.046920 0.412067 0.610658 0.000000
C248  C     C_R   0.088127 0.409715 0.572457 0.000000
C249  C     C_R   0.094224 0.449579 0.530983 0.000000
C250  C     C_R   0.056552 0.488759 0.528387 0.000000
C251  C     C_R   0.013162 0.488414 0.567371 0.000000
C252  C     C_R   0.010130 0.450818 0.608040 0.000000
N84   N     N_R   0.969257 0.441928 0.648879 0.000000
H271  H     H_    0.808623 0.279097 0.738299 0.000000
H272  H     H_    0.867490 0.238933 0.737117 0.000000
H273  H     H_    0.852416 0.282287 0.772523 0.000000
H274  H     H_    0.869182 0.357303 0.690793 0.000000
H275  H     H_    0.912282 0.375732 0.738836 0.000000
H276  H     H_    0.955738 0.321868 0.733700 0.000000
H277  H     H_    0.111583 0.375108 0.574368 0.000000
H278  H     H_    0.126782 0.448643 0.500320 0.000000
H279  H     H_    0.060623 0.518748 0.495641 0.000000
H280  H     H_    0.981038 0.515007 0.566531 0.000000
C253  C     C_3   0.091542 0.446231 0.700388 0.000000
N85   N     N_3   0.102184 0.395378 0.730511 0.000000
C254  C     C_3   0.164411 0.396967 0.719182 0.000000
C255  C     C_R   0.191642 0.415257 0.670462 0.000000
N86   N     N_R   0.174139 0.386169 0.646770 0.000000
C256  C     C_R   0.213280 0.414496 0.603939 0.000000
C257  C     C_R   0.222229 0.402578 0.564784 0.000000
C258  C     C_R   0.263393 0.439463 0.524435 0.000000
C259  C     C_R   0.295332 0.487572 0.523131 0.000000
C260  C     C_R   0.287664 0.498136 0.562566 0.000000
C261  C     C_R   0.247921 0.460289 0.602719 0.000000
N87   N     N_R   0.234957 0.462775 0.644519 0.000000
H281  H     H_    0.046613 0.450057 0.716554 0.000000
H282  H     H_    0.121716 0.484838 0.694130 0.000000
H283  H     H_    0.093275 0.441740 0.668358 0.000000
H284  H     H_    0.085690 0.361670 0.723841 0.000000
H285  H     H_    0.182529 0.426359 0.731613 0.000000
H286  H     H_    0.172963 0.353666 0.733423 0.000000
H287  H     H_    0.199906 0.365458 0.563947 0.000000
H288  H     H_    0.270242 0.430744 0.493612 0.000000
H289  H     H_    0.326612 0.516825 0.491243 0.000000
H290  H     H_    0.312151 0.535428 0.561132 0.000000
C262  C     C_3   0.967745 0.298534 0.602949 0.000000
N88   N     N_3   0.016212 0.288288 0.619423 0.000000
C263  C     C_3   0.051502 0.256414 0.594940 0.000000
C264  C     C_R   0.111018 0.257823 0.598089 0.000000
N89   N     N_R   0.127633 0.279443 0.626399 0.000000
C265  C     C_R   0.181721 0.265331 0.621588 0.000000
C266  C     C_R   0.218169 0.273022 0.644407 0.000000
C267  C     C_R   0.267293 0.247001 0.639419 0.000000
C268  C     C_R   0.280426 0.215847 0.610871 0.000000
C269  C     C_R   0.245523 0.211884 0.585954 0.000000
C270  C     C_R   0.196029 0.236719 0.592414 0.000000
N90   N     N_R   0.153282 0.232584 0.575593 0.000000
H291  H     H_    0.984524 0.329075 0.567456 0.000000
H292  H     H_    0.945168 0.257819 0.604731 0.000000
H293  H     H_    0.935833 0.317330 0.623965 0.000000
H294  H     H_    0.998204 0.261915 0.653570 0.000000
H295  H     H_    0.028849 0.211664 0.611245 0.000000
H296  H     H_    0.056518 0.274415 0.558705 0.000000
H297  H     H_    0.206454 0.293546 0.669096 0.000000
H298  H     H_    0.295099 0.250204 0.658485 0.000000
H299  H     H_    0.318751 0.195455 0.607439 0.000000
H300  H     H_    0.255758 0.187900 0.563556 0.000000
C271  C     C_3   0.052806 0.553174 0.002582 0.000000
N91   N     N_3   0.015992 0.577196 0.977465 0.000000
C272  C     C_3   0.015030 0.636582 0.972070 0.000000
C273  C     C_R   0.964836 0.650581 0.957602 0.000000
N92   N     N_R   0.955101 0.633783 0.924347 0.000000
C274  C     C_R   0.904026 0.650919 0.924442 0.000000
C275  C     C_R   0.876913 0.651446 0.894332 0.000000
C276  C     C_R   0.821153 0.665405 0.903177 0.000000
C277  C     C_R   0.791749 0.670055 0.944570 0.000000
C278  C     C_R   0.821173 0.669583 0.973769 0.000000
C279  C     C_R   0.880484 0.669114 0.959336 0.000000
N93   N     N_R   0.919129 0.672834 0.980204 0.000000
H301  H     H_    0.042440 0.505987 0.014555 0.000000
H302  H     H_    0.099387 0.567157 0.980244 0.000000
H303  H     H_    0.044495 0.566613 0.031974 0.000000
H304  H     H_    0.973056 0.555854 0.996669 0.000000
H305  H     H_    0.009772 0.644312 0.003502 0.000000
H306  H     H_    0.056197 0.664352 0.946569 0.000000
H307  H     H_    0.899328 0.642217 0.864562 0.000000
H308  H     H_    0.797776 0.666846 0.880426 0.000000
H309  H     H_    0.745404 0.672623 0.954531 0.000000
H310  H     H_    0.796320 0.663605 0.008006 0.000000
C280  C     C_3   0.856428 0.666424 0.778634 0.000000
N94   N     N_3   0.919229 0.680919 0.768387 0.000000
C281  C     C_3   0.944843 0.629281 0.774356 0.000000
C282  C     C_R   0.004902 0.641312 0.775142 0.000000
N95   N     N_R   0.047362 0.680665 0.736850 0.000000
C283  C     C_R   0.072046 0.712242 0.755023 0.000000
C284  C     C_R   0.106263 0.766123 0.733848 0.000000
C285  C     C_R   0.120053 0.794087 0.759828 0.000000
C286  C     C_R   0.095891 0.770609 0.806532 0.000000
C287  C     C_R   0.058277 0.718822 0.827362 0.000000
C288  C     C_R   0.049531 0.688809 0.801250 0.000000
N96   N     N_R   0.010342 0.640687 0.815439 0.000000
H311  H     H_    0.832299 0.654656 0.815117 0.000000
H312  H     H_    0.840554 0.704378 0.761242 0.000000
H313  H     H_    0.847234 0.630507 0.767873 0.000000
H314  H     H_    0.925008 0.699698 0.790860 0.000000
H315  H     H_    0.918185 0.596105 0.806598 0.000000
H316  H     H_    0.946589 0.614460 0.746431 0.000000
H317  H     H_    0.119416 0.789394 0.698339 0.000000
H318  H     H_    0.146886 0.836164 0.743526 0.000000
H319  H     H_    0.104195 0.794115 0.826672 0.000000
H320  H     H_    0.034775 0.704414 0.863156 0.000000
C289  C     C_3   0.387098 0.435986 0.092033 0.000000
N97   N     N_3   0.394265 0.381466 0.086695 0.000000
C290  C     C_3   0.410550 0.391299 0.038933 0.000000
C291  C     C_R   0.413593 0.337824 0.030200 0.000000
N98   N     N_R   0.467795 0.323198 0.013629 0.000000
C292  C     C_R   0.460374 0.299321 0.984423 0.000000
C293  C     C_R   0.502270 0.282387 0.954256 0.000000
C294  C     C_R   0.484030 0.259208 0.927039 0.000000
C295  C     C_R   0.425018 0.252172 0.931366 0.000000
C296  C     C_R   0.383916 0.269884 0.961908 0.000000
C297  C     C_R   0.403218 0.294904 0.986941 0.000000
N99   N     N_R   0.371676 0.318474 0.015931 0.000000
H321  H     H_    0.406403 0.441577 0.115567 0.000000
H322  H     H_    0.408146 0.472182 0.059472 0.000000
H323  H     H_    0.340700 0.436369 0.108969 0.000000
H324  H     H_    0.352578 0.356671 0.101860 0.000000
H325  H     H_    0.376774 0.409436 0.026589 0.000000
H326  H     H_    0.453312 0.420225 0.018888 0.000000
H327  H     H_    0.547434 0.285536 0.952479 0.000000
H328  H     H_    0.515585 0.244966 0.903212 0.000000
H329  H     H_    0.411093 0.232587 0.910827 0.000000
H330  H     H_    0.338170 0.263952 0.966470 0.000000
C298  C     C_3   0.299943 0.529500 0.977514 0.000000
N100  N     N_3   0.262612 0.478736 0.014439 0.000000
C299  C     C_3   0.284292 0.467958 0.051551 0.000000
C300  C     C_R   0.256009 0.410036 0.087302 0.000000
N101  N     N_R   0.230596 0.401361 0.133577 0.000000
C301  C     C_R   0.209906 0.344804 0.151023 0.000000
C302  C     C_R   0.186543 0.307908 0.195117 0.000000
C303  C     C_R   0.147777 0.259763 0.204344 0.000000
C304  C     C_R   0.134998 0.250663 0.169232 0.000000
C305  C     C_R   0.169101 0.283360 0.125295 0.000000
C306  C     C_R   0.214164 0.324025 0.117895 0.000000
N102  N     N_R   0.249519 0.360851 0.077396 0.000000
H331  H     H_    0.294357 0.567257 0.987856 0.000000
H332  H     H_    0.346911 0.524794 0.967646 0.000000
H333  H     H_    0.287229 0.535729 0.947564 0.000000
H334  H     H_    0.267107 0.444556 0.003327 0.000000
H335  H     H_    0.331958 0.473529 0.037496 0.000000
H336  H     H_    0.274886 0.500643 0.066964 0.000000
H337  H     H_    0.194203 0.316828 0.222373 0.000000
H338  H     H_    0.123329 0.233105 0.239028 0.000000
H339  H     H_    0.099754 0.217819 0.175577 0.000000
H340  H     H_    0.155978 0.282377 0.098011 0.000000
C307  C     C_3   0.314564 0.247409 0.168524 0.000000
N103  N     N_3   0.277590 0.206276 0.161614 0.000000
C308  C     C_3   0.301570 0.210162 0.114712 0.000000
C309  C     C_R   0.254989 0.193208 0.099978 0.000000
N104  N     N_R   0.219878 0.139506 0.118303 0.000000
C310  C     C_R   0.181656 0.148608 0.095986 0.000000
C311  C     C_R   0.134309 0.111619 0.100812 0.000000
C312  C     C_R   0.100801 0.131099 0.074608 0.000000
C313  C     C_R   0.107459 0.188567 0.051039 0.000000
C314  C     C_R   0.153231 0.225643 0.048677 0.000000
C315  C     C_R   0.193494 0.203653 0.066827 0.000000
N105  N     N_R   0.241299 0.232969 0.066945 0.000000
H341  H     H_    0.310657 0.232879 0.204312 0.000000
H342  H     H_    0.361459 0.252513 0.147081 0.000000
H343  H     H_    0.298840 0.288248 0.161537 0.000000
H344  H     H_    0.235634 0.215839 0.168241 0.000000
H345  H     H_    0.321619 0.254656 0.093634 0.000000
H346  H     H_    0.333222 0.181732 0.109717 0.000000
H347  H     H_    0.121712 0.068978 0.124099 0.000000
H348  H     H_    0.067465 0.101632 0.074321 0.000000
H349  H     H_    0.077050 0.204165 0.034416 0.000000
H350  H     H_    0.156337 0.271065 0.034567 0.000000
C316  C     C_3   0.990246 0.610458 0.490528 0.000000
N106  N     N_3   0.928926 0.582611 0.514933 0.000000
C317  C     C_3   0.908505 0.592156 0.557741 0.000000
C318  C     C_R   0.853934 0.550844 0.589641 0.000000
N107  N     N_R   0.801187 0.551136 0.582384 0.000000
C319  C     C_R   0.763678 0.511749 0.621591 0.000000
C320  C     C_R   0.704668 0.492132 0.632878 0.000000
C321  C     C_R   0.678889 0.441247 0.668639 0.000000
C322  C     C_R   0.712262 0.410836 0.691520 0.000000
C323  C     C_R   0.770203 0.433465 0.681772 0.000000
C324  C     C_R   0.794005 0.485152 0.647964 0.000000
N108  N     N_R   0.850838 0.510284 0.630205 0.000000
H351  H     H_    0.010942 0.593582 0.463541 0.000000
H352  H     H_    0.992648 0.656947 0.475822 0.000000
H353  H     H_    0.016202 0.601691 0.512788 0.000000
H354  H     H_    0.926647 0.538854 0.521853 0.000000
H355  H     H_    0.941479 0.586578 0.574069 0.000000
H356  H     H_    0.901420 0.636482 0.551357 0.000000
H357  H     H_    0.680331 0.511505 0.612049 0.000000
H358  H     H_    0.633666 0.423125 0.676654 0.000000
H359  H     H_    0.692949 0.368843 0.716733 0.000000
H360  H     H_    0.797299 0.409602 0.697966 0.000000
C325  C     C_3   0.086652 0.686511 0.520438 0.000000
N109  N     N_3   0.032873 0.661063 0.559898 0.000000
C326  C     C_3   0.047230 0.618330 0.594710 0.000000
C327  C     C_R   0.003602 0.608367 0.639821 0.000000
N110  N     N_R   0.004358 0.652901 0.655050 0.000000
C328  C     C_R   0.947513 0.660236 0.665372 0.000000
C329  C     C_R   0.924667 0.708186 0.667814 0.000000
C330  C     C_R   0.865140 0.706860 0.675440 0.000000
C331  C     C_R   0.829263 0.657392 0.682318 0.000000
C332  C     C_R   0.853754 0.610876 0.676612 0.000000
C333  C     C_R   0.913647 0.615435 0.665201 0.000000
N111  N     N_R   0.947500 0.580225 0.650658 0.000000
H361  H     H_    0.076192 0.716201 0.492386 0.000000
H362  H     H_    0.118287 0.710549 0.528677 0.000000
H363  H     H_    0.106796 0.653121 0.508984 0.000000
H364  H     H_    0.019013 0.693828 0.571390 0.000000
H365  H     H_    0.047757 0.577985 0.588294 0.000000
H366  H     H_    0.088538 0.636421 0.595278 0.000000
H367  H     H_    0.952315 0.747253 0.659968 0.000000
H368  H     H_    0.846214 0.744413 0.676895 0.000000
H369  H     H_    0.782502 0.656309 0.689793 0.000000
H370  H     H_    0.826749 0.573610 0.679207 0.000000
C334  C     C_3   0.413537 0.399271 0.624740 0.000000
N112  N     N_3   0.411611 0.457378 0.598591 0.000000
C335  C     C_3   0.425784 0.497435 0.618897 0.000000
C336  C     C_R   0.412853 0.553374 0.595347 0.000000
N113  N     N_R   0.450397 0.588024 0.551942 0.000000
C337  C     C_R   0.415402 0.622924 0.538171 0.000000
C338  C     C_R   0.421465 0.650628 0.493791 0.000000
C339  C     C_R   0.376791 0.677925 0.485078 0.000000
C340  C     C_R   0.330593 0.681984 0.520396 0.000000
C341  C     C_R   0.323968 0.650877 0.564574 0.000000
C342  C     C_R   0.363647 0.615858 0.572561 0.000000
N114  N     N_R   0.357427 0.568750 0.609308 0.000000
H371  H     H_    0.440951 0.399003 0.645742 0.000000
H372  H     H_    0.368374 0.375708 0.645639 0.000000
H373  H     H_    0.431060 0.376240 0.601456 0.000000
H374  H     H_    0.368532 0.458367 0.599549 0.000000
H375  H     H_    0.399847 0.483633 0.655297 0.000000
H376  H     H_    0.472799 0.502119 0.615129 0.000000
H377  H     H_    0.457149 0.646782 0.466453 0.000000
H378  H     H_    0.377824 0.696109 0.450815 0.000000
H379  H     H_    0.297474 0.706603 0.513504 0.000000
H380  H     H_    0.287709 0.654585 0.590749 0.000000
C343  C     C_3   0.164209 0.555320 0.551537 0.000000
N115  N     N_3   0.143709 0.553759 0.598204 0.000000
C344  C     C_3   0.181713 0.598860 0.599591 0.000000
C345  C     C_R   0.170043 0.601174 0.646051 0.000000
N116  N     N_R   0.148779 0.647985 0.656103 0.000000
C346  C     C_R   0.189784 0.665782 0.670431 0.000000
C347  C     C_R   0.200962 0.718389 0.672271 0.000000
C348  C     C_R   0.251569 0.733913 0.679265 0.000000
C349  C     C_R   0.292924 0.698341 0.679869 0.000000
C350  C     C_R   0.282453 0.646405 0.675250 0.000000
C351  C     C_R   0.228999 0.630067 0.673081 0.000000
N117  N     N_R   0.215317 0.586182 0.661571 0.000000
H381  H     H_    0.205279 0.586807 0.530096 0.000000
H382  H     H_    0.172709 0.512687 0.551346 0.000000
H383  H     H_    0.130323 0.566677 0.536475 0.000000
H384  H     H_    0.153827 0.516335 0.616298 0.000000
H385  H     H_    0.225975 0.588122 0.589279 0.000000
H386  H     H_    0.182286 0.641129 0.575168 0.000000
H387  H     H_    0.175335 0.749161 0.662016 0.000000
H388  H     H_    0.261367 0.775969 0.680068 0.000000
H389  H     H_    0.334351 0.712179 0.682097 0.000000
H390  H     H_    0.315892 0.619884 0.672554 0.000000
C352  C     C_3   0.997479 0.038452 0.522139 0.000000
N118  N     N_3   0.043926 0.028136 0.540735 0.000000
C353  C     C_3   0.094550 0.073019 0.512142 0.000000
C354  C     C_R   0.140698 0.068908 0.533290 0.000000
N119  N     N_R   0.159737 0.018188 0.548679 0.000000
C355  C     C_R   0.175836 0.023606 0.582281 0.000000
C356  C     C_R   0.191847 0.982321 0.612723 0.000000
C357  C     C_R   0.200264 0.994823 0.648138 0.000000
C358  C     C_R   0.190138 0.046628 0.653201 0.000000
C359  C     C_R   0.173662 0.087436 0.622044 0.000000
C360  C     C_R   0.169656 0.076122 0.585269 0.000000
N120  N     N_R   0.152131 0.108272 0.551954 0.000000
H391  H     H_    0.014198 0.043242 0.485859 0.000000
H392  H     H_    0.960126 0.002294 0.541262 0.000000
H393  H     H_    0.981347 0.077430 0.525666 0.000000
H394  H     H_    0.028585 0.032929 0.572283 0.000000
H395  H     H_    0.111096 0.073525 0.477343 0.000000
H396  H     H_    0.079867 0.113300 0.509337 0.000000
H397  H     H_    0.196360 0.941052 0.609767 0.000000
H398  H     H_    0.212357 0.963202 0.673080 0.000000
H399  H     H_    0.193661 0.054572 0.682427 0.000000
H400  H     H_    0.159976 0.124567 0.628758 0.000000
C361  C     C_3   0.364731 0.332917 0.524822 0.000000
N121  N     N_3   0.362994 0.297816 0.497676 0.000000
C362  C     C_3   0.312961 0.306711 0.482954 0.000000
C363  C     C_R   0.302173 0.264024 0.462650 0.000000
N122  N     N_R   0.340459 0.262668 0.421842 0.000000
C364  C     C_R   0.307089 0.224599 0.414865 0.000000
C365  C     C_R   0.316910 0.215480 0.375619 0.000000
C366  C     C_R   0.270607 0.195285 0.366601 0.000000
C367  C     C_R   0.216149 0.175505 0.400314 0.000000
C368  C     C_R   0.209721 0.176357 0.442332 0.000000
C369  C     C_R   0.254421 0.204505 0.447961 0.000000
N123  N     N_R   0.248506 0.227472 0.479604 0.000000
H401  H     H_    0.400516 0.324206 0.538608 0.000000
H402  H     H_    0.372659 0.378564 0.503841 0.000000
H403  H     H_    0.322354 0.324165 0.553035 0.000000
H404  H     H_    0.356807 0.255083 0.518020 0.000000
H405  H     H_    0.272857 0.303608 0.511517 0.000000
H406  H     H_    0.320972 0.350106 0.458003 0.000000
H407  H     H_    0.356987 0.233762 0.349315 0.000000
H408  H     H_    0.277941 0.193545 0.333504 0.000000
H409  H     H_    0.179361 0.157325 0.394625 0.000000
H410  H     H_    0.167797 0.163403 0.467387 0.000000
C370  C     C_3   0.241201 0.378271 0.412722 0.000000
N124  N     N_3   0.192615 0.331701 0.443429 0.000000
C371  C     C_3   0.174002 0.303561 0.416771 0.000000
C372  C     C_R   0.121253 0.259126 0.446249 0.000000
N125  N     N_R   0.072637 0.255778 0.434241 0.000000
C373  C     C_R   0.030116 0.224013 0.474294 0.000000
C374  C     C_R   0.970467 0.212706 0.483964 0.000000
C375  C     C_R   0.934581 0.181678 0.528441 0.000000
C376  C     C_R   0.958822 0.159905 0.561503 0.000000
C377  C     C_R   0.019016 0.171206 0.550737 0.000000
C378  C     C_R   0.052800 0.206982 0.507590 0.000000
N126  N     N_R   0.110848 0.227101 0.491061 0.000000
H411  H     H_    0.249480 0.405879 0.431067 0.000000
H412  H     H_    0.281435 0.361099 0.400055 0.000000
H413  H     H_    0.231021 0.404319 0.383202 0.000000
H414  H     H_    0.157493 0.349345 0.458555 0.000000
H415  H     H_    0.160000 0.334159 0.391874 0.000000
H416  H     H_    0.210258 0.286247 0.398503 0.000000
H417  H     H_    0.951531 0.227336 0.458155 0.000000
H418  H     H_    0.887422 0.172831 0.537312 0.000000
H419  H     H_    0.930664 0.133352 0.595566 0.000000
H420  H     H_    0.038984 0.152074 0.575305 0.000000
C379  C     C_3   0.536496 0.282141 0.206950 0.000000
N127  N     N_3   0.539091 0.334043 0.170927 0.000000
C380  C     C_3   0.496075 0.325780 0.150575 0.000000
C381  C     C_R   0.505081 0.378680 0.111426 0.000000
N128  N     N_R   0.498690 0.430517 0.116738 0.000000
C382  C     C_R   0.522956 0.467494 0.073595 0.000000
C383  C     C_R   0.531143 0.525777 0.058647 0.000000
C384  C     C_R   0.556906 0.556425 0.012774 0.000000
C385  C     C_R   0.576414 0.528129 0.982909 0.000000
C386  C     C_R   0.571002 0.469512 0.999121 0.000000
C387  C     C_R   0.542407 0.439721 0.044438 0.000000
N129  N     N_R   0.530485 0.382798 0.066635 0.000000
H421  H     H_    0.516823 0.288107 0.239774 0.000000
H422  H     H_    0.510751 0.245613 0.205458 0.000000
H423  H     H_    0.581897 0.274212 0.203126 0.000000
H424  H     H_    0.580869 0.342894 0.146133 0.000000
H425  H     H_    0.501758 0.289912 0.138748 0.000000
H426  H     H_    0.451157 0.316115 0.175518 0.000000
H427  H     H_    0.520688 0.547196 0.082094 0.000000
H428  H     H_    0.563585 0.602497 0.000402 0.000000
H429  H     H_    0.598119 0.552059 0.947033 0.000000
H430  H     H_    0.591230 0.448669 0.976973 0.000000
C388  C     C_3   0.466169 0.115130 0.040039 0.000000
N130  N     N_3   0.473003 0.175377 0.033180 0.000000
C389  C     C_3   0.448994 0.183166 0.076530 0.000000
C390  C     C_R   0.495063 0.193221 0.094992 0.000000
N131  N     N_R   0.533026 0.244641 0.078270 0.000000
C391  C     C_R   0.569277 0.232019 0.101803 0.000000
C392  C     C_R   0.612526 0.268390 0.102034 0.000000
C393  C     C_R   0.649365 0.245158 0.124355 0.000000
C394  C     C_R   0.641745 0.186701 0.145336 0.000000
C395  C     C_R   0.592414 0.151577 0.150162 0.000000
C396  C     C_R   0.554937 0.176611 0.129924 0.000000
N132  N     N_R   0.505912 0.151066 0.128812 0.000000
H431  H     H_    0.420278 0.099263 0.044686 0.000000
H432  H     H_    0.496684 0.108875 0.009700 0.000000
H433  H     H_    0.476174 0.091111 0.069948 0.000000
H434  H     H_    0.442858 0.188197 0.017484 0.000000
H435  H     H_    0.426808 0.220465 0.072307 0.000000
H436  H     H_    0.416844 0.145545 0.100178 0.000000
H437  H     H_    0.616879 0.313441 0.085333 0.000000
H438  H     H_    0.685264 0.272058 0.124589 0.000000
H439  H     H_    0.673972 0.169328 0.159015 0.000000
H440  H     H_    0.584976 0.106033 0.167531 0.000000
C397  C     C_3   0.519072 0.747727 0.275933 0.000000
N133  N     N_3   0.546831 0.805111 0.265842 0.000000
C398  C     C_3   0.592156 0.802297 0.285780 0.000000
C399  C     C_R   0.629365 0.860126 0.268660 0.000000
N134  N     N_R   0.649526 0.895877 0.223026 0.000000
C400  C     C_R   0.665281 0.946238 0.225394 0.000000
C401  C     C_R   0.679691 0.998163 0.190989 0.000000
C402  C     C_R   0.690242 0.046329 0.200494 0.000000
C403  C     C_R   0.679383 0.041679 0.244949 0.000000
C404  C     C_R   0.655415 0.989607 0.279419 0.000000
C405  C     C_R   0.655592 0.941780 0.268878 0.000000
N135  N     N_R   0.634414 0.887662 0.298070 0.000000
H441  H     H_    0.504822 0.724046 0.312916 0.000000
H442  H     H_    0.479784 0.749582 0.265894 0.000000
H443  H     H_    0.550244 0.726759 0.256464 0.000000
H444  H     H_    0.513890 0.822717 0.283189 0.000000
H445  H     H_    0.570724 0.788125 0.323058 0.000000
H446  H     H_    0.618845 0.770689 0.277666 0.000000
H447  H     H_    0.682415 0.001585 0.157564 0.000000
H448  H     H_    0.706604 0.087106 0.173324 0.000000
H449  H     H_    0.687195 0.078839 0.253150 0.000000
H450  H     H_    0.635653 0.986793 0.313598 0.000000
C406  C     C_3   0.736710 0.803958 0.225991 0.000000
N136  N     N_3   0.712997 0.818688 0.189832 0.000000
C407  C     C_3   0.691422 0.767254 0.185314 0.000000
C408  C     C_R   0.642187 0.773164 0.169511 0.000000
N137  N     N_R   0.617685 0.821528 0.161986 0.000000
C409  C     C_R   0.571907 0.805737 0.151305 0.000000
C410  C     C_R   0.532583 0.838167 0.138588 0.000000
C411  C     C_R   0.492547 0.814369 0.124767 0.000000
C412  C     C_R   0.495004 0.761134 0.120947 0.000000
C413  C     C_R   0.535590 0.729700 0.133182 0.000000
C414  C     C_R   0.571127 0.751329 0.151005 0.000000
N138  N     N_R   0.614481 0.728422 0.163701 0.000000
H451  H     H_    0.783591 0.801135 0.212749 0.000000
H452  H     H_    0.732448 0.837825 0.239705 0.000000
H453  H     H_    0.712233 0.764719 0.254654 0.000000
H454  H     H_    0.749670 0.838337 0.160691 0.000000
H455  H     H_    0.727332 0.757696 0.159918 0.000000
H456  H     H_    0.671068 0.733827 0.218903 0.000000
H457  H     H_    0.532543 0.880739 0.139005 0.000000
H458  H     H_    0.460373 0.838053 0.115268 0.000000
H459  H     H_    0.465698 0.744569 0.107566 0.000000
H460  H     H_    0.541187 0.690899 0.126587 0.000000
C415  C     C_3   0.514089 0.932670 0.281257 0.000000
N139  N     N_3   0.528567 0.969609 0.235028 0.000000
C416  C     C_3   0.528482 0.935671 0.207506 0.000000
C417  C     C_R   0.556296 0.973119 0.160596 0.000000
N140  N     N_R   0.539528 0.023445 0.140809 0.000000
C418  C     C_R   0.582790 0.044691 0.099323 0.000000
C419  C     C_R   0.590730 0.095437 0.064352 0.000000
C420  C     C_R   0.638574 0.109045 0.024711 0.000000
C421  C     C_R   0.680097 0.074076 0.021490 0.000000
C422  C     C_R   0.674317 0.025859 0.058011 0.000000
C423  C     C_R   0.623477 0.009618 0.095791 0.000000
N141  N     N_R   0.607799 0.963553 0.134570 0.000000
H461  H     H_    0.513405 0.958855 0.302301 0.000000
H462  H     H_    0.473358 0.902446 0.292022 0.000000
H463  H     H_    0.546161 0.906661 0.284444 0.000000
H464  H     H_    0.569388 0.995045 0.223575 0.000000
H465  H     H_    0.555101 0.902579 0.213412 0.000000
H466  H     H_    0.484309 0.914219 0.214000 0.000000
H467  H     H_    0.561287 0.124750 0.066164 0.000000
H468  H     H_    0.644428 0.148032 0.996612 0.000000
H469  H     H_    0.718431 0.085522 0.990833 0.000000
H470  H     H_    0.710472 0.004128 0.055823 0.000000
C424  C     C_3   0.804872 0.891543 0.260246 0.000000
N142  N     N_3   0.837559 0.854484 0.282463 0.000000
C425  C     C_3   0.898246 0.880836 0.256774 0.000000
C426  C     C_R   0.937292 0.851408 0.278343 0.000000
N143  N     N_R   0.927086 0.831037 0.324830 0.000000
C427  C     C_R   0.975795 0.807985 0.325388 0.000000
C428  C     C_R   0.989834 0.780089 0.362307 0.000000
C429  C     C_R   0.045459 0.765508 0.354746 0.000000
C430  C     C_R   0.083828 0.775195 0.311036 0.000000
C431  C     C_R   0.067533 0.800574 0.274209 0.000000
C432  C     C_R   0.013668 0.817407 0.282316 0.000000
N144  N     N_R   0.990701 0.844678 0.251360 0.000000
H471  H     H_    0.817376 0.935836 0.256850 0.000000
H472  H     H_    0.815795 0.889241 0.226253 0.000000
H473  H     H_    0.757551 0.878591 0.280465 0.000000
H474  H     H_    0.831388 0.817170 0.275980 0.000000
H475  H     H_    0.910416 0.878383 0.222498 0.000000
H476  H     H_    0.905258 0.925668 0.253485 0.000000
H477  H     H_    0.958739 0.770376 0.396100 0.000000
H478  H     H_    0.058627 0.744738 0.383161 0.000000
H479  H     H_    0.126561 0.762599 0.305801 0.000000
H480  H     H_    0.097061 0.808799 0.240266 0.000000
C433  C     C_3   0.959081 0.702222 0.273318 0.000000
N145  N     N_3   0.933350 0.731295 0.240221 0.000000
C434  C     C_3   0.959059 0.720833 0.198554 0.000000
C435  C     C_R   0.023650 0.736166 0.180669 0.000000
N146  N     N_R   0.055999 0.787576 0.173904 0.000000
C436  C     C_R   0.111734 0.776429 0.161503 0.000000
C437  C     C_R   0.163353 0.807074 0.157242 0.000000
C438  C     C_R   0.215727 0.789138 0.140459 0.000000
C439  C     C_R   0.216013 0.741115 0.128653 0.000000
C440  C     C_R   0.163481 0.707431 0.137964 0.000000
C441  C     C_R   0.112027 0.724319 0.157124 0.000000
N147  N     N_R   0.056815 0.696449 0.171115 0.000000
H481  H     H_    0.956481 0.725151 0.296110 0.000000
H482  H     H_    0.932846 0.659799 0.294205 0.000000
H483  H     H_    0.006186 0.700345 0.259768 0.000000
H484  H     H_    0.942036 0.774983 0.232313 0.000000
H485  H     H_    0.946285 0.675459 0.203942 0.000000
H486  H     H_    0.943293 0.746888 0.173332 0.000000
H487  H     H_    0.164399 0.843000 0.167742 0.000000
H488  H     H_    0.256764 0.813114 0.136071 0.000000
H489  H     H_    0.257348 0.728557 0.114017 0.000000
H490  H     H_    0.163597 0.669900 0.129319 0.000000
C442  C     C_3   0.015641 0.953010 0.285298 0.000000
N148  N     N_3   0.073459 0.950674 0.256146 0.000000
C443  C     C_3   0.073874 0.969607 0.210629 0.000000
C444  C     C_R   0.124124 0.958391 0.178071 0.000000
N149  N     N_R   0.173855 0.998676 0.151006 0.000000
C445  C     C_R   0.189580 0.989334 0.111717 0.000000
C446  C     C_R   0.235029 0.020104 0.071949 0.000000
C447  C     C_R   0.246064 0.999904 0.036541 0.000000
C448  C     C_R   0.212536 0.949672 0.042132 0.000000
C449  C     C_R   0.166205 0.920411 0.082448 0.000000
C450  C     C_R   0.154212 0.942471 0.116367 0.000000
N150  N     N_R   0.111485 0.922104 0.158086 0.000000
H491  H     H_    0.018260 0.984163 0.301414 0.000000
H492  H     H_    0.985943 0.964959 0.266151 0.000000
H493  H     H_    0.997959 0.912338 0.312948 0.000000
H494  H     H_    0.081294 0.909182 0.265239 0.000000
H495  H     H_    0.038614 0.941493 0.210604 0.000000
H496  H     H_    0.069444 0.015058 0.199147 0.000000
H497  H     H_    0.262091 0.057873 0.068814 0.000000
H498  H     H_    0.282016 0.022329 0.004884 0.000000
H499  H     H_    0.222972 0.933037 0.014875 0.000000
H500  H     H_    0.142379 0.880005 0.087736 0.000000
C451  C     C_3   0.220120 0.608145 0.193463 0.000000
N151  N     N_3   0.190756 0.550267 0.222519 0.000000
C452  C     C_3   0.130209 0.541659 0.224530 0.000000
C453  C     C_R   0.128286 0.540226 0.181192 0.000000
N152  N     N_R   0.100308 0.576475 0.157308 0.000000
C454  C     C_R   0.121466 0.571581 0.116548 0.000000
C455  C     C_R   0.118823 0.606428 0.076695 0.000000
C456  C     C_R   0.145376 0.594308 0.038319 0.000000
C457  C     C_R   0.161761 0.541551 0.042863 0.000000
C458  C     C_R   0.163921 0.507295 0.083928 0.000000
C459  C     C_R   0.152489 0.528754 0.117982 0.000000
N153  N     N_R   0.160847 0.509330 0.157927 0.000000
H501  H     H_    0.265055 0.614750 0.194300 0.000000
H502  H     H_    0.224559 0.615465 0.157948 0.000000
H503  H     H_    0.195808 0.638791 0.206363 0.000000
H504  H     H_    0.187589 0.548302 0.254844 0.000000
H505  H     H_    0.105851 0.500838 0.251838 0.000000
H506  H     H_    0.109430 0.577564 0.230594 0.000000
H507  H     H_    0.098807 0.643003 0.075054 0.000000
H508  H     H_    0.146814 0.623015 0.005803 0.000000
H509  H     H_    0.172481 0.527431 0.014287 0.000000
H510  H     H_    0.171335 0.464514 0.089521 0.000000
C460  C     C_3   0.288849 0.529270 0.285809 0.000000
N154  N     N_3   0.308103 0.529046 0.239741 0.000000
C461  C     C_3   0.314014 0.471486 0.240211 0.000000
C462  C     C_R   0.331850 0.472637 0.192961 0.000000
N155  N     N_R   0.292830 0.488882 0.170914 0.000000
C463  C     C_R   0.326720 0.532988 0.133546 0.000000
C464  C     C_R   0.309118 0.570960 0.102121 0.000000
C465  C     C_R   0.350190 0.617244 0.069159 0.000000
C466  C     C_R   0.406681 0.626134 0.069632 0.000000
C467  C     C_R   0.423452 0.587386 0.101675 0.000000
C468  C     C_R   0.383693 0.538920 0.131590 0.000000
N156  N     N_R   0.389681 0.496791 0.166403 0.000000
H511  H     H_    0.283033 0.485832 0.310682 0.000000
H512  H     H_    0.321379 0.559023 0.288696 0.000000
H513  H     H_    0.247237 0.545957 0.293296 0.000000
H514  H     H_    0.349448 0.554970 0.222015 0.000000
H515  H     H_    0.348240 0.456640 0.254051 0.000000
H516  H     H_    0.271613 0.443285 0.259979 0.000000
H517  H     H_    0.264314 0.566666 0.103730 0.000000
H518  H     H_    0.337275 0.648275 0.044409 0.000000
H519  H     H_    0.437236 0.664541 0.045712 0.000000
H520  H     H_    0.464501 0.598302 0.105223 0.000000
C469  C     C_3   0.129291 0.451029 0.370274 0.000000
N157  N     N_3   0.109236 0.419564 0.346290 0.000000
C470  C     C_3   0.160140 0.414895 0.310889 0.000000
C471  C     C_R   0.141088 0.378780 0.288415 0.000000
N158  N     N_R   0.096289 0.331836 0.313072 0.000000
C472  C     C_R   0.078402 0.324650 0.280193 0.000000
C473  C     C_R   0.033718 0.284824 0.284197 0.000000
C474  C     C_R   0.017884 0.290535 0.246802 0.000000
C475  C     C_R   0.044990 0.336488 0.206681 0.000000
C476  C     C_R   0.090683 0.375182 0.202777 0.000000
C477  C     C_R   0.107802 0.366989 0.239713 0.000000
N159  N     N_R   0.153019 0.397943 0.241839 0.000000
H521  H     H_    0.136410 0.421262 0.399910 0.000000
H522  H     H_    0.170259 0.481484 0.347717 0.000000
H523  H     H_    0.095042 0.474685 0.382888 0.000000
H524  H     H_    0.084181 0.444322 0.330272 0.000000
H525  H     H_    0.180033 0.457168 0.285205 0.000000
H526  H     H_    0.192938 0.397914 0.325354 0.000000
H527  H     H_    0.009865 0.250367 0.315304 0.000000
H528  H     H_    0.982496 0.260129 0.249478 0.000000
H529  H     H_    0.031417 0.341240 0.177992 0.000000
H530  H     H_    0.113085 0.409435 0.171029 0.000000
C478  C     C_3   0.114848 0.763207 0.039237 0.000000
N160  N     N_3   0.059183 0.743136 0.036346 0.000000
C479  C     C_3   0.011299 0.731824 0.079402 0.000000
C480  C     C_R   0.978201 0.673027 0.096681 0.000000
N161  N     N_R   0.943036 0.658448 0.075497 0.000000
C481  C     C_R   0.942676 0.602004 0.085795 0.000000
C482  C     C_R   0.913297 0.564696 0.073977 0.000000
C483  C     C_R   0.920085 0.508125 0.087947 0.000000
C484  C     C_R   0.957625 0.490536 0.111514 0.000000
C485  C     C_R   0.986945 0.528826 0.123036 0.000000
C486  C     C_R   0.977178 0.584365 0.110762 0.000000
N162  N     N_R   0.994898 0.626949 0.122850 0.000000
H531  H     H_    0.148643 0.781612 0.004588 0.000000
H532  H     H_    0.110090 0.795801 0.055289 0.000000
H533  H     H_    0.130791 0.728552 0.059841 0.000000
H534  H     H_    0.062343 0.705617 0.029344 0.000000
H535  H     H_    0.029134 0.737467 0.104025 0.000000
H536  H     H_    0.980822 0.761468 0.073884 0.000000
H537  H     H_    0.886381 0.578801 0.053760 0.000000
H538  H     H_    0.897415 0.477788 0.079184 0.000000
H539  H     H_    0.963051 0.446394 0.121767 0.000000
H540  H     H_    0.013019 0.514065 0.143816 0.000000
C487  C     C_3   0.777598 0.543232 0.202924 0.000000
N163  N     N_3   0.801260 0.599404 0.168275 0.000000
C488  C     C_3   0.779299 0.601334 0.132441 0.000000
C489  C     C_R   0.775584 0.660339 0.107303 0.000000
N164  N     N_R   0.722231 0.677955 0.114829 0.000000
C490  C     C_R   0.730815 0.721554 0.076015 0.000000
C491  C     C_R   0.688205 0.743361 0.060271 0.000000
C492  C     C_R   0.705030 0.778414 0.015318 0.000000
C493  C     C_R   0.763895 0.792606 0.987389 0.000000
C494  C     C_R   0.806131 0.769820 0.003687 0.000000
C495  C     C_R   0.787396 0.731553 0.047649 0.000000
N165  N     N_R   0.817457 0.693714 0.066394 0.000000
H541  H     H_    0.730109 0.538518 0.219530 0.000000
H542  H     H_    0.785781 0.510374 0.187221 0.000000
H543  H     H_    0.796022 0.537895 0.229900 0.000000
H544  H     H_    0.846863 0.604312 0.155071 0.000000
H545  H     H_    0.806927 0.582718 0.109166 0.000000
H546  H     H_    0.734410 0.576350 0.147279 0.000000
H547  H     H_    0.642493 0.728565 0.080391 0.000000
H548  H     H_    0.671911 0.794054 0.001624 0.000000
H549  H     H_    0.776484 0.819496 0.952122 0.000000
H550  H     H_    0.850973 0.776957 0.980756 0.000000
C496  C     C_3   0.264848 0.826879 0.575917 0.000000
N166  N     N_3   0.237671 0.830089 0.542477 0.000000
C497  C     C_3   0.181620 0.791243 0.562432 0.000000
C498  C     C_R   0.133624 0.813693 0.589902 0.000000
N167  N     N_R   0.126416 0.870616 0.579035 0.000000
C499  C     C_R   0.079913 0.868222 0.615349 0.000000
C500  C     C_R   0.053949 0.912485 0.623802 0.000000
C501  C     C_R   0.007071 0.901205 0.663823 0.000000
C502  C     C_R   0.987123 0.846044 0.694784 0.000000
C503  C     C_R   0.013719 0.802047 0.685568 0.000000
C504  C     C_R   0.059595 0.813858 0.645201 0.000000
N168  N     N_R   0.092113 0.777467 0.630356 0.000000
H551  H     H_    0.304914 0.860244 0.560252 0.000000
H552  H     H_    0.234416 0.834910 0.605352 0.000000
H553  H     H_    0.278464 0.784800 0.586188 0.000000
H554  H     H_    0.265744 0.816408 0.518127 0.000000
H555  H     H_    0.169276 0.784989 0.534866 0.000000
H556  H     H_    0.186148 0.749116 0.583844 0.000000
H557  H     H_    0.069008 0.954901 0.600199 0.000000
H558  H     H_    0.986013 0.935580 0.670974 0.000000
H559  H     H_    0.950480 0.837270 0.726164 0.000000
H560  H     H_    0.997665 0.759514 0.709233 0.000000
C505  C     C_3   0.296639 0.042466 0.263624 0.000000
N169  N     N_3   0.336703 0.093995 0.231966 0.000000
C506  C     C_3   0.329750 0.108131 0.188903 0.000000
C507  C     C_R   0.343208 0.064788 0.167581 0.000000
N170  N     N_R   0.397156 0.047933 0.154935 0.000000
C508  C     C_R   0.387517 0.010579 0.135436 0.000000
C509  C     C_R   0.426866 0.980938 0.115622 0.000000
C510  C     C_R   0.406886 0.943244 0.098956 0.000000
C511  C     C_R   0.347453 0.930706 0.107207 0.000000
C512  C     C_R   0.308486 0.959551 0.128575 0.000000
C513  C     C_R   0.330421 0.003776 0.138203 0.000000
N171  N     N_R   0.301535 0.040055 0.156297 0.000000
H561  H     H_    0.306956 0.029505 0.294480 0.000000
H562  H     H_    0.252138 0.052523 0.271433 0.000000
H563  H     H_    0.300193 0.007090 0.250691 0.000000
H564  H     H_    0.379990 0.091049 0.227080 0.000000
H565  H     H_    0.282904 0.110289 0.194549 0.000000
H566  H     H_    0.360283 0.148456 0.166957 0.000000
H567  H     H_    0.472556 0.987986 0.111021 0.000000
H568  H     H_    0.437413 0.921945 0.080925 0.000000
H569  H     H_    0.331394 0.897695 0.097394 0.000000
H570  H     H_    0.262494 0.943960 0.139989 0.000000
C514  C     C_3   0.007770 0.139558 0.263171 0.000000
N172  N     N_3   0.032278 0.087835 0.264942 0.000000
C515  C     C_3   0.095559 0.102382 0.239989 0.000000
C516  C     C_R   0.126177 0.055521 0.258481 0.000000
N173  N     N_R   0.110597 0.022291 0.304410 0.000000
C517  C     C_R   0.143884 0.981169 0.302172 0.000000
C518  C     C_R   0.142963 0.932979 0.336496 0.000000
C519  C     C_R   0.170431 0.890146 0.325382 0.000000
C520  C     C_R   0.201772 0.897869 0.280607 0.000000
C521  C     C_R   0.206324 0.948662 0.246701 0.000000
C522  C     C_R   0.178002 0.990263 0.258497 0.000000
N174  N     N_R   0.170590 0.038655 0.230074 0.000000
H571  H     H_    0.959550 0.127936 0.281891 0.000000
H572  H     H_    0.027373 0.163897 0.279229 0.000000
H573  H     H_    0.014998 0.165645 0.227579 0.000000
H574  H     H_    0.013923 0.069015 0.247313 0.000000
H575  H     H_    0.104141 0.108950 0.203800 0.000000
H576  H     H_    0.113766 0.142274 0.241412 0.000000
H577  H     H_    0.122887 0.928756 0.371098 0.000000
H578  H     H_    0.168125 0.850588 0.351747 0.000000
H579  H     H_    0.222549 0.864015 0.272161 0.000000
H580  H     H_    0.227833 0.953184 0.212005 0.000000
C523  C     C_3   0.845758 0.713917 0.348657 0.000000
N175  N     N_3   0.816046 0.740033 0.380145 0.000000
C524  C     C_3   0.791864 0.695862 0.424375 0.000000
C525  C     C_R   0.826452 0.707979 0.449965 0.000000
N176  N     N_R   0.819335 0.670805 0.492481 0.000000
C526  C     C_R   0.828098 0.706809 0.513487 0.000000
C527  C     C_R   0.816211 0.694692 0.559109 0.000000
C528  C     C_R   0.817234 0.739526 0.574566 0.000000
C529  C     C_R   0.828139 0.795244 0.545042 0.000000
C530  C     C_R   0.839307 0.806742 0.499519 0.000000
C531  C     C_R   0.841808 0.761980 0.484088 0.000000
N177  N     N_R   0.845064 0.764048 0.442461 0.000000
H581  H     H_    0.817048 0.676657 0.351260 0.000000
H582  H     H_    0.859990 0.744718 0.313853 0.000000
H583  H     H_    0.884182 0.701136 0.357140 0.000000
H584  H     H_    0.783193 0.759435 0.371433 0.000000
H585  H     H_    0.745517 0.698654 0.441243 0.000000
H586  H     H_    0.792437 0.652539 0.423283 0.000000
H587  H     H_    0.805766 0.651814 0.582919 0.000000
H588  H     H_    0.806808 0.731176 0.610243 0.000000
H589  H     H_    0.826291 0.829814 0.557885 0.000000
H590  H     H_    0.843204 0.849661 0.477754 0.000000
C532  C     C_3   0.981506 0.641477 0.388628 0.000000
N178  N     N_3   0.945188 0.585910 0.404998 0.000000
C533  C     C_3   0.885817 0.594731 0.408944 0.000000
C534  C     C_R   0.844448 0.541525 0.439748 0.000000
N179  N     N_R   0.846210 0.491748 0.430249 0.000000
C535  C     C_R   0.822073 0.451722 0.471963 0.000000
C536  C     C_R   0.813595 0.393547 0.483177 0.000000
C537  C     C_R   0.788097 0.358885 0.528139 0.000000
C538  C     C_R   0.769905 0.383066 0.560908 0.000000
C539  C     C_R   0.777432 0.441597 0.548492 0.000000
C540  C     C_R   0.803902 0.475744 0.503888 0.000000
N180  N     N_R   0.814324 0.533413 0.484862 0.000000
H591  H     H_    0.027288 0.636766 0.386060 0.000000
H592  H     H_    0.981589 0.666603 0.354722 0.000000
H593  H     H_    0.964541 0.664069 0.412407 0.000000
H594  H     H_    0.944142 0.563826 0.437593 0.000000
H595  H     H_    0.875753 0.626879 0.424712 0.000000
H596  H     H_    0.882495 0.608097 0.375136 0.000000
H597  H     H_    0.826430 0.374702 0.458046 0.000000
H598  H     H_    0.781419 0.313036 0.537558 0.000000
H599  H     H_    0.748368 0.356236 0.596190 0.000000
H600  H     H_    0.759682 0.459179 0.573054 0.000000
C541  C     C_3   0.685643 0.449469 0.483425 0.000000
N181  N     N_3   0.663863 0.481888 0.512525 0.000000
C542  C     C_3   0.675783 0.541550 0.484201 0.000000
C543  C     C_R   0.658221 0.575837 0.514077 0.000000
N182  N     N_R   0.604123 0.593511 0.526740 0.000000
C544  C     C_R   0.607161 0.613900 0.558823 0.000000
C545  C     C_R   0.564011 0.634263 0.584924 0.000000
C546  C     C_R   0.576241 0.652773 0.616591 0.000000
C547  C     C_R   0.630322 0.649380 0.622080 0.000000
C548  C     C_R   0.672776 0.627629 0.595894 0.000000
C549  C     C_R   0.660371 0.610740 0.563954 0.000000
N183  N     N_R   0.694449 0.587373 0.535710 0.000000
H601  H     H_    0.689300 0.406364 0.503989 0.000000
H602  H     H_    0.655653 0.445489 0.465717 0.000000
H603  H     H_    0.727874 0.472338 0.456479 0.000000
H604  H     H_    0.685292 0.476814 0.535553 0.000000
H605  H     H_    0.723218 0.556212 0.463977 0.000000
H606  H     H_    0.652838 0.545295 0.460296 0.000000
H607  H     H_    0.521321 0.634220 0.581994 0.000000
H608  H     H_    0.543061 0.668872 0.637823 0.000000
H609  H     H_    0.638815 0.662572 0.647752 0.000000
H610  H     H_    0.712704 0.621256 0.602350 0.000000
C550  C     C_3   0.488385 0.780887 0.553677 0.000000
N184  N     N_3   0.514198 0.746578 0.527105 0.000000
C551  C     C_3   0.507598 0.769660 0.483373 0.000000
C552  C     C_R   0.548282 0.748892 0.449739 0.000000
N185  N     N_R   0.586439 0.786901 0.408142 0.000000
C553  C     C_R   0.617552 0.752824 0.390715 0.000000
C554  C     C_R   0.667815 0.770195 0.353643 0.000000
C555  C     C_R   0.703506 0.731386 0.348189 0.000000
C556  C     C_R   0.689682 0.677462 0.381312 0.000000
C557  C     C_R   0.637029 0.660716 0.416040 0.000000
C558  C     C_R   0.601279 0.698608 0.420035 0.000000
N186  N     N_R   0.556383 0.692366 0.457842 0.000000
H611  H     H_    0.486312 0.759985 0.589079 0.000000
H612  H     H_    0.515872 0.823944 0.539218 0.000000
H613  H     H_    0.443129 0.784582 0.553799 0.000000
H614  H     H_    0.487961 0.706315 0.543405 0.000000
H615  H     H_    0.461439 0.757405 0.487055 0.000000
H616  H     H_    0.518581 0.816841 0.470508 0.000000
H617  H     H_    0.682753 0.813761 0.332126 0.000000
H618  H     H_    0.745394 0.746089 0.320629 0.000000
H619  H     H_    0.719847 0.647773 0.381540 0.000000
H620  H     H_    0.626720 0.621554 0.442432 0.000000
C559  C     C_3   0.525698 0.609709 0.322683 0.000000
N187  N     N_3   0.562746 0.617040 0.347759 0.000000
C560  C     C_3   0.527157 0.596412 0.395430 0.000000
C561  C     C_R   0.552532 0.553384 0.423652 0.000000
N188  N     N_R   0.565241 0.503125 0.416513 0.000000
C562  C     C_R   0.552520 0.466564 0.459130 0.000000
C563  C     C_R   0.550479 0.408879 0.473249 0.000000
C564  C     C_R   0.543624 0.380137 0.518014 0.000000
C565  C     C_R   0.539851 0.410050 0.547082 0.000000
C566  C     C_R   0.536285 0.467479 0.533010 0.000000
C567  C     C_R   0.540514 0.494087 0.489042 0.000000
N189  N     N_R   0.540363 0.549334 0.468056 0.000000
H621  H     H_    0.550327 0.632404 0.286043 0.000000
H622  H     H_    0.515173 0.564218 0.328195 0.000000
H623  H     H_    0.484593 0.626816 0.333119 0.000000
H624  H     H_    0.576879 0.660782 0.337993 0.000000
H625  H     H_    0.522848 0.633044 0.406867 0.000000
H626  H     H_    0.482397 0.576654 0.401227 0.000000
H627  H     H_    0.553332 0.386868 0.450318 0.000000
H628  H     H_    0.543561 0.334762 0.529854 0.000000
H629  H     H_    0.538329 0.388092 0.581243 0.000000
H630  H     H_    0.533973 0.491248 0.554992 0.000000
C568  C     C_3   0.841188 0.599091 0.288933 0.000000
N190  N     N_3   0.821378 0.548596 0.330020 0.000000
C569  C     C_3   0.759045 0.530940 0.343873 0.000000
C570  C     C_R   0.741352 0.470067 0.369137 0.000000
N191  N     N_R   0.779005 0.435636 0.383101 0.000000
C571  C     C_R   0.744799 0.383721 0.402144 0.000000
C572  C     C_R   0.761063 0.332285 0.419539 0.000000
C573  C     C_R   0.719551 0.283291 0.437310 0.000000
C574  C     C_R   0.663168 0.286394 0.436907 0.000000
C575  C     C_R   0.647841 0.338244 0.418144 0.000000
C576  C     C_R   0.689534 0.387316 0.400227 0.000000
N192  N     N_R   0.685441 0.442372 0.378810 0.000000
H631  H     H_    0.887862 0.604788 0.270763 0.000000
H632  H     H_    0.820981 0.595994 0.264347 0.000000
H633  H     H_    0.836923 0.637372 0.297678 0.000000
H634  H     H_    0.827526 0.560305 0.355629 0.000000
H635  H     H_    0.736730 0.552725 0.366907 0.000000
H636  H     H_    0.746941 0.536594 0.313840 0.000000
H637  H     H_    0.805219 0.329359 0.418657 0.000000
H638  H     H_    0.731258 0.242328 0.451237 0.000000
H639  H     H_    0.630960 0.247734 0.450726 0.000000
H640  H     H_    0.604217 0.337900 0.417744 0.000000

loop_
_geom_bond_atom_site_label_1
_geom_bond_atom_site_label_2
_geom_bond_distance
_geom_bond_site_symmetry_2
_ccdc_geom_bond_type
Zn1   N2    2.059 .      S
Zn1   N6    2.053 .      S
Zn1   N119  2.054 1_565  S
Zn1   N167  2.092 .      S
Zn2   N8    2.042 .      S
Zn2   N11   2.063 .      S
Zn2   N143  2.144 .      S
Zn2   N177  2.077 .      S
Zn3   N15   2.124 1_455  S
Zn3   N147  2.051 .      S
Zn3   N152  2.029 .      S
Zn3   N162  2.071 1_455  S
Zn4   N9    2.115 .      S
Zn4   N18   2.086 .      S
Zn4   N135  2.154 .      S
Zn4   N185  2.054 .      S
Zn5   N21   2.013 .      S
Zn5   N24   2.056 .      S
Zn5   N128  2.083 .      S
Zn5   N156  2.123 .      S
Zn6   N26   2.099 .      S
Zn6   N132  2.052 .      S
Zn6   N140  2.072 .      S
Zn6   N170  2.055 .      S
Zn7   N23   2.101 .      S
Zn7   N29   2.083 .      S
Zn7   N33   2.053 .      S
Zn7   N122  2.092 .      S
Zn8   N36   2.115 1_455  S
Zn8   N38   2.076 .      S
Zn8   N125  2.020 .      S
Zn8   N158  2.108 .      S
Zn9   N20   2.020 .      S
Zn9   N42   2.090 .      S
Zn9   N138  2.095 .      S
Zn9   N164  1.995 .      S
Zn10  N5    2.091 1_545  S
Zn10  N12   2.031 1_445  S
Zn10  N39   2.129 .      S
Zn10  N173  2.141 .      S
Zn11  N45   2.107 .      S
Zn11  N47   2.098 1_655  S
Zn11  N50   2.141 .      S
Zn11  N53   2.139 1_655  S
Zn12  N44   2.102 .      S
Zn12  N57   2.131 .      S
Zn12  N60   2.117 .      S
Zn12  N63   2.041 .      S
Zn13  N48   2.099 .      S
Zn13  N66   2.080 .      S
Zn13  N68   2.126 .      S
Zn13  N72   2.058 .      S
Zn14  N51   2.111 1_564  S
Zn14  N74   2.017 .      S
Zn14  N78   2.074 .      S
Zn14  N80   2.087 .      S
Zn15  N54   2.189 .      S
Zn15  N83   2.160 .      S
Zn15  N86   2.144 .      S
Zn15  N89   2.035 .      S
Zn16  N62   2.120 .      S
Zn16  N69   2.146 1_655  S
Zn16  N92   2.083 .      S
Zn16  N96   2.113 1_655  S
Zn17  N71   2.139 1_554  S
Zn17  N99   2.099 .      S
Zn17  N102  2.109 .      S
Zn17  N105  2.100 .      S
Zn18  N56   2.116 .      S
Zn18  N84   2.138 .      S
Zn18  N108  2.075 .      S
Zn18  N111  2.099 .      S
Zn19  N65   2.123 .      S
Zn19  N87   2.092 .      S
Zn19  N114  2.187 .      S
Zn19  N117  2.055 .      S
Zn20  N90   2.030 .      S
Zn20  N120  2.125 .      S
Zn20  N123  2.045 .      S
Zn20  N126  2.035 .      S
Zn21  N59   2.174 1_554  S
Zn21  N98   2.062 .      S
Zn21  N129  2.073 .      S
Zn21  N131  2.080 .      S
Zn22  N75   2.064 .      S
Zn22  N134  2.109 .      S
Zn22  N137  2.055 .      S
Zn22  N141  2.059 .      S
Zn23  N77   2.128 1_455  S
Zn23  N144  2.115 1_455  S
Zn23  N146  2.114 .      S
Zn23  N150  2.041 .      S
Zn24  N101  2.136 .      S
Zn24  N153  2.044 .      S
Zn24  N155  2.095 .      S
Zn24  N159  2.097 .      S
Zn25  N81   2.094 .      S
Zn25  N93   2.092 1_554  S
Zn25  N161  2.029 .      S
Zn25  N165  1.999 .      S
Zn26  N95   2.117 .      S
Zn26  N110  2.098 .      S
Zn26  N116  2.151 .      S
Zn26  N168  2.088 .      S
Zn27  N104  2.113 .      S
Zn27  N149  1.988 1_545  S
Zn27  N171  2.079 .      S
Zn27  N174  2.018 .      S
Zn28  N107  2.074 .      S
Zn28  N176  2.056 .      S
Zn28  N180  2.118 .      S
Zn28  N183  2.072 .      S
Zn29  N113  2.115 .      S
Zn29  N182  2.076 .      S
Zn29  N186  2.133 .      S
Zn29  N189  2.059 .      S
Zn30  N14   2.062 .      S
Zn30  N35   2.103 .      S
Zn30  N179  2.079 .      S
Zn30  N191  2.117 .      S
Zn31  N32   2.056 .      S
Zn31  N41   2.137 .      S
Zn31  N188  2.097 .      S
Zn31  N192  2.169 .      S
Zn32  N3    2.188 1_545  S
Zn32  N17   2.122 1_545  S
Zn32  N27   2.167 .      S
Zn32  N30   2.155 .      S
C1    N1    1.455 .      S
C1    H1    1.108 .      S
C1    H2    1.101 .      S
C1    H3    1.104 .      S
N1    C2    1.456 .      S
N1    H4    1.040 .      S
C2    C3    1.488 1_545  S
C2    H5    1.096 .      S
C2    H6    1.107 1_545  S
C3    C2    1.488 1_565  S
C5    H7    1.077 .      S
C6    H8    1.077 .      S
C7    H9    1.072 .      S
C8    H10   1.064 1_565  S
N3    Zn32  2.188 1_565  S
H6    C2    1.107 1_565  S
H10   C8    1.064 1_545  S
C10   N4    1.454 1_655  S
C10   H11   1.109 .      S
C10   H12   1.108 .      S
C10   H13   1.109 .      S
N4    C10   1.454 1_455  S
N4    C11   1.447 .      S
N4    H14   1.041 .      S
C11   C12   1.488 .      S
C11   H15   1.095 .      S
C11   H16   1.109 1_455  S
N5    Zn10  2.091 1_565  S
C14   H17   1.047 .      S
C15   H18   1.072 .      S
C16   H19   1.080 .      S
C17   H20   1.065 .      S
H16   C11   1.109 1_655  S
C19   N7    1.453 .      S
C19   H21   1.108 .      S
C19   H22   1.108 .      S
C19   H23   1.110 .      S
N7    C20   1.452 .      S
N7    H24   1.044 .      S
C20   C21   1.487 .      S
C20   H25   1.103 .      S
C20   H26   1.097 .      S
C23   H27   1.072 .      S
C24   H28   1.081 .      S
C25   H29   1.081 .      S
C26   H30   1.055 1_565  S
H30   C26   1.055 1_545  S
C28   N10   1.452 1_455  S
C28   H31   1.103 .      S
C28   H32   1.109 .      S
C28   H33   1.108 .      S
N10   C28   1.452 1_655  S
N10   C29   1.450 1_655  S
N10   H34   1.042 .      S
C29   N10   1.450 1_455  S
C29   C30   1.469 1_455  S
C29   H35   1.089 .      S
C29   H36   1.101 .      S
C30   C29   1.469 1_655  S
C32   H37   1.078 .      S
C33   H38   1.077 .      S
C34   H39   1.081 .      S
C35   H40   1.073 .      S
N12   Zn10  2.031 1_665  S
C37   N13   1.454 .      S
C37   H41   1.107 .      S
C37   H42   1.106 .      S
C37   H43   1.108 .      S
N13   C38   1.448 .      S
N13   H44   1.039 .      S
C38   C39   1.482 1_455  S
C38   H45   1.096 1_455  S
C38   H46   1.106 .      S
C39   C38   1.482 1_655  S
C41   H47   1.067 .      S
C42   H48   1.081 .      S
C43   H49   1.079 .      S
C44   H50   1.052 .      S
N15   Zn3   2.124 1_655  S
H45   C38   1.096 1_655  S
C46   N16   1.450 .      S
C46   H51   1.109 .      S
C46   H52   1.107 .      S
C46   H53   1.106 .      S
N16   C47   1.444 .      S
N16   H54   1.040 .      S
C47   C48   1.471 .      S
C47   H55   1.070 .      S
C47   H56   1.109 .      S
N17   Zn32  2.122 1_565  S
C50   H57   1.070 .      S
C51   H58   1.081 .      S
C52   H59   1.078 .      S
C53   H60   1.077 .      S
C55   N19   1.455 .      S
C55   H61   1.107 .      S
C55   H62   1.107 .      S
C55   H63   1.106 .      S
N19   C56   1.451 .      S
N19   H64   1.040 .      S
C56   C57   1.486 .      S
C56   H65   1.100 .      S
C56   H66   1.105 .      S
C59   H67   1.059 .      S
C60   H68   1.081 .      S
C61   H69   1.078 .      S
C62   H70   1.061 .      S
C64   N22   1.446 .      S
C64   H71   1.108 .      S
C64   H72   1.102 .      S
C64   H73   1.095 .      S
N22   C65   1.457 .      S
N22   H74   1.039 .      S
C65   C66   1.462 .      S
C65   H75   1.099 .      S
C65   H76   1.081 .      S
C68   H77   1.073 .      S
C69   H78   1.068 .      S
C70   H79   1.072 .      S
C71   H80   1.065 .      S
C73   N25   1.458 .      S
C73   H81   1.100 .      S
C73   H82   1.106 .      S
C73   H83   1.100 .      S
N25   C74   1.442 .      S
N25   H84   1.042 .      S
C74   C75   1.467 .      S
C74   H85   1.098 .      S
C74   H86   1.107 .      S
C77   H87   1.062 .      S
C78   H88   1.081 .      S
C79   H89   1.081 .      S
C80   H90   1.073 .      S
C82   N28   1.450 .      S
C82   H91   1.101 .      S
C82   H92   1.104 .      S
C82   H93   1.107 .      S
N28   C83   1.446 .      S
N28   H94   1.041 .      S
C83   C84   1.480 .      S
C83   H95   1.081 .      S
C83   H96   1.096 .      S
C86   H97   1.079 .      S
C87   H98   1.081 .      S
C88   H99   1.081 .      S
C89   H100  1.077 .      S
C91   N31   1.453 .      S
C91   H101  1.109 .      S
C91   H102  1.108 .      S
C91   H103  1.106 .      S
N31   C92   1.444 .      S
N31   H104  1.035 .      S
C92   C93   1.473 .      S
C92   H105  1.102 .      S
C92   H106  1.098 .      S
C95   H107  1.078 .      S
C96   H108  1.081 .      S
C97   H109  1.081 .      S
C98   H110  1.071 .      S
C100  N34   1.455 .      S
C100  H111  1.086 .      S
C100  H112  1.075 1_655  S
C100  H113  1.108 1_655  S
N34   C101  1.457 .      S
N34   H114  1.039 .      S
C101  C102  1.478 .      S
C101  H115  1.105 .      S
C101  H116  1.096 .      S
C104  H117  1.056 .      S
C105  H118  1.079 .      S
C106  H119  1.075 .      S
C107  H120  1.047 .      S
N36   Zn8   2.115 1_655  S
H112  C100  1.075 1_455  S
H113  C100  1.108 1_455  S
C109  N37   1.454 .      S
C109  H121  1.109 .      S
C109  H122  1.105 .      S
C109  H123  1.109 .      S
N37   C110  1.455 .      S
N37   H124  1.043 .      S
C110  C111  1.487 1_655  S
C110  H125  1.098 .      S
C110  H126  1.106 .      S
C111  C110  1.487 1_455  S
C113  H127  1.075 .      S
C114  H128  1.040 .      S
C115  H129  1.077 .      S
C116  H130  1.003 .      S
C118  N40   1.453 .      S
C118  H131  1.109 .      S
C118  H132  1.093 .      S
C118  H133  1.100 .      S
N40   C119  1.451 .      S
N40   H134  1.038 .      S
C119  C120  1.458 .      S
C119  H135  1.090 .      S
C119  H136  1.083 .      S
C122  H137  1.076 .      S
C123  H138  1.055 .      S
C124  H139  1.074 .      S
C125  H140  1.066 .      S
C127  N43   1.420 .      S
C127  H141  1.088 .      S
C127  H142  1.104 1_655  S
C127  H143  1.094 .      S
N43   C128  1.436 .      S
N43   H144  1.034 .      S
C128  C129  1.463 .      S
C128  H145  1.078 .      S
C128  H146  1.084 .      S
C131  H147  1.079 .      S
C132  H148  1.081 .      S
C133  H149  1.081 .      S
C134  H150  1.080 .      S
H142  C127  1.104 1_455  S
C136  N46   1.453 .      S
C136  H151  1.099 .      S
C136  H152  1.102 .      S
C136  H153  1.108 .      S
N46   C137  1.456 .      S
N46   H154  1.041 .      S
C137  C138  1.483 .      S
C137  H155  1.096 .      S
C137  H156  1.101 .      S
N47   Zn11  2.098 1_455  S
C140  H157  1.075 .      S
C141  H158  1.081 .      S
C142  H159  1.081 .      S
C143  H160  1.080 .      S
C145  N49   1.451 1_554  S
C145  H161  1.109 .      S
C145  H162  1.106 1_554  S
C145  H163  1.108 .      S
N49   C145  1.451 1_556  S
N49   C146  1.454 .      S
N49   H164  1.044 1_556  S
C146  C147  1.486 .      S
C146  H165  1.104 1_556  S
C146  H166  1.099 .      S
C149  H167  1.066 .      S
C150  H168  1.078 .      S
C151  H169  1.081 .      S
C152  H170  1.063 1_546  S
N51   Zn14  2.111 1_546  S
H162  C145  1.106 1_556  S
H164  N49   1.044 1_554  S
H165  C146  1.104 1_554  S
H170  C152  1.063 1_564  S
C154  N52   1.453 .      S
C154  H171  1.109 .      S
C154  H172  1.107 .      S
C154  H173  1.109 .      S
N52   C155  1.457 .      S
N52   H174  1.044 .      S
C155  C156  1.498 1_655  S
C155  H175  1.107 .      S
C155  H176  1.103 .      S
C156  C155  1.498 1_455  S
N53   Zn11  2.139 1_455  S
C158  H177  1.060 .      S
C159  H178  1.081 .      S
C160  H179  1.081 .      S
C161  H180  1.064 .      S
C163  N55   1.456 .      S
C163  H181  1.109 .      S
C163  H182  1.109 .      S
C163  H183  1.106 .      S
N55   C164  1.450 .      S
N55   H184  1.038 .      S
C164  C165  1.489 .      S
C164  H185  1.105 .      S
C164  H186  1.099 .      S
C167  H187  1.067 .      S
C168  H188  1.080 .      S
C169  H189  1.059 1_655  S
C170  H190  1.046 .      S
H189  C169  1.059 1_455  S
C172  N58   1.453 .      S
C172  H191  1.108 .      S
C172  H192  1.108 .      S
C172  H193  1.107 .      S
N58   C173  1.456 .      S
N58   H194  1.043 1_554  S
C173  C174  1.467 1_554  S
C173  H195  1.097 1_554  S
C173  H196  1.102 .      S
C174  C173  1.467 1_556  S
N59   Zn21  2.174 1_556  S
C176  H197  1.071 .      S
C177  H198  1.081 .      S
C178  H199  1.081 .      S
C179  H200  1.074 .      S
H194  N58   1.043 1_556  S
H195  C173  1.097 1_556  S
C181  N61   1.450 .      S
C181  H201  1.108 .      S
C181  H202  1.109 .      S
C181  H203  1.108 .      S
N61   C182  1.452 .      S
N61   H204  1.043 .      S
C182  C183  1.479 .      S
C182  H205  1.106 .      S
C182  H206  1.081 .      S
C185  H207  1.059 .      S
C186  H208  1.080 1_556  S
C187  H209  1.079 .      S
C188  H210  1.073 .      S
H208  C186  1.080 1_554  S
C190  N64   1.452 .      S
C190  H211  1.109 .      S
C190  H212  1.110 .      S
C190  H213  1.105 .      S
N64   C191  1.455 .      S
N64   H214  1.043 .      S
C191  C192  1.481 .      S
C191  H215  1.099 .      S
C191  H216  1.100 .      S
C194  H217  1.072 .      S
C195  H218  1.079 .      S
C196  H219  1.081 .      S
C197  H220  1.072 .      S
C199  N67   1.425 .      S
C199  H221  1.098 .      S
C199  H222  1.098 .      S
C199  H223  1.091 .      S
N67   C200  1.437 .      S
N67   H224  1.041 .      S
C200  C201  1.427 .      S
C200  H225  1.093 .      S
C200  H226  1.099 .      S
C203  H227  1.064 .      S
C204  H228  1.079 .      S
C205  H229  1.081 .      S
C206  H230  1.057 .      S
N69   Zn16  2.146 1_455  S
C208  N70   1.451 .      S
C208  H231  1.109 .      S
C208  H232  1.107 .      S
C208  H233  1.108 .      S
N70   C209  1.449 .      S
N70   H234  1.044 .      S
C209  C210  1.492 .      S
C209  H235  1.100 .      S
C209  H236  1.096 .      S
N71   Zn17  2.139 1_556  S
C212  H237  1.066 .      S
C213  H238  1.081 .      S
C214  H239  1.081 .      S
C215  H240  1.074 .      S
C217  N73   1.453 1_545  S
C217  H241  1.097 .      S
C217  H242  1.108 .      S
C217  H243  1.100 .      S
N73   C217  1.453 1_565  S
N73   C218  1.441 .      S
N73   H244  1.040 .      S
C218  C219  1.472 .      S
C218  H245  1.095 1_565  S
C218  H246  1.093 1_565  S
C221  H247  1.080 .      S
C222  H248  1.081 .      S
C223  H249  1.081 1_554  S
C224  H250  1.074 .      S
H245  C218  1.095 1_545  S
H246  C218  1.093 1_545  S
H249  C223  1.081 1_556  S
C226  N76   1.462 .      S
C226  H251  1.108 1_554  S
C226  H252  1.103 .      S
C226  H253  1.099 1_554  S
N76   C227  1.457 .      S
N76   H254  1.041 .      S
C227  C228  1.483 1_455  S
C227  H255  1.089 1_455  S
C227  H256  1.102 .      S
C228  C227  1.483 1_655  S
N77   Zn23  2.128 1_655  S
C230  H257  1.050 .      S
C231  H258  1.081 .      S
C232  H259  1.081 .      S
C233  H260  1.073 .      S
H251  C226  1.108 1_556  S
H253  C226  1.099 1_556  S
H255  C227  1.089 1_655  S
C235  N79   1.433 .      S
C235  H261  1.095 .      S
C235  H262  1.109 .      S
C235  H263  1.100 .      S
N79   C236  1.441 .      S
N79   H264  1.024 .      S
C236  C237  1.497 .      S
C236  H265  1.097 .      S
C236  H266  1.101 .      S
C239  H267  1.076 .      S
C240  H268  1.081 .      S
C241  H269  1.079 .      S
C242  H270  1.079 .      S
C244  N82   1.453 .      S
C244  H271  1.109 .      S
C244  H272  1.106 .      S
C244  H273  1.108 .      S
N82   C245  1.455 .      S
N82   H274  1.041 .      S
C245  C246  1.471 .      S
C245  H275  1.100 .      S
C245  H276  1.078 .      S
C248  H277  1.063 .      S
C249  H278  1.081 .      S
C250  H279  1.078 .      S
C251  H280  1.058 1_455  S
H280  C251  1.058 1_655  S
C253  N85   1.446 .      S
C253  H281  1.078 .      S
C253  H282  1.103 .      S
C253  H283  1.095 .      S
N85   C254  1.434 .      S
N85   H284  1.033 .      S
C254  C255  1.442 .      S
C254  H285  1.089 .      S
C254  H286  1.101 .      S
C257  H287  1.066 .      S
C258  H288  1.080 .      S
C259  H289  1.081 .      S
C260  H290  1.061 .      S
C262  N88   1.455 1_655  S
C262  H291  1.108 .      S
C262  H292  1.109 .      S
C262  H293  1.104 .      S
N88   C262  1.455 1_455  S
N88   C263  1.445 .      S
N88   H294  1.044 1_455  S
C263  C264  1.485 .      S
C263  H295  1.101 .      S
C263  H296  1.106 .      S
C266  H297  1.076 .      S
C267  H298  1.081 .      S
C268  H299  1.081 .      S
C269  H300  1.079 .      S
H294  N88   1.044 1_655  S
C271  N91   1.443 1_554  S
C271  H301  1.109 .      S
C271  H302  1.100 1_554  S
C271  H303  1.097 .      S
N91   C271  1.443 1_556  S
N91   C272  1.448 .      S
N91   H304  1.039 1_455  S
C272  C273  1.471 1_455  S
C272  H305  1.093 1_556  S
C272  H306  1.100 .      S
C273  C272  1.471 1_655  S
C275  H307  1.071 .      S
C276  H308  1.076 .      S
C277  H309  1.081 .      S
C278  H310  1.061 1_556  S
N93   Zn25  2.092 1_556  S
H302  C271  1.100 1_556  S
H304  N91   1.039 1_655  S
H305  C272  1.093 1_554  S
H310  C278  1.061 1_554  S
C280  N94   1.452 .      S
C280  H311  1.096 .      S
C280  H312  1.107 .      S
C280  H313  1.108 .      S
N94   C281  1.455 .      S
N94   H314  1.042 .      S
C281  C282  1.486 1_655  S
C281  H315  1.091 .      S
C281  H316  1.096 .      S
C282  C281  1.486 1_455  S
C284  H317  1.066 .      S
C285  H318  1.081 .      S
C286  H319  1.079 .      S
C287  H320  1.069 .      S
N96   Zn16  2.113 1_455  S
C289  N97   1.450 .      S
C289  H321  1.073 .      S
C289  H322  1.108 .      S
C289  H323  1.091 .      S
N97   C290  1.442 .      S
N97   H324  1.036 .      S
C290  C291  1.464 .      S
C290  H325  1.091 .      S
C290  H326  1.103 .      S
C293  H327  1.079 .      S
C294  H328  1.081 .      S
C295  H329  1.081 .      S
C296  H330  1.069 .      S
C298  N100  1.455 1_556  S
C298  H331  1.109 .      S
C298  H332  1.108 .      S
C298  H333  1.103 .      S
N100  C298  1.455 1_554  S
N100  C299  1.448 .      S
N100  H334  1.036 .      S
C299  C300  1.505 .      S
C299  H335  1.085 .      S
C299  H336  1.098 .      S
C302  H337  1.068 .      S
C303  H338  1.075 .      S
C304  H339  1.075 .      S
C305  H340  1.061 .      S
C307  N103  1.453 .      S
C307  H341  1.098 .      S
C307  H342  1.110 .      S
C307  H343  1.097 .      S
N103  C308  1.448 .      S
N103  H344  1.032 .      S
C308  C309  1.464 .      S
C308  H345  1.095 .      S
C308  H346  1.089 .      S
C311  H347  1.060 .      S
C312  H348  1.072 .      S
C313  H349  1.079 .      S
C314  H350  1.075 .      S
C316  N106  1.456 .      S
C316  H351  1.103 1_655  S
C316  H352  1.103 .      S
C316  H353  1.099 1_655  S
N106  C317  1.453 .      S
N106  H354  1.043 .      S
C317  C318  1.486 .      S
C317  H355  1.096 .      S
C317  H356  1.100 .      S
C320  H357  1.071 .      S
C321  H358  1.081 .      S
C322  H359  1.079 .      S
C323  H360  1.073 .      S
H351  C316  1.103 1_455  S
H353  C316  1.099 1_455  S
C325  N109  1.454 .      S
C325  H361  1.105 .      S
C325  H362  1.105 .      S
C325  H363  1.105 .      S
N109  C326  1.457 .      S
N109  H364  1.043 .      S
C326  C327  1.467 .      S
C326  H365  1.101 .      S
C326  H366  1.088 .      S
C329  H367  1.065 .      S
C330  H368  1.081 .      S
C331  H369  1.081 .      S
C332  H370  1.077 .      S
C334  N112  1.454 .      S
C334  H371  1.109 .      S
C334  H372  1.103 .      S
C334  H373  1.104 .      S
N112  C335  1.460 .      S
N112  H374  1.041 .      S
C335  C336  1.481 .      S
C335  H375  1.097 .      S
C335  H376  1.106 .      S
C338  H377  1.073 .      S
C339  H378  1.075 .      S
C340  H379  1.081 .      S
C341  H380  1.056 .      S
C343  N115  1.457 .      S
C343  H381  1.108 .      S
C343  H382  1.104 .      S
C343  H383  1.101 .      S
N115  C344  1.444 .      S
N115  H384  1.033 .      S
C344  C345  1.500 .      S
C344  H385  1.098 .      S
C344  H386  1.109 .      S
C347  H387  1.061 .      S
C348  H388  1.081 .      S
C349  H389  1.081 .      S
C350  H390  1.080 .      S
C352  N118  1.451 1_655  S
C352  H391  1.106 1_655  S
C352  H392  1.107 .      S
C352  H393  1.102 .      S
N118  C352  1.451 1_455  S
N118  C353  1.451 .      S
N118  H394  1.044 .      S
C353  C354  1.497 .      S
C353  H395  1.093 .      S
C353  H396  1.078 .      S
N119  Zn1   2.054 1_545  S
C356  H397  1.081 .      S
C357  H398  1.081 .      S
C358  H399  1.081 .      S
C359  H400  1.073 .      S
H391  C352  1.106 1_455  S
C361  N121  1.457 .      S
C361  H401  1.109 .      S
C361  H402  1.104 .      S
C361  H403  1.103 .      S
N121  C362  1.454 .      S
N121  H404  1.042 .      S
C362  C363  1.490 .      S
C362  H405  1.101 .      S
C362  H406  1.100 .      S
C365  H407  1.037 .      S
C366  H408  1.073 .      S
C367  H409  1.079 .      S
C368  H410  1.042 .      S
C370  N124  1.456 .      S
C370  H411  1.108 .      S
C370  H412  1.105 .      S
C370  H413  1.104 .      S
N124  C371  1.454 .      S
N124  H414  1.044 .      S
C371  C372  1.480 .      S
C371  H415  1.094 .      S
C371  H416  1.098 .      S
C374  H417  1.075 .      S
C375  H418  1.080 .      S
C376  H419  1.081 .      S
C377  H420  1.079 .      S
C379  N127  1.444 .      S
C379  H421  1.105 .      S
C379  H422  1.106 .      S
C379  H423  1.108 .      S
N127  C380  1.455 .      S
N127  H424  1.041 .      S
C380  C381  1.480 .      S
C380  H425  1.092 .      S
C380  H426  1.097 .      S
C383  H427  1.058 .      S
C384  H428  1.081 .      S
C385  H429  1.081 .      S
C386  H430  1.050 .      S
C388  N130  1.449 .      S
C388  H431  1.109 .      S
C388  H432  1.109 .      S
C388  H433  1.096 .      S
N130  C389  1.454 .      S
N130  H434  1.039 .      S
C389  C390  1.485 .      S
C389  H435  1.100 .      S
C389  H436  1.083 .      S
C392  H437  1.072 .      S
C393  H438  1.078 .      S
C394  H439  1.074 .      S
C395  H440  1.079 .      S
C397  N133  1.444 .      S
C397  H441  1.107 .      S
C397  H442  1.108 .      S
C397  H443  1.105 .      S
N133  C398  1.452 .      S
N133  H444  1.038 .      S
C398  C399  1.500 .      S
C398  H445  1.105 .      S
C398  H446  1.099 .      S
C401  H447  1.067 1_565  S
C402  H448  1.076 .      S
C403  H449  1.076 .      S
C404  H450  1.060 .      S
H447  C401  1.067 1_545  S
C406  N136  1.450 .      S
C406  H451  1.099 .      S
C406  H452  1.082 .      S
C406  H453  1.099 .      S
N136  C407  1.438 .      S
N136  H454  1.035 .      S
C407  C408  1.452 .      S
C407  H455  1.102 .      S
C407  H456  1.095 .      S
C410  H457  1.074 .      S
C411  H458  1.076 .      S
C412  H459  1.081 .      S
C413  H460  1.072 .      S
C415  N139  1.434 .      S
C415  H461  1.101 .      S
C415  H462  1.097 .      S
C415  H463  1.055 .      S
N139  C416  1.437 .      S
N139  H464  1.035 .      S
C416  C417  1.447 .      S
C416  H465  1.090 .      S
C416  H466  1.098 .      S
C419  H467  1.058 .      S
C420  H468  1.081 1_554  S
C421  H469  1.080 1_554  S
C422  H470  1.056 .      S
H468  C420  1.081 1_556  S
H469  C421  1.080 1_556  S
C424  N142  1.438 .      S
C424  H471  1.097 .      S
C424  H472  1.097 .      S
C424  H473  1.099 .      S
N142  C425  1.439 .      S
N142  H474  1.040 .      S
C425  C426  1.463 .      S
C425  H475  1.106 .      S
C425  H476  1.095 .      S
C428  H477  1.075 .      S
C429  H478  1.080 .      S
C430  H479  1.081 .      S
C431  H480  1.072 .      S
N144  Zn23  2.115 1_655  S
C433  N145  1.455 .      S
C433  H481  1.079 .      S
C433  H482  1.093 .      S
C433  H483  1.099 1_655  S
N145  C434  1.441 .      S
N145  H484  1.036 .      S
C434  C435  1.470 1_655  S
C434  H485  1.106 .      S
C434  H486  1.079 .      S
C435  C434  1.470 1_455  S
C437  H487  1.069 .      S
C438  H488  1.079 .      S
C439  H489  1.081 .      S
C440  H490  1.070 .      S
H483  C433  1.099 1_455  S
C442  N148  1.448 .      S
C442  H491  1.090 .      S
C442  H492  1.102 1_455  S
C442  H493  1.083 1_455  S
N148  C443  1.432 .      S
N148  H494  1.036 .      S
C443  C444  1.461 .      S
C443  H495  1.081 .      S
C443  H496  1.106 1_565  S
N149  Zn27  1.988 1_565  S
C446  H497  1.081 .      S
C447  H498  1.081 1_565  S
C448  H499  1.081 .      S
C449  H500  1.074 .      S
H492  C442  1.102 1_655  S
H493  C442  1.083 1_655  S
H496  C443  1.106 1_545  S
H498  C447  1.081 1_545  S
C451  N151  1.451 .      S
C451  H501  1.107 .      S
C451  H502  1.104 .      S
C451  H503  1.108 .      S
N151  C452  1.454 .      S
N151  H504  1.038 .      S
C452  C453  1.469 .      S
C452  H505  1.105 .      S
C452  H506  1.101 .      S
C455  H507  1.058 .      S
C456  H508  1.080 .      S
C457  H509  1.079 .      S
C458  H510  1.067 .      S
C460  N154  1.454 .      S
C460  H511  1.108 .      S
C460  H512  1.106 .      S
C460  H513  1.103 .      S
N154  C461  1.457 .      S
N154  H514  1.042 .      S
C461  C462  1.481 .      S
C461  H515  1.103 .      S
C461  H516  1.089 .      S
C464  H517  1.072 .      S
C465  H518  1.081 .      S
C466  H519  1.081 .      S
C467  H520  1.074 .      S
C469  N157  1.452 .      S
C469  H521  1.102 .      S
C469  H522  1.101 .      S
C469  H523  1.102 .      S
N157  C470  1.451 .      S
N157  H524  1.040 .      S
C470  C471  1.485 .      S
C470  H525  1.091 .      S
C470  H526  1.097 .      S
C473  H527  1.070 .      S
C474  H528  1.080 1_455  S
C475  H529  1.081 .      S
C476  H530  1.073 .      S
H528  C474  1.080 1_655  S
C478  N160  1.462 .      S
C478  H531  1.109 .      S
C478  H532  1.104 .      S
C478  H533  1.098 .      S
N160  C479  1.458 .      S
N160  H534  1.042 .      S
C479  C480  1.480 1_455  S
C479  H535  1.084 .      S
C479  H536  1.096 1_455  S
C480  C479  1.480 1_655  S
C482  H537  1.078 .      S
C483  H538  1.081 .      S
C484  H539  1.081 .      S
C485  H540  1.078 1_655  S
N162  Zn3   2.071 1_655  S
H536  C479  1.096 1_655  S
H540  C485  1.078 1_455  S
C487  N163  1.449 .      S
C487  H541  1.090 .      S
C487  H542  1.105 .      S
C487  H543  1.101 .      S
N163  C488  1.443 .      S
N163  H544  1.038 .      S
C488  C489  1.476 .      S
C488  H545  1.097 .      S
C488  H546  1.101 .      S
C491  H547  1.069 .      S
C492  H548  1.081 .      S
C493  H549  1.081 .      S
C494  H550  1.078 1_554  S
H550  C494  1.078 1_556  S
C496  N166  1.450 .      S
C496  H551  1.109 .      S
C496  H552  1.108 .      S
C496  H553  1.107 .      S
N166  C497  1.453 .      S
N166  H554  1.044 .      S
C497  C498  1.496 .      S
C497  H555  1.104 .      S
C497  H556  1.106 .      S
C500  H557  1.061 .      S
C501  H558  1.081 1_455  S
C502  H559  1.081 .      S
C503  H560  1.065 1_455  S
H558  C501  1.081 1_655  S
H560  C503  1.065 1_655  S
C505  N169  1.438 .      S
C505  H561  1.088 .      S
C505  H562  1.094 .      S
C505  H563  1.101 .      S
N169  C506  1.430 .      S
N169  H564  1.024 .      S
C506  C507  1.477 .      S
C506  H565  1.102 .      S
C506  H566  1.099 .      S
C509  H567  1.069 .      S
C510  H568  1.078 .      S
C511  H569  1.080 .      S
C512  H570  1.065 .      S
C514  N172  1.452 .      S
C514  H571  1.108 1_455  S
C514  H572  1.107 .      S
C514  H573  1.105 .      S
N172  C515  1.456 .      S
N172  H574  1.043 .      S
C515  C516  1.500 .      S
C515  H575  1.108 .      S
C515  H576  1.094 .      S
C518  H577  1.064 .      S
C519  H578  1.080 .      S
C520  H579  1.081 .      S
C521  H580  1.069 .      S
H571  C514  1.108 1_655  S
C523  N175  1.434 .      S
C523  H581  1.099 .      S
C523  H582  1.096 .      S
C523  H583  1.096 .      S
N175  C524  1.440 .      S
N175  H584  1.031 .      S
C524  C525  1.457 .      S
C524  H585  1.105 .      S
C524  H586  1.102 .      S
C527  H587  1.072 .      S
C528  H588  1.077 .      S
C529  H589  1.081 .      S
C530  H590  1.069 .      S
C532  N178  1.448 .      S
C532  H591  1.106 1_655  S
C532  H592  1.102 .      S
C532  H593  1.106 .      S
N178  C533  1.445 .      S
N178  H594  1.040 .      S
C533  C534  1.472 .      S
C533  H595  1.095 .      S
C533  H596  1.098 .      S
C536  H597  1.060 .      S
C537  H598  1.081 .      S
C538  H599  1.081 .      S
C539  H600  1.037 .      S
H591  C532  1.106 1_455  S
C541  N181  1.451 .      S
C541  H601  1.107 .      S
C541  H602  1.093 .      S
C541  H603  1.098 .      S
N181  C542  1.447 .      S
N181  H604  1.037 .      S
C542  C543  1.493 .      S
C542  H605  1.104 .      S
C542  H606  1.093 .      S
C545  H607  1.074 .      S
C546  H608  1.081 .      S
C547  H609  1.081 .      S
C548  H610  1.070 .      S
C550  N184  1.453 .      S
C550  H611  1.109 .      S
C550  H612  1.109 .      S
C550  H613  1.109 .      S
N184  C551  1.449 .      S
N184  H614  1.040 .      S
C551  C552  1.492 .      S
C551  H615  1.105 .      S
C551  H616  1.108 .      S
C554  H617  1.064 .      S
C555  H618  1.077 .      S
C556  H619  1.076 .      S
C557  H620  1.040 .      S
C559  N187  1.450 .      S
C559  H621  1.105 .      S
C559  H622  1.100 .      S
C559  H623  1.108 .      S
N187  C560  1.442 .      S
N187  H624  1.044 .      S
C560  C561  1.493 .      S
C560  H625  1.101 .      S
C560  H626  1.102 .      S
C563  H627  1.064 .      S
C564  H628  1.081 .      S
C565  H629  1.081 .      S
C566  H630  1.073 .      S
C568  N190  1.454 .      S
C568  H631  1.078 .      S
C568  H632  1.100 .      S
C568  H633  1.091 .      S
N190  C569  1.434 .      S
N190  H634  1.035 .      S
C569  C570  1.451 .      S
C569  H635  1.103 .      S
C569  H636  1.099 .      S
C572  H637  1.073 .      S
C573  H638  1.081 .      S
C574  H639  1.081 .      S
C575  H640  1.066 .      S
C3    N2    1.381 .      A
C3    N3    1.402 .      A
N2    C4    1.325 .      A
C4    C5    1.372 .      A
C4    C9    1.349 .      A
C5    C6    1.366 .      A
C6    C7    1.378 .      A
C7    C8    1.380 .      A
C8    C9    1.347 .      A
C9    N3    1.352 .      A
C12   N5    1.389 .      A
C12   N6    1.387 .      A
N5    C13   1.342 1_565  A
C13   N5    1.342 1_545  A
C13   C14   1.353 .      A
C13   C18   1.336 .      A
C14   C15   1.371 .      A
C15   C16   1.378 .      A
C16   C17   1.368 .      A
C17   C18   1.365 .      A
C18   N6    1.337 1_545  A
N6    C18   1.337 1_565  A
C21   N8    1.377 .      A
C21   N9    1.384 .      A
N8    C22   1.338 .      A
C22   C23   1.372 .      A
C22   C27   1.357 .      A
C23   C24   1.375 1_565  A
C24   C23   1.375 1_545  A
C24   C25   1.379 .      A
C25   C26   1.383 1_545  A
C26   C25   1.383 1_565  A
C26   C27   1.380 .      A
C27   N9    1.363 .      A
C30   N11   1.371 .      A
C30   N12   1.373 .      A
N11   C31   1.347 .      A
C31   C32   1.373 .      A
C31   C36   1.354 .      A
C32   C33   1.380 1_565  A
C33   C32   1.380 1_545  A
C33   C34   1.387 .      A
C34   C35   1.384 .      A
C35   C36   1.368 1_545  A
C36   C35   1.368 1_565  A
C36   N12   1.345 .      A
C39   N14   1.391 .      A
C39   N15   1.388 .      A
N14   C40   1.340 .      A
C40   C41   1.376 .      A
C40   C45   1.343 .      A
C41   C42   1.372 .      A
C42   C43   1.371 .      A
C43   C44   1.381 .      A
C44   C45   1.352 .      A
C45   N15   1.355 .      A
C48   N17   1.384 .      A
C48   N18   1.378 .      A
N17   C49   1.356 1_565  A
C49   N17   1.356 1_545  A
C49   C50   1.373 .      A
C49   C54   1.362 1_545  A
C50   C51   1.381 .      A
C51   C52   1.385 .      A
C52   C53   1.383 1_545  A
C53   C52   1.383 1_565  A
C53   C54   1.371 .      A
C54   C49   1.362 1_565  A
C54   N18   1.343 .      A
C57   N20   1.378 .      A
C57   N21   1.369 .      A
N20   C58   1.350 .      A
C58   C59   1.378 .      A
C58   C63   1.345 .      A
C59   C60   1.379 .      A
C60   C61   1.377 .      A
C61   C62   1.376 .      A
C62   C63   1.372 .      A
C63   N21   1.349 .      A
C66   N23   1.369 .      A
C66   N24   1.378 .      A
N23   C67   1.338 .      A
C67   C68   1.364 .      A
C67   C72   1.356 .      A
C68   C69   1.364 .      A
C69   C70   1.380 .      A
C70   C71   1.360 .      A
C71   C72   1.356 .      A
C72   N24   1.333 .      A
C75   N26   1.387 .      A
C75   N27   1.383 .      A
N26   C76   1.348 1_545  A
C76   N26   1.348 1_565  A
C76   C77   1.375 .      A
C76   C81   1.361 .      A
C77   C78   1.375 .      A
C78   C79   1.374 .      A
C79   C80   1.380 .      A
C80   C81   1.393 .      A
C81   N27   1.371 1_565  A
N27   C81   1.371 1_545  A
C84   N29   1.378 .      A
C84   N30   1.398 .      A
N29   C85   1.336 .      A
C85   C86   1.372 .      A
C85   C90   1.363 .      A
C86   C87   1.382 .      A
C87   C88   1.389 .      A
C88   C89   1.385 .      A
C89   C90   1.372 .      A
C90   N30   1.359 .      A
C93   N32   1.380 .      A
C93   N33   1.378 .      A
N32   C94   1.348 .      A
C94   C95   1.377 .      A
C94   C99   1.361 .      A
C95   C96   1.383 .      A
C96   C97   1.389 .      A
C97   C98   1.385 .      A
C98   C99   1.377 .      A
C99   N33   1.350 .      A
C102  N35   1.388 .      A
C102  N36   1.386 .      A
N35   C103  1.343 .      A
C103  C104  1.367 .      A
C103  C108  1.355 .      A
C104  C105  1.369 .      A
C105  C106  1.371 1_655  A
C106  C105  1.371 1_455  A
C106  C107  1.374 .      A
C107  C108  1.383 1_455  A
C108  C107  1.383 1_655  A
C108  N36   1.360 .      A
C111  N38   1.391 .      A
C111  N39   1.397 .      A
N38   C112  1.343 .      A
C112  C113  1.372 .      A
C112  C117  1.338 .      A
C113  C114  1.380 .      A
C114  C115  1.345 .      A
C115  C116  1.338 .      A
C116  C117  1.344 .      A
C117  N39   1.336 .      A
C120  N41   1.387 .      A
C120  N42   1.386 .      A
N41   C121  1.341 .      A
C121  C122  1.346 .      A
C121  C126  1.351 .      A
C122  C123  1.373 .      A
C123  C124  1.366 .      A
C124  C125  1.361 .      A
C125  C126  1.360 .      A
C126  N42   1.329 .      A
C129  N44   1.384 .      A
C129  N45   1.381 .      A
N44   C130  1.346 .      A
C130  C131  1.372 .      A
C130  C135  1.372 .      A
C131  C132  1.384 .      A
C132  C133  1.391 .      A
C133  C134  1.385 .      A
C134  C135  1.369 .      A
C135  N45   1.348 .      A
C138  N47   1.383 .      A
C138  N48   1.390 .      A
N47   C139  1.345 .      A
C139  C140  1.367 1_455  A
C139  C144  1.364 .      A
C140  C139  1.367 1_655  A
C140  C141  1.384 1_556  A
C141  C140  1.384 1_554  A
C141  C142  1.392 1_655  A
C142  C141  1.392 1_455  A
C142  C143  1.385 1_554  A
C143  C142  1.385 1_556  A
C143  C144  1.372 .      A
C144  N48   1.347 .      A
C147  N50   1.399 .      A
C147  N51   1.388 .      A
N50   C148  1.350 1_655  A
C148  N50   1.350 1_455  A
C148  C149  1.372 .      A
C148  C153  1.355 .      A
C149  C150  1.384 .      A
C150  C151  1.385 .      A
C151  C152  1.380 .      A
C152  C153  1.354 .      A
C153  N51   1.337 1_455  A
N51   C153  1.337 1_655  A
C156  N53   1.382 .      A
C156  N54   1.385 .      A
N53   C157  1.345 .      A
C157  C158  1.374 .      A
C157  C162  1.372 .      A
C158  C159  1.377 .      A
C159  C160  1.377 .      A
C160  C161  1.378 .      A
C161  C162  1.376 .      A
C162  N54   1.353 .      A
C165  N56   1.403 .      A
C165  N57   1.387 .      A
N56   C166  1.334 .      A
C166  C167  1.364 .      A
C166  C171  1.346 .      A
C167  C168  1.360 1_655  A
C168  C167  1.360 1_455  A
C168  C169  1.353 1_455  A
C169  C168  1.353 1_655  A
C169  C170  1.364 .      A
C170  C171  1.363 .      A
C171  N57   1.349 .      A
C174  N59   1.397 .      A
C174  N60   1.382 .      A
N59   C175  1.360 .      A
C175  C176  1.381 .      A
C175  C180  1.370 .      A
C176  C177  1.381 .      A
C177  C178  1.384 .      A
C178  C179  1.382 .      A
C179  C180  1.370 .      A
C180  N60   1.342 .      A
C183  N62   1.390 .      A
C183  N63   1.370 .      A
N62   C184  1.354 .      A
C184  C185  1.367 .      A
C184  C189  1.358 .      A
C185  C186  1.379 .      A
C186  C187  1.384 1_556  A
C187  C186  1.384 1_554  A
C187  C188  1.378 1_554  A
C188  C187  1.378 1_556  A
C188  C189  1.376 .      A
C189  N63   1.340 .      A
C192  N65   1.393 .      A
C192  N66   1.377 .      A
N65   C193  1.348 .      A
C193  C194  1.359 .      A
C193  C198  1.359 .      A
C194  C195  1.387 .      A
C195  C196  1.388 .      A
C196  C197  1.381 .      A
C197  C198  1.370 .      A
C198  N66   1.340 .      A
C201  N68   1.376 .      A
C201  N69   1.386 .      A
N68   C202  1.347 .      A
C202  C203  1.369 .      A
C202  C207  1.365 .      A
C203  C204  1.383 .      A
C204  C205  1.382 .      A
C205  C206  1.379 .      A
C206  C207  1.367 .      A
C207  N69   1.350 .      A
C210  N71   1.399 .      A
C210  N72   1.372 .      A
N71   C211  1.354 .      A
C211  C212  1.375 .      A
C211  C216  1.359 .      A
C212  C213  1.384 .      A
C213  C214  1.387 .      A
C214  C215  1.381 .      A
C215  C216  1.372 .      A
C216  N72   1.341 .      A
C219  N74   1.367 .      A
C219  N75   1.382 .      A
N74   C220  1.337 .      A
C220  C221  1.371 1_554  A
C220  C225  1.359 .      A
C221  C220  1.371 1_556  A
C221  C222  1.381 .      A
C222  C223  1.390 1_556  A
C223  C222  1.390 1_554  A
C223  C224  1.384 .      A
C224  C225  1.374 .      A
C225  N75   1.352 .      A
C228  N77   1.382 .      A
C228  N78   1.381 .      A
N77   C229  1.371 .      A
C229  C230  1.380 .      A
C229  C234  1.362 .      A
C230  C231  1.383 1_565  A
C231  C230  1.383 1_545  A
C231  C232  1.381 .      A
C232  C233  1.375 .      A
C233  C234  1.375 1_545  A
C234  C233  1.375 1_565  A
C234  N78   1.334 .      A
C237  N80   1.387 .      A
C237  N81   1.387 .      A
N80   C238  1.348 1_554  A
C238  N80   1.348 1_556  A
C238  C239  1.371 1_655  A
C238  C243  1.372 .      A
C239  C238  1.371 1_455  A
C239  C240  1.385 .      A
C240  C241  1.391 .      A
C241  C242  1.385 .      A
C242  C243  1.371 1_455  A
C243  C242  1.371 1_655  A
C243  N81   1.346 1_556  A
N81   C243  1.346 1_554  A
C246  N83   1.396 1_655  A
C246  N84   1.385 .      A
N83   C246  1.396 1_455  A
N83   C247  1.346 .      A
C247  C248  1.365 .      A
C247  C252  1.360 .      A
C248  C249  1.378 .      A
C249  C250  1.384 .      A
C250  C251  1.383 .      A
C251  C252  1.357 .      A
C252  N84   1.342 1_455  A
N84   C252  1.342 1_655  A
C255  N86   1.373 .      A
C255  N87   1.379 .      A
N86   C256  1.361 .      A
C256  C257  1.382 .      A
C256  C261  1.370 .      A
C257  C258  1.380 .      A
C258  C259  1.381 .      A
C259  C260  1.378 .      A
C260  C261  1.372 .      A
C261  N87   1.347 .      A
C264  N89   1.375 .      A
C264  N90   1.380 .      A
N89   C265  1.356 .      A
C265  C266  1.381 .      A
C265  C270  1.355 .      A
C266  C267  1.383 .      A
C267  C268  1.388 .      A
C268  C269  1.383 .      A
C269  C270  1.375 .      A
C270  N90   1.343 .      A
C273  N92   1.383 .      A
C273  N93   1.385 .      A
N92   C274  1.337 .      A
C274  C275  1.362 .      A
C274  C279  1.352 .      A
C275  C276  1.384 .      A
C276  C277  1.380 .      A
C277  C278  1.377 .      A
C278  C279  1.370 .      A
C279  N93   1.351 .      A
C282  N95   1.381 .      A
C282  N96   1.384 .      A
N95   C283  1.357 .      A
C283  C284  1.383 .      A
C283  C288  1.363 .      A
C284  C285  1.379 .      A
C285  C286  1.378 .      A
C286  C287  1.377 .      A
C287  C288  1.374 .      A
C288  N96   1.347 .      A
C291  N98   1.377 .      A
C291  N99   1.380 .      A
N98   C292  1.345 1_554  A
C292  N98   1.345 1_556  A
C292  C293  1.376 .      A
C292  C297  1.362 .      A
C293  C294  1.386 .      A
C294  C295  1.392 .      A
C295  C296  1.385 .      A
C296  C297  1.364 .      A
C297  N99   1.346 1_556  A
N99   C297  1.346 1_554  A
C300  N101  1.400 .      A
C300  N102  1.390 .      A
N101  C301  1.348 .      A
C301  C302  1.369 .      A
C301  C306  1.341 .      A
C302  C303  1.378 .      A
C303  C304  1.382 .      A
C304  C305  1.371 .      A
C305  C306  1.360 .      A
C306  N102  1.336 .      A
C309  N104  1.391 .      A
C309  N105  1.374 .      A
N104  C310  1.351 .      A
C310  C311  1.373 .      A
C310  C315  1.363 .      A
C311  C312  1.376 .      A
C312  C313  1.377 .      A
C313  C314  1.377 .      A
C314  C315  1.363 .      A
C315  N105  1.344 .      A
C318  N107  1.380 .      A
C318  N108  1.384 .      A
N107  C319  1.352 .      A
C319  C320  1.380 .      A
C319  C324  1.363 .      A
C320  C321  1.380 .      A
C321  C322  1.385 .      A
C322  C323  1.384 .      A
C323  C324  1.362 .      A
C324  N108  1.342 .      A
C327  N110  1.369 .      A
C327  N111  1.381 1_455  A
N110  C328  1.353 1_455  A
C328  N110  1.353 1_655  A
C328  C329  1.370 .      A
C328  C333  1.360 .      A
C329  C330  1.385 .      A
C330  C331  1.389 .      A
C331  C332  1.380 .      A
C332  C333  1.371 .      A
C333  N111  1.340 .      A
N111  C327  1.381 1_655  A
C336  N113  1.393 .      A
C336  N114  1.399 .      A
N113  C337  1.335 .      A
C337  C338  1.371 .      A
C337  C342  1.360 .      A
C338  C339  1.377 .      A
C339  C340  1.378 .      A
C340  C341  1.378 .      A
C341  C342  1.374 .      A
C342  N114  1.363 .      A
C345  N116  1.404 .      A
C345  N117  1.382 .      A
N116  C346  1.347 .      A
C346  C347  1.359 .      A
C346  C351  1.350 .      A
C347  C348  1.382 .      A
C348  C349  1.384 .      A
C349  C350  1.381 .      A
C350  C351  1.373 .      A
C351  N117  1.336 .      A
C354  N119  1.379 .      A
C354  N120  1.383 .      A
N119  C355  1.339 .      A
C355  C356  1.372 1_545  A
C355  C360  1.368 .      A
C356  C355  1.372 1_565  A
C356  C357  1.383 .      A
C357  C358  1.390 1_565  A
C358  C357  1.390 1_545  A
C358  C359  1.386 .      A
C359  C360  1.372 .      A
C360  N120  1.354 .      A
C363  N122  1.391 .      A
C363  N123  1.390 .      A
N122  C364  1.343 .      A
C364  C365  1.346 .      A
C364  C369  1.334 .      A
C365  C366  1.366 .      A
C366  C367  1.371 .      A
C367  C368  1.363 .      A
C368  C369  1.359 .      A
C369  N123  1.327 .      A
C372  N125  1.371 .      A
C372  N126  1.380 .      A
N125  C373  1.352 .      A
C373  C374  1.374 1_455  A
C373  C378  1.353 .      A
C374  C373  1.374 1_655  A
C374  C375  1.386 .      A
C375  C376  1.387 .      A
C376  C377  1.381 1_655  A
C377  C376  1.381 1_455  A
C377  C378  1.372 .      A
C378  N126  1.341 .      A
C381  N128  1.380 .      A
C381  N129  1.385 .      A
N128  C382  1.348 .      A
C382  C383  1.368 .      A
C382  C387  1.352 .      A
C383  C384  1.378 .      A
C384  C385  1.380 1_554  A
C385  C384  1.380 1_556  A
C385  C386  1.380 .      A
C386  C387  1.366 1_556  A
C387  C386  1.366 1_554  A
C387  N129  1.348 .      A
C390  N131  1.382 .      A
C390  N132  1.385 .      A
N131  C391  1.344 .      A
C391  C392  1.358 .      A
C391  C396  1.357 .      A
C392  C393  1.380 .      A
C393  C394  1.383 .      A
C394  C395  1.383 .      A
C395  C396  1.367 .      A
C396  N132  1.340 .      A
C399  N134  1.399 .      A
C399  N135  1.397 .      A
N134  C400  1.335 .      A
C400  C401  1.369 .      A
C400  C405  1.355 .      A
C401  C402  1.376 1_565  A
C402  C401  1.376 1_545  A
C402  C403  1.381 .      A
C403  C404  1.377 1_545  A
C404  C403  1.377 1_565  A
C404  C405  1.355 .      A
C405  N135  1.348 .      A
C408  N137  1.370 .      A
C408  N138  1.376 .      A
N137  C409  1.349 .      A
C409  C410  1.373 .      A
C409  C414  1.370 .      A
C410  C411  1.384 .      A
C411  C412  1.386 .      A
C412  C413  1.380 .      A
C413  C414  1.370 .      A
C414  N138  1.349 .      A
C417  N140  1.378 1_565  A
C417  N141  1.360 .      A
N140  C417  1.378 1_545  A
N140  C418  1.354 .      A
C418  C419  1.378 .      A
C418  C423  1.364 .      A
C419  C420  1.377 .      A
C420  C421  1.377 .      A
C421  C422  1.377 .      A
C422  C423  1.377 .      A
C423  N141  1.354 1_545  A
N141  C423  1.354 1_565  A
C426  N143  1.396 .      A
C426  N144  1.378 .      A
N143  C427  1.351 .      A
C427  C428  1.365 .      A
C427  C432  1.368 1_655  A
C428  C429  1.388 1_655  A
C429  C428  1.388 1_455  A
C429  C430  1.387 .      A
C430  C431  1.380 .      A
C431  C432  1.371 .      A
C432  C427  1.368 1_455  A
C432  N144  1.343 1_455  A
N144  C432  1.343 1_655  A
C435  N146  1.388 .      A
C435  N147  1.370 .      A
N146  C436  1.359 .      A
C436  C437  1.378 .      A
C436  C441  1.363 .      A
C437  C438  1.381 .      A
C438  C439  1.383 .      A
C439  C440  1.380 .      A
C440  C441  1.369 .      A
C441  N147  1.341 .      A
C444  N149  1.372 .      A
C444  N150  1.362 .      A
N149  C445  1.340 .      A
C445  C446  1.373 1_565  A
C445  C450  1.355 .      A
C446  C445  1.373 1_545  A
C446  C447  1.383 1_545  A
C447  C446  1.383 1_565  A
C447  C448  1.390 .      A
C448  C449  1.386 .      A
C449  C450  1.368 .      A
C450  N150  1.354 .      A
C453  N152  1.371 .      A
C453  N153  1.375 .      A
N152  C454  1.336 .      A
C454  C455  1.360 .      A
C454  C459  1.346 .      A
C455  C456  1.372 .      A
C456  C457  1.382 .      A
C457  C458  1.382 .      A
C458  C459  1.363 .      A
C459  N153  1.348 .      A
C462  N155  1.380 .      A
C462  N156  1.377 .      A
N155  C463  1.348 .      A
C463  C464  1.372 .      A
C463  C468  1.364 .      A
C464  C465  1.381 .      A
C465  C466  1.386 .      A
C466  C467  1.383 .      A
C467  C468  1.374 .      A
C468  N156  1.351 .      A
C471  N158  1.385 .      A
C471  N159  1.392 .      A
N158  C472  1.357 .      A
C472  C473  1.379 .      A
C472  C477  1.357 .      A
C473  C474  1.384 .      A
C474  C475  1.385 .      A
C475  C476  1.380 .      A
C476  C477  1.379 .      A
C477  N159  1.345 .      A
C480  N161  1.371 .      A
C480  N162  1.378 .      A
N161  C481  1.348 .      A
C481  C482  1.373 .      A
C481  C486  1.358 .      A
C482  C483  1.385 .      A
C483  C484  1.388 .      A
C484  C485  1.384 .      A
C485  C486  1.381 .      A
C486  N162  1.352 .      A
C489  N164  1.368 .      A
C489  N165  1.372 .      A
N164  C490  1.345 .      A
C490  C491  1.370 .      A
C490  C495  1.352 .      A
C491  C492  1.381 .      A
C492  C493  1.386 1_554  A
C493  C492  1.386 1_556  A
C493  C494  1.379 1_556  A
C494  C493  1.379 1_554  A
C494  C495  1.378 .      A
C495  N165  1.349 .      A
C498  N167  1.395 .      A
C498  N168  1.380 .      A
N167  C499  1.347 .      A
C499  C500  1.371 .      A
C499  C504  1.357 .      A
C500  C501  1.380 .      A
C501  C502  1.383 1_455  A
C502  C501  1.383 1_655  A
C502  C503  1.380 1_655  A
C503  C502  1.380 1_455  A
C503  C504  1.373 .      A
C504  N168  1.351 .      A
C507  N170  1.379 .      A
C507  N171  1.370 .      A
N170  C508  1.349 .      A
C508  C509  1.377 1_545  A
C508  C513  1.360 .      A
C509  C508  1.377 1_565  A
C509  C510  1.377 .      A
C510  C511  1.381 .      A
C511  C512  1.380 .      A
C512  C513  1.376 1_565  A
C513  C512  1.376 1_545  A
C513  N171  1.356 .      A
C516  N173  1.398 .      A
C516  N174  1.376 .      A
N173  C517  1.354 1_545  A
C517  N173  1.354 1_565  A
C517  C518  1.367 .      A
C517  C522  1.359 .      A
C518  C519  1.385 .      A
C519  C520  1.382 .      A
C520  C521  1.378 .      A
C521  C522  1.375 .      A
C522  N174  1.344 1_565  A
N174  C522  1.344 1_545  A
C525  N176  1.373 .      A
C525  N177  1.373 .      A
N176  C526  1.353 .      A
C526  C527  1.376 .      A
C526  C531  1.365 .      A
C527  C528  1.382 .      A
C528  C529  1.382 .      A
C529  C530  1.378 .      A
C530  C531  1.374 .      A
C531  N177  1.345 .      A
C534  N179  1.384 .      A
C534  N180  1.384 .      A
N179  C535  1.343 .      A
C535  C536  1.374 .      A
C535  C540  1.351 .      A
C536  C537  1.376 .      A
C537  C538  1.378 .      A
C538  C539  1.379 .      A
C539  C540  1.366 .      A
C540  N180  1.355 .      A
C543  N182  1.392 .      A
C543  N183  1.375 .      A
N182  C544  1.343 .      A
C544  C545  1.371 .      A
C544  C549  1.363 .      A
C545  C546  1.383 .      A
C546  C547  1.389 .      A
C547  C548  1.384 .      A
C548  C549  1.371 .      A
C549  N183  1.350 .      A
C552  N185  1.387 .      A
C552  N186  1.397 .      A
N185  C553  1.323 .      A
C553  C554  1.356 .      A
C553  C558  1.345 .      A
C554  C555  1.358 .      A
C555  C556  1.386 .      A
C556  C557  1.355 .      A
C557  C558  1.334 .      A
C558  N186  1.332 .      A
C561  N188  1.391 .      A
C561  N189  1.379 .      A
N188  C562  1.344 .      A
C562  C563  1.366 .      A
C562  C567  1.353 .      A
C563  C564  1.381 .      A
C564  C565  1.387 .      A
C565  C566  1.385 .      A
C566  C567  1.367 .      A
C567  N189  1.341 .      A
C570  N191  1.382 .      A
C570  N192  1.382 .      A
N191  C571  1.345 .      A
C571  C572  1.374 .      A
C571  C576  1.373 .      A
C572  C573  1.378 .      A
C573  C574  1.383 .      A
C574  C575  1.382 .      A
C575  C576  1.382 .      A
C576  N192  1.365 .      A
