data_str_m1_o12298_CAN
_audit_creation_date              2015-10-01T06:29:50-0700
_symmetry_space_group_name_H-M    P1
_symmetry_Int_Tables_number       1
_space_group_crystal_system       triclinic
loop_
_symmetry_equiv_pos_as_xyz
  x,y,z
_cell_length_a                    24.9786165
_cell_length_b                    26.1829582
_cell_length_c                    11.5421037
_cell_angle_alpha                 89.9610982
_cell_angle_beta                  86.8680989
_cell_angle_gamma                 62.7321693
_cell_volume                      6697.30209529

loop_
_atom_site_label
_atom_site_type_symbol
_atom_site_description
_atom_site_fract_x
_atom_site_fract_y
_atom_site_fract_z
_atom_type_partial_charge
Zn1   Zn    Zn3+2 0.301208 0.715015 0.589560 0.000000
Zn2   Zn    Zn3+2 0.897566 0.784257 0.070728 0.000000
Zn3   Zn    Zn3+2 0.615353 0.516737 0.063820 0.000000
Zn4   Zn    Zn3+2 0.894982 0.520396 0.115152 0.000000
Zn5   Zn    Zn3+2 0.648208 0.053229 0.058394 0.000000
Zn6   Zn    Zn3+2 0.368553 0.776588 0.093321 0.000000
Zn7   Zn    Zn3+2 0.543614 0.453637 0.565972 0.000000
Zn8   Zn    Zn3+2 0.304100 0.177907 0.620173 0.000000
Zn9   Zn    Zn3+2 0.062628 0.443956 0.598824 0.000000
Zn10  Zn    Zn3+2 0.037430 0.720163 0.573345 0.000000
Zn11  Zn    Zn3+2 0.379726 0.034733 0.107355 0.000000
Zn12  Zn    Zn3+2 0.570321 0.188532 0.564857 0.000000
C1    C     C_3   0.047233 0.502012 0.206157 0.000000
C2    C     C_R   0.063880 0.540752 0.135377 0.000000
N1    N     N_R   0.122690 0.524348 0.106724 0.000000
C3    C     C_R   0.124663 0.572928 0.078459 0.000000
C4    C     C_R   0.175576 0.580830 0.076165 0.000000
C5    C     C_R   0.167263 0.636863 0.080589 0.000000
C6    C     C_R   0.109387 0.682585 0.081443 0.000000
C7    C     C_R   0.058816 0.673315 0.083016 0.000000
C8    C     C_R   0.067786 0.617365 0.084336 0.000000
N2    N     N_R   0.027755 0.597659 0.116307 0.000000
C9    C     C_3   0.967643 0.633793 0.173297 0.000000
C10   C     C_R   0.913581 0.648907 0.109290 0.000000
N3    N     N_R   0.883012 0.704946 0.069266 0.000000
C11   C     C_R   0.836331 0.701814 0.022502 0.000000
C12   C     C_R   0.818363 0.722256 0.914969 0.000000
C13   C     C_R   0.793330 0.694875 0.849450 0.000000
C14   C     C_R   0.777289 0.655499 0.898099 0.000000
C15   C     C_R   0.794514 0.635983 0.006114 0.000000
C16   C     C_R   0.832173 0.652857 0.056201 0.000000
N4    N     N_R   0.881326 0.615977 0.109474 0.000000
H1    H     H_    0.087605 0.471898 0.247529 0.000000
H2    H     H_    0.007567 0.526875 0.262762 0.000000
H3    H     H_    0.037260 0.471530 0.160752 0.000000
H4    H     H_    0.219713 0.544892 0.083120 0.000000
H5    H     H_    0.204825 0.645590 0.093594 0.000000
H6    H     H_    0.103864 0.725660 0.092249 0.000000
H7    H     H_    0.014424 0.709443 0.092178 0.000000
H8    H     H_    0.957661 0.611006 0.238199 0.000000
H9    H     H_    0.963756 0.675712 0.199899 0.000000
H10   H     H_    0.835424 0.749622 0.875909 0.000000
H11   H     H_    0.788392 0.700300 0.757831 0.000000
H12   H     H_    0.760294 0.633235 0.845128 0.000000
H13   H     H_    0.791931 0.598588 0.035531 0.000000
C17   C     C_3   0.683555 0.719591 0.184885 0.000000
C18   C     C_R   0.704563 0.680051 0.280751 0.000000
N5    N     N_R   0.714028 0.695201 0.386350 0.000000
C19   C     C_R   0.728441 0.647866 0.447991 0.000000
C20   C     C_R   0.753806 0.637659 0.553694 0.000000
C21   C     C_R   0.783170 0.581008 0.586508 0.000000
C22   C     C_R   0.782733 0.537803 0.517268 0.000000
C23   C     C_R   0.750818 0.550176 0.416472 0.000000
C24   C     C_R   0.725693 0.606021 0.381309 0.000000
N6    N     N_R   0.711661 0.625983 0.273764 0.000000
C25   C     C_3   0.698255 0.604459 0.167519 0.000000
C26   C     C_R   0.737476 0.542793 0.129964 0.000000
N7    N     N_R   0.801844 0.515181 0.108046 0.000000
C27   C     C_R   0.809488 0.462617 0.072480 0.000000
C28   C     C_R   0.861884 0.417609 0.028485 0.000000
C29   C     C_R   0.860776 0.367427 0.994122 0.000000
C30   C     C_R   0.807190 0.363426 0.000184 0.000000
C31   C     C_R   0.753817 0.410030 0.038665 0.000000
C32   C     C_R   0.756199 0.458679 0.076011 0.000000
N8    N     N_R   0.708049 0.509772 0.100617 0.000000
H14   H     H_    0.644210 0.715791 0.154916 0.000000
H15   H     H_    0.673864 0.763029 0.214745 0.000000
H16   H     H_    0.718718 0.707214 0.114329 0.000000
H17   H     H_    0.754784 0.671893 0.604239 0.000000
H18   H     H_    0.805067 0.569927 0.667453 0.000000
H19   H     H_    0.807158 0.494301 0.545522 0.000000
H20   H     H_    0.749121 0.516934 0.363870 0.000000
H21   H     H_    0.651490 0.610247 0.180328 0.000000
H22   H     H_    0.699613 0.631238 0.094797 0.000000
H23   H     H_    0.901849 0.422313 0.014607 0.000000
H24   H     H_    0.901765 0.331345 0.959985 0.000000
H25   H     H_    0.806887 0.324347 0.970937 0.000000
H26   H     H_    0.711351 0.408439 0.038209 0.000000
C33   C     C_3   0.182220 0.417706 0.935679 0.000000
C34   C     C_R   0.121699 0.467039 0.920520 0.000000
N9    N     N_R   0.102800 0.498761 0.825982 0.000000
C35   C     C_R   0.044348 0.533730 0.853941 0.000000
C36   C     C_R   0.001639 0.542177 0.781347 0.000000
C37   C     C_R   0.941939 0.563414 0.818801 0.000000
C38   C     C_R   0.927665 0.570164 0.932417 0.000000
C39   C     C_R   0.973507 0.546289 0.006621 0.000000
C40   C     C_R   0.031166 0.523753 0.960780 0.000000
N10   N     N_R   0.074757 0.473242 0.988988 0.000000
C41   C     C_3   0.059139 0.428192 0.962689 0.000000
C42   C     C_R   0.005069 0.451796 0.891457 0.000000
N11   N     N_R   0.946960 0.475551 0.947391 0.000000
C43   C     C_R   0.914704 0.474339 0.858819 0.000000
C44   C     C_R   0.853341 0.496817 0.856487 0.000000
C45   C     C_R   0.831051 0.481617 0.763217 0.000000
C46   C     C_R   0.870603 0.436511 0.690259 0.000000
C47   C     C_R   0.931762 0.418701 0.691076 0.000000
C48   C     C_R   0.950661 0.448103 0.761271 0.000000
N12   N     N_R   0.008234 0.437742 0.771240 0.000000
H27   H     H_    0.193018 0.382447 0.872712 0.000000
H28   H     H_    0.219623 0.428645 0.934020 0.000000
H29   H     H_    0.180306 0.403327 0.024554 0.000000
H30   H     H_    0.018182 0.509309 0.720829 0.000000
H31   H     H_    0.908054 0.557710 0.774671 0.000000
H32   H     H_    0.886239 0.568828 0.951128 0.000000
H33   H     H_    0.966208 0.535999 0.092494 0.000000
H34   H     H_    0.096778 0.396184 0.907192 0.000000
H35   H     H_    0.049925 0.408607 0.040904 0.000000
H36   H     H_    0.823172 0.526073 0.921883 0.000000
H37   H     H_    0.782871 0.499503 0.756998 0.000000
H38   H     H_    0.854150 0.414052 0.636037 0.000000
H39   H     H_    0.964012 0.379041 0.651306 0.000000
C49   C     C_3   0.839464 0.558002 0.294302 0.000000
C50   C     C_R   0.849517 0.498616 0.326305 0.000000
N13   N     N_R   0.838863 0.461014 0.263419 0.000000
C51   C     C_R   0.871788 0.409803 0.309006 0.000000
C52   C     C_R   0.882988 0.356800 0.265616 0.000000
C53   C     C_R   0.927912 0.309073 0.313789 0.000000
C54   C     C_R   0.962772 0.316012 0.396134 0.000000
C55   C     C_R   0.950997 0.370463 0.434458 0.000000
C56   C     C_R   0.901639 0.416486 0.395934 0.000000
N14   N     N_R   0.884182 0.472853 0.412241 0.000000
C57   C     C_3   0.915755 0.498779 0.465789 0.000000
C58   C     C_R   0.966009 0.486249 0.384501 0.000000
N15   N     N_R   0.019111 0.446700 0.431765 0.000000
C59   C     C_R   0.037168 0.402631 0.354306 0.000000
C60   C     C_R   0.073498 0.346204 0.378683 0.000000
C61   C     C_R   0.068329 0.304299 0.314377 0.000000
C62   C     C_R   0.032856 0.318566 0.219453 0.000000
C63   C     C_R   0.000755 0.375434 0.189249 0.000000
C64   C     C_R   0.000434 0.417334 0.261164 0.000000
N16   N     N_R   0.957179 0.472945 0.269559 0.000000
H40   H     H_    0.881742 0.561093 0.277213 0.000000
H41   H     H_    0.810425 0.577721 0.222804 0.000000
H42   H     H_    0.822260 0.585527 0.371142 0.000000
H43   H     H_    0.858424 0.352487 0.195309 0.000000
H44   H     H_    0.938248 0.266467 0.282433 0.000000
H45   H     H_    0.000623 0.278843 0.427511 0.000000
H46   H     H_    0.982342 0.376514 0.484165 0.000000
H47   H     H_    0.887754 0.545059 0.485749 0.000000
H48   H     H_    0.933606 0.473764 0.542566 0.000000
H49   H     H_    0.098516 0.335013 0.455936 0.000000
H50   H     H_    0.092005 0.260117 0.339374 0.000000
H51   H     H_    0.030237 0.285127 0.168908 0.000000
H52   H     H_    0.972301 0.386098 0.118358 0.000000
C65   C     C_3   0.562572 0.112763 0.193859 0.000000
C66   C     C_R   0.530043 0.149119 0.098282 0.000000
N17   N     N_R   0.534260 0.198208 0.077725 0.000000
C67   C     C_R   0.477102 0.237666 0.061816 0.000000
C68   C     C_R   0.455237 0.295534 0.050731 0.000000
C69   C     C_R   0.392816 0.328450 0.056767 0.000000
C70   C     C_R   0.355176 0.304054 0.086567 0.000000
C71   C     C_R   0.378601 0.245201 0.092602 0.000000
C72   C     C_R   0.439899 0.213590 0.074945 0.000000
N18   N     N_R   0.472933 0.157933 0.092001 0.000000
C73   C     C_3   0.451320 0.119275 0.136710 0.000000
C74   C     C_R   0.498189 0.059787 0.100871 0.000000
N19   N     N_R   0.478984 0.020014 0.070929 0.000000
C75   C     C_R   0.531594 0.977983 0.016904 0.000000
C76   C     C_R   0.547110 0.925781 0.958418 0.000000
C77   C     C_R   0.602727 0.897571 0.900540 0.000000
C78   C     C_R   0.639172 0.923846 0.881490 0.000000
C79   C     C_R   0.626982 0.971478 0.945133 0.000000
C80   C     C_R   0.576360 0.994621 0.015694 0.000000
N20   N     N_R   0.559958 0.044024 0.070073 0.000000
H53   H     H_    0.600116 0.069502 0.206134 0.000000
H54   H     H_    0.560665 0.142414 0.254925 0.000000
H55   H     H_    0.532341 0.100540 0.229773 0.000000
H56   H     H_    0.485844 0.313700 0.034493 0.000000
H57   H     H_    0.372501 0.372633 0.031054 0.000000
H58   H     H_    0.307110 0.331241 0.098669 0.000000
H59   H     H_    0.349764 0.225326 0.112367 0.000000
H60   H     H_    0.441869 0.125193 0.231817 0.000000
H61   H     H_    0.407504 0.130443 0.103676 0.000000
H62   H     H_    0.522417 0.903959 0.938386 0.000000
H63   H     H_    0.612697 0.856853 0.861466 0.000000
H64   H     H_    0.674187 0.911556 0.813529 0.000000
H65   H     H_    0.651874 0.995104 0.930603 0.000000
C81   C     C_3   0.487882 0.070464 0.607755 0.000000
C82   C     C_R   0.547744 0.027965 0.634310 0.000000
N21   N     N_R   0.577922 0.978046 0.573935 0.000000
C83   C     C_R   0.634987 0.959051 0.602743 0.000000
C84   C     C_R   0.684275 0.911079 0.559882 0.000000
C85   C     C_R   0.739574 0.904757 0.587722 0.000000
C86   C     C_R   0.744873 0.946951 0.652071 0.000000
C87   C     C_R   0.694037 0.995233 0.693500 0.000000
C88   C     C_R   0.639399 0.998619 0.671003 0.000000
N22   N     N_R   0.584345 0.042317 0.692702 0.000000
C89   C     C_3   0.564541 0.086287 0.784465 0.000000
C90   C     C_R   0.608508 0.108310 0.797259 0.000000
N23   N     N_R   0.645618 0.091378 0.890765 0.000000
C91   C     C_R   0.688480 0.105905 0.855065 0.000000
C92   C     C_R   0.739240 0.094581 0.912419 0.000000
C93   C     C_R   0.781991 0.107335 0.858036 0.000000
C94   C     C_R   0.773512 0.129705 0.747901 0.000000
C95   C     C_R   0.721505 0.141488 0.692106 0.000000
C96   C     C_R   0.677372 0.131227 0.748213 0.000000
N24   N     N_R   0.624196 0.136715 0.709401 0.000000
H66   H     H_    0.503314 0.101414 0.586601 0.000000
H67   H     H_    0.468692 0.053058 0.543589 0.000000
H68   H     H_    0.453256 0.093204 0.675699 0.000000
H69   H     H_    0.680985 0.879213 0.505687 0.000000
H70   H     H_    0.777995 0.867597 0.553381 0.000000
H71   H     H_    0.788583 0.944487 0.663010 0.000000
H72   H     H_    0.698591 0.028799 0.738184 0.000000
H73   H     H_    0.519277 0.121704 0.769391 0.000000
H74   H     H_    0.566423 0.063959 0.866216 0.000000
H75   H     H_    0.746280 0.074790 0.996184 0.000000
H76   H     H_    0.823119 0.097894 0.899490 0.000000
H77   H     H_    0.808515 0.137174 0.703914 0.000000
H78   H     H_    0.719932 0.154008 0.604965 0.000000
C97   C     C_3   0.844006 0.983152 0.286288 0.000000
C98   C     C_R   0.816167 0.039590 0.229586 0.000000
N25   N     N_R   0.848223 0.054093 0.149816 0.000000
C99   C     C_R   0.814410 0.110780 0.138088 0.000000
C100  C     C_R   0.829342 0.147101 0.074159 0.000000
C101  C     C_R   0.791028 0.205437 0.086585 0.000000
C102  C     C_R   0.741084 0.225634 0.165336 0.000000
C103  C     C_R   0.727983 0.187707 0.230041 0.000000
C104  C     C_R   0.764297 0.130027 0.210595 0.000000
N26   N     N_R   0.763604 0.085357 0.267130 0.000000
C105  C     C_3   0.719956 0.087621 0.359900 0.000000
C106  C     C_R   0.656764 0.111183 0.318435 0.000000
N27   N     N_R   0.655110 0.112968 0.196630 0.000000
C107  C     C_R   0.627961 0.170305 0.182728 0.000000
C108  C     C_R   0.632409 0.197954 0.084569 0.000000
C109  C     C_R   0.621299 0.254459 0.097937 0.000000
C110  C     C_R   0.602463 0.282353 0.205148 0.000000
C111  C     C_R   0.588487 0.256732 0.298262 0.000000
C112  C     C_R   0.604386 0.199467 0.287997 0.000000
N28   N     N_R   0.615787 0.162568 0.376702 0.000000
H79   H     H_    0.831227 0.988255 0.380473 0.000000
H80   H     H_    0.831644 0.952980 0.242626 0.000000
H81   H     H_    0.893758 0.965399 0.275450 0.000000
H82   H     H_    0.870390 0.130978 0.018893 0.000000
H83   H     H_    0.801341 0.235575 0.038388 0.000000
H84   H     H_    0.713231 0.271408 0.178646 0.000000
H85   H     H_    0.693079 0.203313 0.297999 0.000000
H86   H     H_    0.734309 0.046454 0.397837 0.000000
H87   H     H_    0.721649 0.114216 0.431200 0.000000
H88   H     H_    0.652606 0.174621 0.004170 0.000000
H89   H     H_    0.632303 0.275833 0.028095 0.000000
H90   H     H_    0.604376 0.322175 0.218801 0.000000
H91   H     H_    0.576051 0.278536 0.380066 0.000000
C113  C     C_3   0.843952 0.815604 0.695394 0.000000
C114  C     C_R   0.786212 0.828124 0.759851 0.000000
N29   N     N_R   0.760871 0.792671 0.751104 0.000000
C115  C     C_R   0.728951 0.800262 0.852999 0.000000
C116  C     C_R   0.695709 0.773413 0.890562 0.000000
C117  C     C_R   0.665440 0.790931 0.998370 0.000000
C118  C     C_R   0.667510 0.833996 0.064009 0.000000
C119  C     C_R   0.702820 0.858772 0.025710 0.000000
C120  C     C_R   0.735009 0.838994 0.920804 0.000000
N30   N     N_R   0.770193 0.857403 0.861963 0.000000
C121  C     C_3   0.773408 0.909902 0.884841 0.000000
C122  C     C_R   0.774500 0.916247 0.010144 0.000000
N31   N     N_R   0.730332 0.964461 0.075644 0.000000
C123  C     C_R   0.747545 0.945149 0.183434 0.000000
C124  C     C_R   0.728732 0.974313 0.287401 0.000000
C125  C     C_R   0.763201 0.949217 0.383540 0.000000
C126  C     C_R   0.810212 0.894809 0.375835 0.000000
C127  C     C_R   0.821308 0.864144 0.275510 0.000000
C128  C     C_R   0.794246 0.890789 0.180616 0.000000
N32   N     N_R   0.814256 0.869621 0.074031 0.000000
H92   H     H_    0.847410 0.794071 0.612201 0.000000
H93   H     H_    0.848790 0.854910 0.680370 0.000000
H94   H     H_    0.880450 0.784903 0.747283 0.000000
H95   H     H_    0.689491 0.743235 0.835927 0.000000
H96   H     H_    0.636416 0.774345 0.029235 0.000000
H97   H     H_    0.640284 0.849322 0.144504 0.000000
H98   H     H_    0.702603 0.892435 0.078697 0.000000
H99   H     H_    0.811475 0.909834 0.834911 0.000000
H100  H     H_    0.734359 0.946371 0.854926 0.000000
H101  H     H_    0.691624 0.016179 0.286844 0.000000
H102  H     H_    0.757959 0.970247 0.466009 0.000000
H103  H     H_    0.840297 0.877213 0.445209 0.000000
H104  H     H_    0.852857 0.821514 0.267081 0.000000
C129  C     C_3   0.424916 0.962214 0.982473 0.000000
C130  C     C_R   0.459183 0.942434 0.096826 0.000000
N33   N     N_R   0.450681 0.971060 0.201224 0.000000
C131  C     C_R   0.487480 0.931146 0.270945 0.000000
C132  C     C_R   0.507442 0.938501 0.374262 0.000000
C133  C     C_R   0.564137 0.896408 0.398689 0.000000
C134  C     C_R   0.589043 0.842848 0.343720 0.000000
C135  C     C_R   0.561278 0.834367 0.250786 0.000000
C136  C     C_R   0.513310 0.880875 0.213598 0.000000
N34   N     N_R   0.492796 0.887114 0.108235 0.000000
C137  C     C_3   0.462314 0.856363 0.076357 0.000000
C138  C     C_R   0.396710 0.891250 0.108018 0.000000
N35   N     N_R   0.361883 0.862498 0.119427 0.000000
C139  C     C_R   0.308376 0.905993 0.161021 0.000000
C140  C     C_R   0.253831 0.904951 0.181928 0.000000
C141  C     C_R   0.203803 0.955595 0.218329 0.000000
C142  C     C_R   0.209392 0.004881 0.241028 0.000000
C143  C     C_R   0.264192 0.005027 0.219007 0.000000
C144  C     C_R   0.311568 0.956525 0.173544 0.000000
N36   N     N_R   0.365870 0.951098 0.137648 0.000000
H105  H     H_    0.375362 0.985232 0.976237 0.000000
H106  H     H_    0.439392 0.990154 0.938706 0.000000
H107  H     H_    0.434928 0.926929 0.920523 0.000000
H108  H     H_    0.483660 0.976928 0.427901 0.000000
H109  H     H_    0.590638 0.905849 0.455508 0.000000
H110  H     H_    0.631246 0.809590 0.371142 0.000000
H111  H     H_    0.579560 0.796623 0.196870 0.000000
H112  H     H_    0.468604 0.847351 0.982302 0.000000
H113  H     H_    0.478964 0.819980 0.133274 0.000000
H114  H     H_    0.249290 0.866751 0.165035 0.000000
H115  H     H_    0.159954 0.957008 0.229139 0.000000
H116  H     H_    0.170660 0.043405 0.274562 0.000000
H117  H     H_    0.271567 0.040631 0.240602 0.000000
C145  C     C_3   0.523430 0.603901 0.855239 0.000000
C146  C     C_R   0.508030 0.664762 0.841332 0.000000
N37   N     N_R   0.547978 0.685793 0.842876 0.000000
C147  C     C_R   0.516461 0.740757 0.812321 0.000000
C148  C     C_R   0.537175 0.780757 0.799465 0.000000
C149  C     C_R   0.495250 0.836500 0.783625 0.000000
C150  C     C_R   0.434654 0.850859 0.783156 0.000000
C151  C     C_R   0.415059 0.808795 0.788716 0.000000
C152  C     C_R   0.458095 0.753155 0.802371 0.000000
N38   N     N_R   0.452907 0.704551 0.818515 0.000000
C153  C     C_3   0.403162 0.690673 0.820993 0.000000
C154  C     C_R   0.346294 0.743123 0.830427 0.000000
N39   N     N_R   0.329572 0.780333 0.926624 0.000000
C155  C     C_R   0.280177 0.825365 0.888539 0.000000
C156  C     C_R   0.254920 0.881031 0.929030 0.000000
C157  C     C_R   0.207700 0.923042 0.873440 0.000000
C158  C     C_R   0.189461 0.909667 0.771965 0.000000
C159  C     C_R   0.220296 0.854867 0.723775 0.000000
C160  C     C_R   0.265397 0.813017 0.782989 0.000000
N40   N     N_R   0.305999 0.760059 0.742901 0.000000
H118  H     H_    0.513256 0.586423 0.776840 0.000000
H119  H     H_    0.570753 0.582548 0.878340 0.000000
H120  H     H_    0.494075 0.599409 0.922892 0.000000
H121  H     H_    0.583573 0.770793 0.811329 0.000000
H122  H     H_    0.509221 0.869724 0.779220 0.000000
H123  H     H_    0.404026 0.895850 0.779893 0.000000
H124  H     H_    0.368092 0.819670 0.787493 0.000000
H125  H     H_    0.406421 0.665553 0.741246 0.000000
H126  H     H_    0.405440 0.665555 0.899111 0.000000
H127  H     H_    0.277305 0.893206 0.989450 0.000000
H128  H     H_    0.188026 0.967238 0.904408 0.000000
H129  H     H_    0.154893 0.943287 0.724986 0.000000
H130  H     H_    0.213507 0.846841 0.636997 0.000000
C161  C     C_3   0.323394 0.885866 0.626780 0.000000
C162  C     C_R   0.379092 0.851806 0.552688 0.000000
N41   N     N_R   0.436336 0.836655 0.579492 0.000000
C163  C     C_R   0.469605 0.806511 0.484293 0.000000
C164  C     C_R   0.531103 0.779999 0.465913 0.000000
C165  C     C_R   0.554870 0.755620 0.357808 0.000000
C166  C     C_R   0.518010 0.753419 0.275280 0.000000
C167  C     C_R   0.455798 0.780155 0.295974 0.000000
C168  C     C_R   0.433466 0.805627 0.403106 0.000000
N42   N     N_R   0.376707 0.830396 0.448896 0.000000
C169  C     C_3   0.321319 0.835433 0.406110 0.000000
C170  C     C_R   0.323474 0.780729 0.362624 0.000000
N43   N     N_R   0.314752 0.781174 0.245113 0.000000
C171  C     C_R   0.262806 0.778445 0.243299 0.000000
C172  C     C_R   0.231492 0.783846 0.146000 0.000000
C173  C     C_R   0.186148 0.768059 0.152269 0.000000
C174  C     C_R   0.170445 0.751885 0.257348 0.000000
C175  C     C_R   0.197850 0.753812 0.357257 0.000000
C176  C     C_R   0.248273 0.763347 0.348392 0.000000
N44   N     N_R   0.288896 0.760352 0.427378 0.000000
H131  H     H_    0.304647 0.856663 0.649768 0.000000
H132  H     H_    0.330374 0.902811 0.707625 0.000000
H133  H     H_    0.291119 0.922354 0.577450 0.000000
H134  H     H_    0.559659 0.781237 0.530906 0.000000
H135  H     H_    0.602865 0.737274 0.338143 0.000000
H136  H     H_    0.539020 0.732104 0.193749 0.000000
H137  H     H_    0.426264 0.784884 0.227846 0.000000
H138  H     H_    0.284344 0.854123 0.474277 0.000000
H139  H     H_    0.309260 0.865976 0.336876 0.000000
H140  H     H_    0.245219 0.796066 0.064744 0.000000
H141  H     H_    0.163032 0.768573 0.075551 0.000000
H142  H     H_    0.135380 0.738631 0.262135 0.000000
H143  H     H_    0.173244 0.754660 0.435494 0.000000
C177  C     C_3   0.396938 0.684003 0.283848 0.000000
C178  C     C_R   0.369435 0.671130 0.184201 0.000000
N45   N     N_R   0.329051 0.708571 0.114168 0.000000
C179  C     C_R   0.325276 0.676071 0.029407 0.000000
C180  C     C_R   0.298456 0.694513 0.927021 0.000000
C181  C     C_R   0.324064 0.656963 0.832677 0.000000
C182  C     C_R   0.368124 0.601065 0.849006 0.000000
C183  C     C_R   0.384850 0.581656 0.957648 0.000000
C184  C     C_R   0.365374 0.621374 0.044736 0.000000
N46   N     N_R   0.394666 0.618596 0.139182 0.000000
C185  C     C_3   0.458540 0.589577 0.137151 0.000000
C186  C     C_R   0.485030 0.629346 0.109229 0.000000
N47   N     N_R   0.546570 0.602649 0.079482 0.000000
C187  C     C_R   0.555487 0.646468 0.044413 0.000000
C188  C     C_R   0.608644 0.644206 0.002593 0.000000
C189  C     C_R   0.608437 0.696170 0.982537 0.000000
C190  C     C_R   0.554192 0.746965 0.994246 0.000000
C191  C     C_R   0.499728 0.745164 0.014315 0.000000
C192  C     C_R   0.502591 0.696013 0.049733 0.000000
N48   N     N_R   0.454964 0.689729 0.090764 0.000000
H144  H     H_    0.441364 0.648814 0.294598 0.000000
H145  H     H_    0.409793 0.717941 0.268008 0.000000
H146  H     H_    0.372818 0.682830 0.365643 0.000000
H147  H     H_    0.263895 0.738028 0.916669 0.000000
H148  H     H_    0.310263 0.671103 0.747809 0.000000
H149  H     H_    0.392687 0.572441 0.779091 0.000000
H150  H     H_    0.414603 0.537656 0.973087 0.000000
H151  H     H_    0.473165 0.568739 0.220459 0.000000
H152  H     H_    0.474808 0.559167 0.065442 0.000000
H153  H     H_    0.648874 0.603626 0.988675 0.000000
H154  H     H_    0.650271 0.696237 0.954235 0.000000
H155  H     H_    0.554664 0.787498 0.987905 0.000000
H156  H     H_    0.454631 0.778749 0.005803 0.000000
C193  C     C_3   0.409173 0.727265 0.539552 0.000000
C194  C     C_R   0.468090 0.700484 0.590064 0.000000
N49   N     N_R   0.502978 0.726631 0.605581 0.000000
C195  C     C_R   0.554498 0.684196 0.639975 0.000000
C196  C     C_R   0.604104 0.688159 0.675324 0.000000
C197  C     C_R   0.642879 0.643928 0.741150 0.000000
C198  C     C_R   0.640863 0.591733 0.739948 0.000000
C199  C     C_R   0.596577 0.585678 0.682915 0.000000
C200  C     C_R   0.550162 0.634842 0.645313 0.000000
N50   N     N_R   0.495925 0.644095 0.610946 0.000000
C201  C     C_3   0.486464 0.604879 0.536275 0.000000
C202  C     C_R   0.438835 0.588265 0.578130 0.000000
N51   N     N_R   0.457266 0.529739 0.586191 0.000000
C203  C     C_R   0.404653 0.528210 0.600548 0.000000
C204  C     C_R   0.398834 0.480141 0.623643 0.000000
C205  C     C_R   0.342257 0.486368 0.654244 0.000000
C206  C     C_R   0.293510 0.540358 0.664057 0.000000
C207  C     C_R   0.300843 0.588913 0.646265 0.000000
C208  C     C_R   0.356539 0.582304 0.604200 0.000000
N52   N     N_R   0.375233 0.623347 0.589065 0.000000
H157  H     H_    0.377298 0.766512 0.588933 0.000000
H158  H     H_    0.415623 0.731252 0.446519 0.000000
H159  H     H_    0.391317 0.696836 0.546097 0.000000
H160  H     H_    0.611750 0.724657 0.657807 0.000000
H161  H     H_    0.679397 0.647255 0.778660 0.000000
H162  H     H_    0.675906 0.555155 0.778380 0.000000
H163  H     H_    0.596558 0.544915 0.676763 0.000000
H164  H     H_    0.475248 0.624503 0.451897 0.000000
H165  H     H_    0.529765 0.565044 0.522871 0.000000
H166  H     H_    0.438770 0.439997 0.627716 0.000000
H167  H     H_    0.336715 0.449964 0.681039 0.000000
H168  H     H_    0.250039 0.544761 0.693913 0.000000
H169  H     H_    0.265542 0.628162 0.682140 0.000000
C209  C     C_3   0.331655 0.365949 0.632936 0.000000
C210  C     C_R   0.360320 0.381746 0.532207 0.000000
N53   N     N_R   0.335282 0.395119 0.429240 0.000000
C211  C     C_R   0.379065 0.395123 0.357120 0.000000
C212  C     C_R   0.378086 0.399761 0.239599 0.000000
C213  C     C_R   0.429430 0.395518 0.180203 0.000000
C214  C     C_R   0.480396 0.383598 0.238420 0.000000
C215  C     C_R   0.481628 0.375000 0.356610 0.000000
C216  C     C_R   0.429083 0.382387 0.414932 0.000000
N54   N     N_R   0.417551 0.374528 0.526914 0.000000
C217  C     C_3   0.457921 0.344781 0.617045 0.000000
C218  C     C_R   0.522144 0.330866 0.592084 0.000000
N55   N     N_R   0.564037 0.273231 0.578919 0.000000
C219  C     C_R   0.614669 0.277355 0.552681 0.000000
C220  C     C_R   0.665405 0.235096 0.500368 0.000000
C221  C     C_R   0.711406 0.246927 0.460513 0.000000
C222  C     C_R   0.702044 0.303100 0.461617 0.000000
C223  C     C_R   0.646736 0.346843 0.501811 0.000000
C224  C     C_R   0.604498 0.332800 0.550889 0.000000
N56   N     N_R   0.546520 0.369868 0.578756 0.000000
H170  H     H_    0.361139 0.353672 0.706270 0.000000
H171  H     H_    0.288195 0.403010 0.660963 0.000000
H172  H     H_    0.323623 0.329314 0.607458 0.000000
H173  H     H_    0.339248 0.404301 0.196462 0.000000
H174  H     H_    0.431130 0.401677 0.088444 0.000000
H175  H     H_    0.518919 0.381587 0.189225 0.000000
H176  H     H_    0.521441 0.367121 0.398969 0.000000
H177  H     H_    0.440974 0.366743 0.702365 0.000000
H178  H     H_    0.457356 0.303209 0.619939 0.000000
H179  H     H_    0.665077 0.195945 0.481749 0.000000
H180  H     H_    0.752979 0.213284 0.421404 0.000000
H181  H     H_    0.736797 0.312364 0.423504 0.000000
H182  H     H_    0.635948 0.390950 0.491184 0.000000
C225  C     C_3   0.780540 0.401011 0.443696 0.000000
C226  C     C_R   0.721949 0.451362 0.478581 0.000000
N57   N     N_R   0.717890 0.495329 0.544833 0.000000
C227  C     C_R   0.667642 0.540681 0.512483 0.000000
C228  C     C_R   0.655397 0.596174 0.525016 0.000000
C229  C     C_R   0.612278 0.637079 0.461930 0.000000
C230  C     C_R   0.582146 0.621789 0.382998 0.000000
C231  C     C_R   0.598533 0.564377 0.363417 0.000000
C232  C     C_R   0.642062 0.524798 0.430608 0.000000
N58   N     N_R   0.675583 0.468560 0.410668 0.000000
C233  C     C_3   0.673094 0.437799 0.312517 0.000000
C234  C     C_R   0.609511 0.457145 0.299351 0.000000
N59   N     N_R   0.568641 0.458702 0.388302 0.000000
C235  C     C_R   0.521350 0.467959 0.327689 0.000000
C236  C     C_R   0.468634 0.470377 0.372566 0.000000
C237  C     C_R   0.423006 0.482307 0.299754 0.000000
C238  C     C_R   0.434215 0.484779 0.182170 0.000000
C239  C     C_R   0.490959 0.474954 0.137590 0.000000
C240  C     C_R   0.532194 0.473163 0.212791 0.000000
N60   N     N_R   0.586374 0.472891 0.192477 0.000000
H183  H     H_    0.784018 0.359618 0.472680 0.000000
H184  H     H_    0.784597 0.398882 0.347706 0.000000
H185  H     H_    0.817616 0.407165 0.477452 0.000000
H186  H     H_    0.684335 0.606048 0.569994 0.000000
H187  H     H_    0.606936 0.679783 0.469367 0.000000
H188  H     H_    0.549737 0.654035 0.330056 0.000000
H189  H     H_    0.579710 0.553018 0.292219 0.000000
H190  H     H_    0.693966 0.447967 0.234548 0.000000
H191  H     H_    0.695945 0.391167 0.327741 0.000000
H192  H     H_    0.464559 0.459996 0.460634 0.000000
H193  H     H_    0.380003 0.486146 0.333169 0.000000
H194  H     H_    0.398331 0.492825 0.126497 0.000000
H195  H     H_    0.503087 0.466145 0.047955 0.000000
C241  C     C_3   0.413882 0.451101 0.870076 0.000000
C242  C     C_R   0.479314 0.410214 0.867823 0.000000
N61   N     N_R   0.499849 0.352749 0.860166 0.000000
C243  C     C_R   0.559947 0.331055 0.852890 0.000000
C244  C     C_R   0.601607 0.274174 0.840374 0.000000
C245  C     C_R   0.661860 0.261245 0.832636 0.000000
C246  C     C_R   0.678541 0.304689 0.841729 0.000000
C247  C     C_R   0.635356 0.361562 0.854750 0.000000
C248  C     C_R   0.575475 0.374141 0.856666 0.000000
N62   N     N_R   0.524658 0.425113 0.864764 0.000000
C249  C     C_3   0.517631 0.483080 0.842450 0.000000
C250  C     C_R   0.575470 0.480506 0.807960 0.000000
N63   N     N_R   0.613970 0.488052 0.882897 0.000000
C251  C     C_R   0.664783 0.468099 0.812733 0.000000
C252  C     C_R   0.719574 0.460763 0.843312 0.000000
C253  C     C_R   0.770472 0.418112 0.787089 0.000000
C254  C     C_R   0.765034 0.389667 0.691644 0.000000
C255  C     C_R   0.709076 0.405269 0.648850 0.000000
C256  C     C_R   0.658256 0.445904 0.709557 0.000000
N64   N     N_R   0.599739 0.458365 0.698568 0.000000
H196  H     H_    0.388670 0.429474 0.836640 0.000000
H197  H     H_    0.395556 0.465316 0.959111 0.000000
H198  H     H_    0.406386 0.488831 0.819072 0.000000
H199  H     H_    0.588287 0.240399 0.838690 0.000000
H200  H     H_    0.696088 0.217116 0.826295 0.000000
H201  H     H_    0.725816 0.293932 0.841384 0.000000
H202  H     H_    0.650044 0.392715 0.870661 0.000000
H203  H     H_    0.487810 0.501087 0.770279 0.000000
H204  H     H_    0.500058 0.513574 0.913556 0.000000
H205  H     H_    0.721599 0.489781 0.904873 0.000000
H206  H     H_    0.814410 0.405642 0.819035 0.000000
H207  H     H_    0.805106 0.354586 0.651682 0.000000
H208  H     H_    0.707052 0.380019 0.579704 0.000000
C257  C     C_3   0.283006 0.014484 0.683620 0.000000
C258  C     C_R   0.244852 0.045840 0.588667 0.000000
N65   N     N_R   0.184092 0.069963 0.603041 0.000000
C259  C     C_R   0.164885 0.099653 0.506629 0.000000
C260  C     C_R   0.106140 0.132356 0.479810 0.000000
C261  C     C_R   0.096213 0.161564 0.377148 0.000000
C262  C     C_R   0.144674 0.158622 0.307391 0.000000
C263  C     C_R   0.203417 0.125417 0.337336 0.000000
C264  C     C_R   0.212633 0.094462 0.436851 0.000000
N66   N     N_R   0.264299 0.059599 0.486684 0.000000
C265  C     C_3   0.327337 0.036424 0.438813 0.000000
C266  C     C_R   0.338871 0.083099 0.389080 0.000000
N67   N     N_R   0.347559 0.086364 0.268187 0.000000
C267  C     C_R   0.319342 0.143360 0.254939 0.000000
C268  C     C_R   0.298516 0.168144 0.152422 0.000000
C269  C     C_R   0.242494 0.214008 0.153791 0.000000
C270  C     C_R   0.213372 0.240584 0.258252 0.000000
C271  C     C_R   0.238844 0.219698 0.361659 0.000000
C272  C     C_R   0.293337 0.171252 0.358674 0.000000
N68   N     N_R   0.312833 0.135870 0.448682 0.000000
H209  H     H_    0.284645 0.046766 0.743282 0.000000
H210  H     H_    0.260738 0.992247 0.732477 0.000000
H211  H     H_    0.328171 0.982861 0.649274 0.000000
H212  H     H_    0.069022 0.135290 0.536956 0.000000
H213  H     H_    0.050662 0.187528 0.352072 0.000000
H214  H     H_    0.136694 0.183007 0.229300 0.000000
H215  H     H_    0.239265 0.126137 0.284431 0.000000
H216  H     H_    0.358697 0.016469 0.506886 0.000000
H217  H     H_    0.336558 0.003105 0.370880 0.000000
H218  H     H_    0.320327 0.148440 0.072165 0.000000
H219  H     H_    0.219584 0.222565 0.074087 0.000000
H220  H     H_    0.168385 0.274397 0.261215 0.000000
H221  H     H_    0.209656 0.232578 0.439334 0.000000
C273  C     C_3   0.451759 0.089142 0.890285 0.000000
C274  C     C_R   0.481661 0.032869 0.823205 0.000000
N69   N     N_R   0.540893 0.992121 0.815310 0.000000
C275  C     C_R   0.541072 0.951016 0.742086 0.000000
C276  C     C_R   0.587115 0.900713 0.691863 0.000000
C277  C     C_R   0.571969 0.868647 0.617755 0.000000
C278  C     C_R   0.513688 0.890197 0.582800 0.000000
C279  C     C_R   0.468940 0.938487 0.634256 0.000000
C280  C     C_R   0.484886 0.967338 0.710769 0.000000
N70   N     N_R   0.448073 0.017139 0.760170 0.000000
C281  C     C_3   0.384436 0.037565 0.760611 0.000000
C282  C     C_R   0.348932 0.088569 0.835785 0.000000
N71   N     N_R   0.304878 0.133811 0.778691 0.000000
C283  C     C_R   0.256534 0.148826 0.852489 0.000000
C284  C     C_R   0.198301 0.184197 0.828655 0.000000
C285  C     C_R   0.153077 0.185333 0.904687 0.000000
C286  C     C_R   0.167273 0.153464 0.004553 0.000000
C287  C     C_R   0.226825 0.120304 0.030365 0.000000
C288  C     C_R   0.271192 0.117357 0.951359 0.000000
N72   N     N_R   0.331085 0.080810 0.949505 0.000000
H222  H     H_    0.422071 0.125289 0.837619 0.000000
H223  H     H_    0.419931 0.086078 0.954603 0.000000
H224  H     H_    0.481208 0.103740 0.929518 0.000000
H225  H     H_    0.634140 0.883799 0.703489 0.000000
H226  H     H_    0.607612 0.830355 0.575848 0.000000
H227  H     H_    0.501785 0.872884 0.511883 0.000000
H228  H     H_    0.423450 0.954419 0.609896 0.000000
H229  H     H_    0.370166 0.048584 0.671231 0.000000
H230  H     H_    0.375173 0.001998 0.789968 0.000000
H231  H     H_    0.188959 0.206255 0.748142 0.000000
H232  H     H_    0.106544 0.208667 0.883836 0.000000
H233  H     H_    0.131318 0.152547 0.059362 0.000000
H234  H     H_    0.237387 0.093810 0.104321 0.000000
C289  C     C_3   0.501748 0.213333 0.406686 0.000000
C290  C     C_R   0.524392 0.149073 0.431812 0.000000
N73   N     N_R   0.578313 0.108951 0.465844 0.000000
C291  C     C_R   0.578505 0.058792 0.441949 0.000000
C292  C     C_R   0.628254 0.007701 0.427893 0.000000
C293  C     C_R   0.626316 0.965980 0.357644 0.000000
C294  C     C_R   0.573556 0.977336 0.304896 0.000000
C295  C     C_R   0.521687 0.028439 0.329962 0.000000
C296  C     C_R   0.525530 0.068122 0.402246 0.000000
N74   N     N_R   0.490847 0.125159 0.400836 0.000000
C297  C     C_3   0.430093 0.156365 0.440145 0.000000
C298  C     C_R   0.428438 0.184486 0.555228 0.000000
N75   N     N_R   0.381272 0.193632 0.633544 0.000000
C299  C     C_R   0.394276 0.217193 0.724226 0.000000
C300  C     C_R   0.353779 0.250239 0.809514 0.000000
C301  C     C_R   0.364022 0.292342 0.860638 0.000000
C302  C     C_R   0.419883 0.291306 0.844184 0.000000
C303  C     C_R   0.465615 0.248871 0.776223 0.000000
C304  C     C_R   0.448761 0.217672 0.705746 0.000000
N76   N     N_R   0.474606 0.195738 0.600406 0.000000
H235  H     H_    0.499555 0.220824 0.312408 0.000000
H236  H     H_    0.453456 0.240142 0.433114 0.000000
H237  H     H_    0.525348 0.236554 0.437221 0.000000
H238  H     H_    0.667777 0.003738 0.465149 0.000000
H239  H     H_    0.666779 0.926312 0.337338 0.000000
H240  H     H_    0.574147 0.947470 0.239452 0.000000
H241  H     H_    0.480534 0.037604 0.289108 0.000000
H242  H     H_    0.408127 0.188919 0.375633 0.000000
H243  H     H_    0.409271 0.127219 0.449181 0.000000
H244  H     H_    0.311756 0.249403 0.818430 0.000000
H245  H     H_    0.326805 0.329607 0.901809 0.000000
H246  H     H_    0.424660 0.328370 0.868387 0.000000
H247  H     H_    0.507593 0.250449 0.757519 0.000000
C305  C     C_3   0.003650 0.305776 0.818897 0.000000
C306  C     C_R   0.055520 0.307826 0.871653 0.000000
N77   N     N_R   0.056171 0.318096 0.986328 0.000000
C307  C     C_R   0.112051 0.311743 0.998417 0.000000
C308  C     C_R   0.133746 0.325481 0.094161 0.000000
C309  C     C_R   0.192581 0.316748 0.086136 0.000000
C310  C     C_R   0.226179 0.299047 0.981354 0.000000
C311  C     C_R   0.200648 0.291970 0.882877 0.000000
C312  C     C_R   0.143683 0.297836 0.894521 0.000000
N78   N     N_R   0.108082 0.296899 0.812448 0.000000
C313  C     C_3   0.115393 0.296410 0.685586 0.000000
C314  C     C_R   0.167145 0.306322 0.637578 0.000000
N79   N     N_R   0.154754 0.358104 0.582091 0.000000
C315  C     C_R   0.208527 0.339971 0.514351 0.000000
C316  C     C_R   0.238030 0.366857 0.455888 0.000000
C317  C     C_R   0.278278 0.339047 0.363918 0.000000
C318  C     C_R   0.308478 0.281046 0.365310 0.000000
C319  C     C_R   0.298500 0.255372 0.462024 0.000000
C320  C     C_R   0.246912 0.284702 0.532021 0.000000
N80   N     N_R   0.226274 0.261276 0.613386 0.000000
H248  H     H_    0.994328 0.272679 0.862475 0.000000
H249  H     H_    0.963340 0.348060 0.831894 0.000000
H250  H     H_    0.014797 0.293787 0.725428 0.000000
H251  H     H_    0.105804 0.345520 0.171378 0.000000
H252  H     H_    0.212905 0.323647 0.160577 0.000000
H253  H     H_    0.271630 0.293132 0.977180 0.000000
H254  H     H_    0.222948 0.285105 0.799483 0.000000
H255  H     H_    0.117141 0.256919 0.646669 0.000000
H256  H     H_    0.074003 0.332480 0.655054 0.000000
H257  H     H_    0.246653 0.397467 0.501966 0.000000
H258  H     H_    0.294087 0.360727 0.302534 0.000000
H259  H     H_    0.343611 0.258762 0.298767 0.000000
H260  H     H_    0.328783 0.212998 0.478758 0.000000
C321  C     C_3   0.026763 0.870613 0.858479 0.000000
C322  C     C_R   0.041263 0.879929 0.736562 0.000000
N81   N     N_R   0.011635 0.931086 0.685446 0.000000
C323  C     C_R   0.045712 0.925851 0.587826 0.000000
C324  C     C_R   0.038901 0.968294 0.511567 0.000000
C325  C     C_R   0.085208 0.956430 0.427963 0.000000
C326  C     C_R   0.136763 0.903581 0.424616 0.000000
C327  C     C_R   0.141678 0.861300 0.501398 0.000000
C328  C     C_R   0.094641 0.873451 0.581537 0.000000
N82   N     N_R   0.091610 0.843145 0.673508 0.000000
C329  C     C_3   0.138292 0.789469 0.715933 0.000000
C330  C     C_R   0.160041 0.739099 0.631859 0.000000
N83   N     N_R   0.125532 0.715888 0.582201 0.000000
C331  C     C_R   0.168377 0.673978 0.512604 0.000000
C332  C     C_R   0.159671 0.640461 0.434657 0.000000
C333  C     C_R   0.207422 0.607557 0.355056 0.000000
C334  C     C_R   0.262533 0.607848 0.358643 0.000000
C335  C     C_R   0.271052 0.640265 0.442181 0.000000
C336  C     C_R   0.223398 0.671716 0.519257 0.000000
N84   N     N_R   0.220694 0.711618 0.594348 0.000000
H261  H     H_    0.016441 0.834150 0.860839 0.000000
H262  H     H_    0.065778 0.861604 0.911212 0.000000
H263  H     H_    0.987168 0.909775 0.894438 0.000000
H264  H     H_    0.000059 0.010200 0.519480 0.000000
H265  H     H_    0.082079 0.989149 0.367693 0.000000
H266  H     H_    0.173902 0.894971 0.362373 0.000000
H267  H     H_    0.182607 0.821868 0.500913 0.000000
H268  H     H_    0.178241 0.794711 0.731550 0.000000
H269  H     H_    0.124807 0.781122 0.803205 0.000000
H270  H     H_    0.117002 0.640490 0.443829 0.000000
H271  H     H_    0.204372 0.580633 0.288586 0.000000
H272  H     H_    0.298735 0.582919 0.295128 0.000000
H273  H     H_    0.312495 0.643502 0.441395 0.000000
C337  C     C_3   0.848494 0.666876 0.407280 0.000000
C338  C     C_R   0.913329 0.647001 0.420757 0.000000
N85   N     N_R   0.955344 0.591487 0.418469 0.000000
C339  C     C_R   0.007609 0.594350 0.399179 0.000000
C340  C     C_R   0.062756 0.549635 0.380480 0.000000
C341  C     C_R   0.104650 0.560952 0.317758 0.000000
C342  C     C_R   0.089862 0.615055 0.283955 0.000000
C343  C     C_R   0.038377 0.659988 0.319599 0.000000
C344  C     C_R   0.996834 0.648713 0.382082 0.000000
N86   N     N_R   0.937879 0.681985 0.400669 0.000000
C345  C     C_3   0.903966 0.739500 0.368493 0.000000
C346  C     C_R   0.946048 0.762530 0.338260 0.000000
N87   N     N_R   0.990031 0.761967 0.411778 0.000000
C347  C     C_R   0.013980 0.789192 0.343170 0.000000
C348  C     C_R   0.054680 0.807642 0.373290 0.000000
C349  C     C_R   0.072134 0.836478 0.290645 0.000000
C350  C     C_R   0.049362 0.845962 0.180943 0.000000
C351  C     C_R   0.007896 0.827516 0.151834 0.000000
C352  C     C_R   0.990629 0.799496 0.234501 0.000000
N88   N     N_R   0.948942 0.780833 0.225424 0.000000
H274  H     H_    0.823000 0.713899 0.423725 0.000000
H275  H     H_    0.833040 0.645752 0.471444 0.000000
H276  H     H_    0.841468 0.656671 0.317966 0.000000
H277  H     H_    0.066282 0.508870 0.403954 0.000000
H278  H     H_    0.147425 0.531188 0.284235 0.000000
H279  H     H_    0.120634 0.626379 0.242160 0.000000
H280  H     H_    0.035595 0.696840 0.276602 0.000000
H281  H     H_    0.879033 0.737809 0.293176 0.000000
H282  H     H_    0.872095 0.765311 0.439955 0.000000
H283  H     H_    0.071834 0.800619 0.458893 0.000000
H284  H     H_    0.104659 0.850943 0.310659 0.000000
H285  H     H_    0.063885 0.868377 0.118062 0.000000
H286  H     H_    0.988976 0.835860 0.067751 0.000000
C353  C     C_3   0.991402 0.656733 0.891500 0.000000
C354  C     C_R   0.057922 0.637372 0.882693 0.000000
N89   N     N_R   0.100773 0.582696 0.882458 0.000000
C355  C     C_R   0.152907 0.585787 0.879391 0.000000
C356  C     C_R   0.209817 0.541496 0.877317 0.000000
C357  C     C_R   0.255943 0.554639 0.895075 0.000000
C358  C     C_R   0.243704 0.611402 0.908319 0.000000
C359  C     C_R   0.187220 0.656082 0.888634 0.000000
C360  C     C_R   0.141942 0.640705 0.879762 0.000000
N90   N     N_R   0.082274 0.673153 0.881291 0.000000
C361  C     C_3   0.049469 0.733020 0.870567 0.000000
C362  C     C_R   0.988953 0.748167 0.834703 0.000000
N91   N     N_R   0.984097 0.765772 0.721803 0.000000
C363  C     C_R   0.947216 0.822445 0.736525 0.000000
C364  C     C_R   0.939861 0.864877 0.659891 0.000000
C365  C     C_R   0.910596 0.921182 0.702303 0.000000
C366  C     C_R   0.892628 0.933300 0.819721 0.000000
C367  C     C_R   0.901395 0.889485 0.895805 0.000000
C368  C     C_R   0.924041 0.834814 0.849455 0.000000
N92   N     N_R   0.943595 0.786528 0.910674 0.000000
H287  H     H_    0.972070 0.669458 0.805606 0.000000
H288  H     H_    0.981146 0.623064 0.924341 0.000000
H289  H     H_    0.968557 0.691329 0.958181 0.000000
H290  H     H_    0.218655 0.498321 0.862516 0.000000
H291  H     H_    0.300859 0.520643 0.905548 0.000000
H292  H     H_    0.276832 0.619151 0.948072 0.000000
H293  H     H_    0.177437 0.700445 0.901070 0.000000
H294  H     H_    0.047674 0.755780 0.952152 0.000000
H295  H     H_    0.070655 0.744350 0.796264 0.000000
H296  H     H_    0.958574 0.854730 0.571319 0.000000
H297  H     H_    0.904350 0.955856 0.644878 0.000000
H298  H     H_    0.872593 0.977263 0.852244 0.000000
H299  H     H_    0.889200 0.898316 0.987567 0.000000
C369  C     C_3   0.173148 0.425514 0.692274 0.000000
C370  C     C_R   0.155708 0.460115 0.585485 0.000000
N93   N     N_R   0.142903 0.440298 0.488086 0.000000
C371  C     C_R   0.168235 0.457956 0.401500 0.000000
C372  C     C_R   0.187497 0.432639 0.292414 0.000000
C373  C     C_R   0.227093 0.446150 0.225438 0.000000
C374  C     C_R   0.250691 0.479904 0.273088 0.000000
C375  C     C_R   0.236588 0.498065 0.388056 0.000000
C376  C     C_R   0.192770 0.489219 0.446893 0.000000
N94   N     N_R   0.182404 0.493396 0.561241 0.000000
C377  C     C_3   0.152005 0.549593 0.613187 0.000000
C378  C     C_R   0.087271 0.573023 0.587693 0.000000
N95   N     N_R   0.049388 0.632722 0.582573 0.000000
C379  C     C_R   0.995415 0.634524 0.592584 0.000000
C380  C     C_R   0.941707 0.683678 0.604603 0.000000
C381  C     C_R   0.889747 0.677928 0.622307 0.000000
C382  C     C_R   0.893192 0.623891 0.628519 0.000000
C383  C     C_R   0.947930 0.575255 0.612365 0.000000
C384  C     C_R   0.999464 0.580925 0.597549 0.000000
N96   N     N_R   0.057552 0.538055 0.590382 0.000000
H300  H     H_    0.192818 0.446258 0.747545 0.000000
H301  H     H_    0.136199 0.417401 0.731517 0.000000
H302  H     H_    0.213891 0.383958 0.678070 0.000000
H303  H     H_    0.174121 0.401574 0.262007 0.000000
H304  H     H_    0.241103 0.428935 0.137715 0.000000
H305  H     H_    0.280802 0.491590 0.222026 0.000000
H306  H     H_    0.260306 0.517527 0.431155 0.000000
H307  H     H_    0.155601 0.544397 0.706675 0.000000
H308  H     H_    0.172319 0.576770 0.580705 0.000000
H309  H     H_    0.940673 0.725245 0.599600 0.000000
H310  H     H_    0.846230 0.715017 0.631084 0.000000
H311  H     H_    0.852589 0.619899 0.646207 0.000000
H312  H     H_    0.950803 0.533697 0.612337 0.000000

loop_
_geom_bond_atom_site_label_1
_geom_bond_atom_site_label_2
_geom_bond_distance
_geom_bond_site_symmetry_2
_ccdc_geom_bond_type
Zn1   N40   2.166 .      S
Zn1   N44   2.176 .      S
Zn1   N52   2.261 .      S
Zn1   N84   2.051 .      S
Zn2   N3    2.267 .      S
Zn2   N32   2.249 .      S
Zn2   N88   2.233 .      S
Zn2   N92   2.137 1_554  S
Zn3   N8    2.301 .      S
Zn3   N47   2.114 .      S
Zn3   N60   2.165 .      S
Zn3   N63   2.227 1_554  S
Zn4   N4    2.367 .      S
Zn4   N7    2.398 .      S
Zn4   N11   2.268 1_554  S
Zn4   N16   2.380 .      S
Zn5   N20   2.322 .      S
Zn5   N23   2.167 1_554  S
Zn5   N27   2.303 .      S
Zn5   N31   2.308 1_545  S
Zn6   N35   2.198 .      S
Zn6   N39   2.186 1_554  S
Zn6   N43   2.118 .      S
Zn6   N48   2.308 .      S
Zn7   N51   2.164 .      S
Zn7   N56   2.166 .      S
Zn7   N59   2.133 .      S
Zn7   N64   2.172 .      S
Zn8   N68   2.216 .      S
Zn8   N71   2.159 .      S
Zn8   N75   2.161 .      S
Zn8   N80   2.163 .      S
Zn9   N12   2.396 .      S
Zn9   N15   2.250 .      S
Zn9   N79   2.366 .      S
Zn9   N96   2.411 .      S
Zn10  N83   2.160 .      S
Zn10  N87   2.265 1_455  S
Zn10  N91   2.105 1_455  S
Zn10  N95   2.172 .      S
Zn11  N19   2.342 .      S
Zn11  N36   2.391 1_545  S
Zn11  N67   2.183 .      S
Zn11  N72   2.269 1_554  S
Zn12  N24   2.237 .      S
Zn12  N28   2.344 .      S
Zn12  N55   2.156 .      S
Zn12  N76   2.324 .      S
C1    C2    1.489 .      S
C1    H1    1.091 .      S
C1    H2    1.082 .      S
C1    H3    1.082 .      S
C4    H4    1.080 .      S
C5    H5    1.080 .      S
C6    H6    1.078 .      S
C7    H7    1.078 .      S
N2    C9    1.474 1_455  S
C9    N2    1.474 1_655  S
C9    C10   1.465 .      S
C9    H8    1.046 .      S
C9    H9    1.099 .      S
C12   H10   1.075 .      S
C13   H11   1.073 .      S
C14   H12   1.072 .      S
C15   H13   1.065 .      S
C17   C18   1.461 .      S
C17   H14   1.106 .      S
C17   H15   1.100 .      S
C17   H16   1.096 .      S
C20   H17   1.080 .      S
C21   H18   1.080 .      S
C22   H19   1.077 .      S
C23   H20   1.080 .      S
N6    C25   1.467 .      S
C25   C26   1.503 .      S
C25   H21   1.108 .      S
C25   H22   1.102 .      S
C28   H23   1.064 .      S
C29   H24   1.080 .      S
C30   H25   1.081 1_554  S
C31   H26   1.081 .      S
H25   C30   1.081 1_556  S
C33   C34   1.491 .      S
C33   H27   1.098 .      S
C33   H28   1.095 .      S
C33   H29   1.099 1_556  S
C36   H30   1.021 .      S
C37   H31   1.078 .      S
C38   H32   1.062 .      S
C39   H33   1.055 .      S
N10   C41   1.439 .      S
C41   C42   1.496 .      S
C41   H34   1.100 .      S
C41   H35   1.103 1_556  S
N11   Zn4   2.268 1_556  S
C44   H36   1.065 .      S
C45   H37   1.080 .      S
C46   H38   1.075 .      S
C47   H39   1.064 .      S
H29   C33   1.099 1_554  S
H35   C41   1.103 1_554  S
C49   C50   1.506 .      S
C49   H40   1.103 .      S
C49   H41   1.093 .      S
C49   H42   1.080 .      S
C52   H43   1.080 .      S
C53   H44   1.081 .      S
C54   H45   1.080 1_655  S
C55   H46   1.063 .      S
N14   C57   1.417 .      S
C57   C58   1.435 .      S
C57   H47   1.103 .      S
C57   H48   1.090 .      S
C60   H49   1.079 .      S
C61   H50   1.078 .      S
C62   H51   1.081 .      S
C63   H52   1.065 1_455  S
H45   C54   1.080 1_455  S
H52   C63   1.065 1_655  S
C65   C66   1.473 .      S
C65   H53   1.106 .      S
C65   H54   1.032 .      S
C65   H55   1.016 .      S
C68   H56   1.079 .      S
C69   H57   1.078 .      S
C70   H58   1.080 .      S
C71   H59   1.080 .      S
N18   C73   1.432 .      S
C73   C74   1.498 .      S
C73   H60   1.106 .      S
C73   H61   1.087 .      S
C76   H62   1.048 .      S
C77   H63   1.071 .      S
C78   H64   1.073 .      S
C79   H65   1.067 .      S
C81   C82   1.447 .      S
C81   H66   1.068 .      S
C81   H67   1.107 .      S
C81   H68   1.083 .      S
C84   H69   1.079 .      S
C85   H70   1.062 .      S
C86   H71   1.078 .      S
C87   H72   1.072 1_565  S
N22   C89   1.454 .      S
C89   C90   1.469 .      S
C89   H73   1.109 .      S
C89   H74   1.101 .      S
N23   Zn5   2.167 1_556  S
C92   H75   1.081 .      S
C93   H76   1.080 .      S
C94   H77   1.081 .      S
C95   H78   1.055 .      S
H72   C87   1.072 1_545  S
C97   C98   1.484 1_565  S
C97   H79   1.107 .      S
C97   H80   1.102 .      S
C97   H81   1.109 .      S
C98   C97   1.484 1_545  S
C100  H82   1.081 .      S
C101  H83   1.081 .      S
C102  H84   1.081 .      S
C103  H85   1.068 .      S
N26   C105  1.467 .      S
C105  C106  1.514 .      S
C105  H86   1.070 .      S
C105  H87   1.093 .      S
C108  H88   1.075 .      S
C109  H89   1.075 .      S
C110  H90   1.077 .      S
C111  H91   1.058 .      S
C113  C114  1.480 .      S
C113  H92   1.093 .      S
C113  H93   1.102 .      S
C113  H94   1.106 .      S
C116  H95   1.082 .      S
C117  H96   1.049 1_556  S
C118  H97   1.081 .      S
C119  H98   1.071 .      S
N30   C121  1.439 .      S
C121  C122  1.459 1_556  S
C121  H99   1.084 .      S
C121  H100  1.079 .      S
C122  C121  1.459 1_554  S
N31   Zn5   2.308 1_565  S
C124  H101  1.063 1_565  S
C125  H102  1.071 .      S
C126  H103  1.080 .      S
C127  H104  1.031 .      S
H96   C117  1.049 1_554  S
H101  C124  1.063 1_545  S
C129  C130  1.568 1_556  S
C129  H105  1.108 .      S
C129  H106  1.069 .      S
C129  H107  1.094 .      S
C130  C129  1.568 1_554  S
C132  H108  1.078 .      S
C133  H109  1.062 .      S
C134  H110  1.079 .      S
C135  H111  1.062 .      S
N34   C137  1.399 .      S
C137  C138  1.489 .      S
C137  H112  1.098 1_554  S
C137  H113  1.085 .      S
C140  H114  1.076 .      S
C141  H115  1.079 .      S
C142  H116  1.081 .      S
C143  H117  1.062 .      S
N36   Zn11  2.391 1_565  S
H112  C137  1.098 1_556  S
C145  C146  1.469 .      S
C145  H118  1.107 .      S
C145  H119  1.100 .      S
C145  H120  1.085 .      S
C148  H121  1.082 .      S
C149  H122  1.076 .      S
C150  H123  1.073 .      S
C151  H124  1.074 .      S
N38   C153  1.445 .      S
C153  C154  1.453 .      S
C153  H125  1.109 .      S
C153  H126  1.104 .      S
N39   Zn6   2.186 1_556  S
C156  H127  1.052 .      S
C157  H128  1.081 .      S
C158  H129  1.081 .      S
C159  H130  1.062 .      S
C161  C162  1.482 .      S
C161  H131  1.090 .      S
C161  H132  1.090 .      S
C161  H133  1.109 .      S
C164  H134  1.073 .      S
C165  H135  1.078 .      S
C166  H136  1.073 .      S
C167  H137  1.076 .      S
N42   C169  1.443 .      S
C169  C170  1.495 .      S
C169  H138  1.104 .      S
C169  H139  1.083 .      S
C172  H140  1.079 .      S
C173  H141  1.080 .      S
C174  H142  1.079 .      S
C175  H143  1.059 .      S
C177  C178  1.486 .      S
C177  H144  1.083 .      S
C177  H145  1.087 .      S
C177  H146  1.100 .      S
C180  H147  1.081 .      S
C181  H148  1.065 .      S
C182  H149  1.056 .      S
C183  H150  1.068 .      S
N46   C185  1.417 .      S
C185  C186  1.494 .      S
C185  H151  1.100 .      S
C185  H152  1.073 .      S
C188  H153  1.081 1_554  S
C189  H154  1.078 .      S
C190  H155  1.069 .      S
C191  H156  1.075 .      S
H153  C188  1.081 1_556  S
C193  C194  1.465 .      S
C193  H157  1.103 .      S
C193  H158  1.089 .      S
C193  H159  1.078 .      S
C196  H160  1.074 .      S
C197  H161  1.069 .      S
C198  H162  1.074 .      S
C199  H163  1.070 .      S
N50   C201  1.449 .      S
C201  C202  1.500 .      S
C201  H164  1.090 .      S
C201  H165  1.109 .      S
C204  H166  1.071 .      S
C205  H167  1.067 .      S
C206  H168  1.075 .      S
C207  H169  1.066 .      S
C209  C210  1.488 .      S
C209  H170  1.101 .      S
C209  H171  1.105 .      S
C209  H172  1.109 .      S
C212  H173  1.072 .      S
C213  H174  1.073 .      S
C214  H175  1.070 .      S
C215  H176  1.066 .      S
N54   C217  1.449 .      S
C217  C218  1.484 .      S
C217  H177  1.101 .      S
C217  H178  1.095 .      S
C220  H179  1.051 .      S
C221  H180  1.081 .      S
C222  H181  1.076 .      S
C223  H182  1.068 .      S
C225  C226  1.487 .      S
C225  H183  1.100 .      S
C225  H184  1.106 .      S
C225  H185  1.101 .      S
C228  H186  1.035 .      S
C229  H187  1.067 .      S
C230  H188  1.081 .      S
C231  H189  1.075 .      S
N58   C233  1.411 .      S
C233  C234  1.446 .      S
C233  H190  1.108 .      S
C233  H191  1.104 .      S
C236  H192  1.064 .      S
C237  H193  1.081 .      S
C238  H194  1.073 .      S
C239  H195  1.057 .      S
C241  C242  1.487 .      S
C241  H196  1.104 .      S
C241  H197  1.094 .      S
C241  H198  1.095 .      S
C244  H199  1.079 .      S
C245  H200  1.077 .      S
C246  H201  1.081 .      S
C247  H202  1.056 .      S
N62   C249  1.470 .      S
C249  C250  1.449 .      S
C249  H203  1.103 .      S
C249  H204  1.070 .      S
N63   Zn3   2.227 1_556  S
C252  H205  1.060 .      S
C253  H206  1.078 .      S
C254  H207  1.080 .      S
C255  H208  1.055 .      S
C257  C258  1.476 .      S
C257  H209  1.107 .      S
C257  H210  1.108 1_545  S
C257  H211  1.101 1_545  S
C260  H212  1.081 .      S
C261  H213  1.080 .      S
C262  H214  1.078 .      S
C263  H215  1.063 .      S
N66   C265  1.477 .      S
C265  C266  1.486 .      S
C265  H216  1.093 .      S
C265  H217  1.107 .      S
C268  H218  1.053 .      S
C269  H219  1.079 .      S
C270  H220  1.064 .      S
C271  H221  1.074 .      S
H210  C257  1.108 1_565  S
H211  C257  1.101 1_565  S
C273  C274  1.503 .      S
C273  H222  1.105 .      S
C273  H223  1.088 .      S
C273  H224  1.089 .      S
C276  H225  1.065 .      S
C277  H226  1.081 .      S
C278  H227  1.056 .      S
C279  H228  1.070 .      S
N70   C281  1.426 .      S
C281  C282  1.468 .      S
C281  H229  1.105 .      S
C281  H230  1.106 .      S
C284  H231  1.073 .      S
C285  H232  1.078 .      S
C286  H233  1.079 .      S
C287  H234  1.066 .      S
N72   Zn11  2.269 1_556  S
C289  C290  1.543 .      S
C289  H235  1.105 .      S
C289  H236  1.107 .      S
C289  H237  1.092 .      S
C292  H238  1.060 .      S
C293  H239  1.081 .      S
C294  H240  1.082 .      S
C295  H241  1.079 .      S
N74   C297  1.402 .      S
C297  C298  1.509 .      S
C297  H242  1.094 .      S
C297  H243  1.105 .      S
C300  H244  1.059 .      S
C301  H245  1.079 .      S
C302  H246  1.070 .      S
C303  H247  1.078 .      S
C305  C306  1.484 .      S
C305  H248  1.109 1_455  S
C305  H249  1.106 1_455  S
C305  H250  1.108 .      S
C308  H251  1.074 .      S
C309  H252  1.077 .      S
C310  H253  1.072 .      S
C311  H254  1.058 .      S
N78   C313  1.465 .      S
C313  C314  1.508 .      S
C313  H255  1.109 .      S
C313  H256  1.109 .      S
C316  H257  1.069 .      S
C317  H258  1.074 .      S
C318  H259  1.076 .      S
C319  H260  1.043 .      S
H248  C305  1.109 1_655  S
H249  C305  1.106 1_655  S
C321  C322  1.482 .      S
C321  H261  1.097 .      S
C321  H262  1.109 .      S
C321  H263  1.108 1_455  S
C324  H264  1.081 1_565  S
C325  H265  1.081 .      S
C326  H266  1.079 .      S
C327  H267  1.069 .      S
N82   C329  1.461 .      S
C329  C330  1.505 .      S
C329  H268  1.092 .      S
C329  H269  1.098 .      S
C332  H270  1.065 .      S
C333  H271  1.071 .      S
C334  H272  1.081 .      S
C335  H273  1.076 .      S
H263  C321  1.108 1_655  S
H264  C324  1.081 1_545  S
C337  C338  1.474 .      S
C337  H274  1.107 .      S
C337  H275  1.080 .      S
C337  H276  1.108 .      S
C340  H277  1.066 .      S
C341  H278  1.044 .      S
C342  H279  1.039 .      S
C343  H280  1.060 .      S
N86   C345  1.410 .      S
C345  C346  1.460 .      S
C345  H281  1.109 .      S
C345  H282  1.099 .      S
N87   Zn10  2.265 1_655  S
C348  H283  1.080 .      S
C349  H284  1.077 .      S
C350  H285  1.081 .      S
C351  H286  1.081 1_455  S
H286  C351  1.081 1_655  S
C353  C354  1.496 1_655  S
C353  H287  1.110 .      S
C353  H288  1.087 .      S
C353  H289  1.104 .      S
C354  C353  1.496 1_455  S
C356  H290  1.060 .      S
C357  H291  1.079 .      S
C358  H292  1.064 .      S
C359  H293  1.080 .      S
N90   C361  1.406 .      S
C361  C362  1.460 1_455  S
C361  H294  1.102 .      S
C361  H295  1.094 .      S
C362  C361  1.460 1_655  S
N91   Zn10  2.105 1_655  S
C364  H296  1.081 .      S
C365  H297  1.081 .      S
C366  H298  1.081 .      S
C367  H299  1.081 .      S
N92   Zn2   2.137 1_556  S
C369  C370  1.492 .      S
C369  H300  1.106 .      S
C369  H301  1.112 .      S
C369  H302  1.102 .      S
C372  H303  1.076 .      S
C373  H304  1.081 .      S
C374  H305  1.081 .      S
C375  H306  1.080 .      S
N94   C377  1.424 .      S
C377  C378  1.490 .      S
C377  H307  1.091 .      S
C377  H308  1.102 .      S
C380  H309  1.078 .      S
C381  H310  1.075 .      S
C382  H311  1.075 .      S
C383  H312  1.057 .      S
C2    N1    1.349 .      A
C2    N2    1.368 .      A
N1    C3    1.335 .      A
C3    C4    1.378 .      A
C3    C8    1.361 .      A
C4    C5    1.385 .      A
C5    C6    1.391 .      A
C6    C7    1.390 .      A
C7    C8    1.377 .      A
C8    N2    1.354 .      A
C10   N3    1.400 .      A
C10   N4    1.424 .      A
N3    C11   1.347 .      A
C11   C12   1.367 1_554  A
C11   C16   1.386 .      A
C12   C11   1.367 1_556  A
C12   C13   1.393 .      A
C13   C14   1.375 .      A
C14   C15   1.363 1_556  A
C15   C14   1.363 1_554  A
C15   C16   1.362 .      A
C16   N4    1.347 .      A
C18   N5    1.348 .      A
C18   N6    1.346 .      A
N5    C19   1.338 .      A
C19   C20   1.375 .      A
C19   C24   1.369 .      A
C20   C21   1.384 .      A
C21   C22   1.390 .      A
C22   C23   1.399 .      A
C23   C24   1.372 .      A
C24   N6    1.347 .      A
C26   N7    1.436 .      A
C26   N8    1.419 .      A
N7    C27   1.360 .      A
C27   C28   1.369 .      A
C27   C32   1.380 .      A
C28   C29   1.386 1_554  A
C29   C28   1.386 1_556  A
C29   C30   1.388 1_556  A
C30   C29   1.388 1_554  A
C30   C31   1.382 .      A
C31   C32   1.373 .      A
C32   N8    1.344 .      A
C34   N9    1.341 .      A
C34   N10   1.323 .      A
N9    C35   1.341 .      A
C35   C36   1.331 .      A
C35   C40   1.316 .      A
C36   C37   1.375 1_455  A
C37   C36   1.375 1_655  A
C37   C38   1.330 .      A
C38   C39   1.373 1_556  A
C39   C38   1.373 1_554  A
C39   C40   1.357 1_654  A
C40   C39   1.357 1_456  A
C40   N10   1.326 .      A
C42   N11   1.408 1_455  A
C42   N12   1.424 .      A
N11   C42   1.408 1_655  A
N11   C43   1.345 .      A
C43   C44   1.369 .      A
C43   C48   1.368 .      A
C44   C45   1.377 .      A
C45   C46   1.386 .      A
C46   C47   1.378 .      A
C47   C48   1.359 .      A
C48   N12   1.347 1_655  A
N12   C48   1.347 1_455  A
C50   N13   1.352 .      A
C50   N14   1.321 .      A
N13   C51   1.337 .      A
C51   C52   1.373 .      A
C51   C56   1.340 .      A
C52   C53   1.383 .      A
C53   C54   1.389 .      A
C54   C55   1.385 .      A
C55   C56   1.367 .      A
C56   N14   1.344 .      A
C58   N15   1.396 1_655  A
C58   N16   1.426 .      A
N15   C58   1.396 1_455  A
N15   C59   1.347 .      A
C59   C60   1.373 .      A
C59   C64   1.389 .      A
C60   C61   1.383 .      A
C61   C62   1.388 .      A
C62   C63   1.385 .      A
C63   C64   1.373 .      A
C64   N16   1.358 1_455  A
N16   C64   1.358 1_655  A
C66   N17   1.357 .      A
C66   N18   1.343 .      A
N17   C67   1.348 .      A
C67   C68   1.364 .      A
C67   C72   1.344 .      A
C68   C69   1.391 .      A
C69   C70   1.387 .      A
C70   C71   1.378 .      A
C71   C72   1.370 .      A
C72   N18   1.326 .      A
C74   N19   1.382 .      A
C74   N20   1.426 .      A
N19   C75   1.383 1_545  A
C75   N19   1.383 1_565  A
C75   C76   1.400 1_554  A
C75   C80   1.373 .      A
C76   C75   1.400 1_556  A
C76   C77   1.371 .      A
C77   C78   1.379 .      A
C78   C79   1.348 .      A
C79   C80   1.347 1_556  A
C80   C79   1.347 1_554  A
C80   N20   1.312 1_565  A
N20   C80   1.312 1_545  A
C82   N21   1.343 1_545  A
C82   N22   1.347 .      A
N21   C82   1.343 1_565  A
N21   C83   1.339 .      A
C83   C84   1.362 .      A
C83   C88   1.350 .      A
C84   C85   1.370 .      A
C85   C86   1.391 .      A
C86   C87   1.379 .      A
C87   C88   1.366 .      A
C88   N22   1.336 1_565  A
N22   C88   1.336 1_545  A
C90   N23   1.397 .      A
C90   N24   1.399 .      A
N23   C91   1.336 .      A
C91   C92   1.371 .      A
C91   C96   1.380 .      A
C92   C93   1.378 .      A
C93   C94   1.385 .      A
C94   C95   1.386 .      A
C95   C96   1.378 .      A
C96   N24   1.370 .      A
C98   N25   1.353 .      A
C98   N26   1.358 .      A
N25   C99   1.341 .      A
C99   C100  1.372 .      A
C99   C104  1.353 .      A
C100  C101  1.384 .      A
C101  C102  1.391 .      A
C102  C103  1.386 .      A
C103  C104  1.370 .      A
C104  N26   1.345 .      A
C106  N27   1.409 .      A
C106  N28   1.405 .      A
N27   C107  1.348 .      A
C107  C108  1.371 .      A
C107  C112  1.385 .      A
C108  C109  1.382 .      A
C109  C110  1.382 .      A
C110  C111  1.378 .      A
C111  C112  1.367 .      A
C112  N28   1.357 .      A
C114  N29   1.348 .      A
C114  N30   1.344 .      A
N29   C115  1.346 .      A
C115  C116  1.366 .      A
C115  C120  1.348 .      A
C116  C117  1.382 .      A
C117  C118  1.381 1_556  A
C118  C117  1.381 1_554  A
C118  C119  1.369 .      A
C119  C120  1.376 1_554  A
C120  C119  1.376 1_556  A
C120  N30   1.337 .      A
C122  N31   1.420 .      A
C122  N32   1.410 .      A
N31   C123  1.359 .      A
C123  C124  1.362 .      A
C123  C128  1.365 .      A
C124  C125  1.410 .      A
C125  C126  1.368 .      A
C126  C127  1.351 .      A
C127  C128  1.338 .      A
C128  N32   1.323 .      A
C130  N33   1.373 .      A
C130  N34   1.311 .      A
N33   C131  1.336 .      A
C131  C132  1.364 .      A
C131  C136  1.328 .      A
C132  C133  1.383 .      A
C133  C134  1.384 .      A
C134  C135  1.380 .      A
C135  C136  1.350 .      A
C136  N34   1.326 .      A
C138  N35   1.389 .      A
C138  N36   1.425 .      A
N35   C139  1.360 .      A
C139  C140  1.383 .      A
C139  C144  1.370 .      A
C140  C141  1.386 .      A
C141  C142  1.387 1_565  A
C142  C141  1.387 1_545  A
C142  C143  1.380 .      A
C143  C144  1.358 1_545  A
C144  C143  1.358 1_565  A
C144  N36   1.339 .      A
C146  N37   1.343 .      A
C146  N38   1.332 .      A
N37   C147  1.344 .      A
C147  C148  1.369 .      A
C147  C152  1.352 .      A
C148  C149  1.371 .      A
C149  C150  1.383 .      A
C150  C151  1.395 .      A
C151  C152  1.373 .      A
C152  N38   1.349 .      A
C154  N39   1.391 .      A
C154  N40   1.390 .      A
N39   C155  1.353 .      A
C155  C156  1.366 .      A
C155  C160  1.373 .      A
C156  C157  1.380 .      A
C157  C158  1.381 .      A
C158  C159  1.379 .      A
C159  C160  1.374 .      A
C160  N40   1.351 .      A
C162  N41   1.351 .      A
C162  N42   1.339 .      A
N41   C163  1.350 .      A
C163  C164  1.369 .      A
C163  C168  1.344 .      A
C164  C165  1.375 .      A
C165  C166  1.379 .      A
C166  C167  1.387 .      A
C167  C168  1.367 .      A
C168  N42   1.336 .      A
C170  N43   1.385 .      A
C170  N44   1.393 .      A
N43   C171  1.333 .      A
C171  C172  1.374 .      A
C171  C176  1.357 .      A
C172  C173  1.371 .      A
C173  C174  1.380 .      A
C174  C175  1.385 .      A
C175  C176  1.390 .      A
C176  N44   1.377 .      A
C178  N45   1.347 .      A
C178  N46   1.315 .      A
N45   C179  1.332 .      A
C179  C180  1.367 1_554  A
C179  C184  1.338 .      A
C180  C179  1.367 1_556  A
C180  C181  1.382 .      A
C181  C182  1.391 .      A
C182  C183  1.366 .      A
C183  C184  1.346 1_556  A
C184  C183  1.346 1_554  A
C184  N46   1.329 .      A
C186  N47   1.388 .      A
C186  N48   1.428 .      A
N47   C187  1.324 .      A
C187  C188  1.363 .      A
C187  C192  1.361 .      A
C188  C189  1.378 1_554  A
C189  C188  1.378 1_556  A
C189  C190  1.397 .      A
C190  C191  1.390 1_556  A
C191  C190  1.390 1_554  A
C191  C192  1.322 .      A
C192  N48   1.336 .      A
C194  N49   1.351 .      A
C194  N50   1.341 .      A
N49   C195  1.339 .      A
C195  C196  1.373 .      A
C195  C200  1.346 .      A
C196  C197  1.381 .      A
C197  C198  1.391 .      A
C198  C199  1.387 .      A
C199  C200  1.370 .      A
C200  N50   1.345 .      A
C202  N51   1.388 .      A
C202  N52   1.423 .      A
N51   C203  1.334 .      A
C203  C204  1.356 .      A
C203  C208  1.374 .      A
C204  C205  1.372 .      A
C205  C206  1.379 .      A
C206  C207  1.379 .      A
C207  C208  1.381 .      A
C208  N52   1.362 .      A
C210  N53   1.344 .      A
C210  N54   1.351 .      A
N53   C211  1.338 .      A
C211  C212  1.362 .      A
C211  C216  1.351 .      A
C212  C213  1.379 .      A
C213  C214  1.378 .      A
C214  C215  1.382 .      A
C215  C216  1.373 .      A
C216  N54   1.345 .      A
C218  N55   1.390 .      A
C218  N56   1.413 .      A
N55   C219  1.336 .      A
C219  C220  1.352 .      A
C219  C224  1.355 .      A
C220  C221  1.377 .      A
C221  C222  1.379 .      A
C222  C223  1.384 .      A
C223  C224  1.363 .      A
C224  N56   1.343 .      A
C226  N57   1.344 .      A
C226  N58   1.334 .      A
N57   C227  1.345 .      A
C227  C228  1.347 .      A
C227  C232  1.336 .      A
C228  C229  1.366 .      A
C229  C230  1.381 .      A
C230  C231  1.380 .      A
C231  C232  1.384 .      A
C232  N58   1.331 .      A
C234  N59   1.395 .      A
C234  N60   1.373 .      A
N59   C235  1.331 .      A
C235  C236  1.362 .      A
C235  C240  1.358 .      A
C236  C237  1.371 .      A
C237  C238  1.378 .      A
C238  C239  1.388 .      A
C239  C240  1.367 .      A
C240  N60   1.358 .      A
C242  N61   1.350 .      A
C242  N62   1.355 .      A
N61   C243  1.337 .      A
C243  C244  1.373 .      A
C243  C248  1.352 .      A
C244  C245  1.381 .      A
C245  C246  1.385 .      A
C246  C247  1.384 .      A
C247  C248  1.375 .      A
C248  N62   1.355 .      A
C250  N63   1.406 .      A
C250  N64   1.376 .      A
N63   C251  1.349 .      A
C251  C252  1.359 .      A
C251  C256  1.375 .      A
C252  C253  1.376 .      A
C253  C254  1.377 .      A
C254  C255  1.384 .      A
C255  C256  1.379 .      A
C256  N64   1.357 .      A
C258  N65   1.351 .      A
C258  N66   1.360 .      A
N65   C259  1.337 .      A
C259  C260  1.371 .      A
C259  C264  1.355 .      A
C260  C261  1.381 .      A
C261  C262  1.388 .      A
C262  C263  1.384 .      A
C263  C264  1.373 .      A
C264  N66   1.353 .      A
C266  N67   1.409 .      A
C266  N68   1.391 .      A
N67   C267  1.340 .      A
C267  C268  1.360 .      A
C267  C272  1.368 .      A
C268  C269  1.363 .      A
C269  C270  1.382 .      A
C270  C271  1.375 .      A
C271  C272  1.370 .      A
C272  N68   1.347 .      A
C274  N69   1.369 1_545  A
C274  N70   1.337 .      A
N69   C274  1.369 1_565  A
N69   C275  1.367 .      A
C275  C276  1.391 .      A
C275  C280  1.337 .      A
C276  C277  1.381 .      A
C277  C278  1.383 .      A
C278  C279  1.354 .      A
C279  C280  1.351 .      A
C280  N70   1.310 1_565  A
N70   C280  1.310 1_545  A
C282  N71   1.390 .      A
C282  N72   1.408 .      A
N71   C283  1.338 .      A
C283  C284  1.363 .      A
C283  C288  1.372 .      A
C284  C285  1.381 .      A
C285  C286  1.387 1_556  A
C286  C285  1.387 1_554  A
C286  C287  1.386 .      A
C287  C288  1.370 1_554  A
C288  C287  1.370 1_556  A
C288  N72   1.356 .      A
C290  N73   1.354 .      A
C290  N74   1.317 .      A
N73   C291  1.340 .      A
C291  C292  1.347 .      A
C291  C296  1.338 .      A
C292  C293  1.381 1_545  A
C293  C292  1.381 1_565  A
C293  C294  1.387 .      A
C294  C295  1.387 1_565  A
C295  C294  1.387 1_545  A
C295  C296  1.373 .      A
C296  N74   1.341 .      A
C298  N75   1.374 .      A
C298  N76   1.437 .      A
N75   C299  1.343 .      A
C299  C300  1.353 .      A
C299  C304  1.372 .      A
C300  C301  1.380 .      A
C301  C302  1.386 .      A
C302  C303  1.377 .      A
C303  C304  1.364 .      A
C304  N76   1.342 .      A
C306  N77   1.353 .      A
C306  N78   1.353 .      A
N77   C307  1.343 .      A
C307  C308  1.374 1_556  A
C307  C312  1.352 .      A
C308  C307  1.374 1_554  A
C308  C309  1.378 .      A
C309  C310  1.384 1_554  A
C310  C309  1.384 1_556  A
C310  C311  1.386 .      A
C311  C312  1.358 .      A
C312  N78   1.342 .      A
C314  N79   1.407 .      A
C314  N80   1.418 .      A
N79   C315  1.394 .      A
C315  C316  1.384 .      A
C315  C320  1.343 .      A
C316  C317  1.372 .      A
C317  C318  1.352 .      A
C318  C319  1.372 .      A
C319  C320  1.372 .      A
C320  N80   1.327 .      A
C322  N81   1.352 .      A
C322  N82   1.353 .      A
N81   C323  1.342 .      A
C323  C324  1.371 .      A
C323  C328  1.355 .      A
C324  C325  1.384 .      A
C325  C326  1.392 .      A
C326  C327  1.383 .      A
C327  C328  1.370 .      A
C328  N82   1.344 .      A
C330  N83   1.405 .      A
C330  N84   1.389 .      A
N83   C331  1.351 .      A
C331  C332  1.351 .      A
C331  C336  1.355 .      A
C332  C333  1.396 .      A
C333  C334  1.383 .      A
C334  C335  1.373 .      A
C335  C336  1.369 .      A
C336  N84   1.333 .      A
C338  N85   1.347 .      A
C338  N86   1.330 .      A
N85   C339  1.348 1_655  A
C339  N85   1.348 1_455  A
C339  C340  1.343 .      A
C339  C344  1.339 1_455  A
C340  C341  1.381 .      A
C341  C342  1.353 .      A
C342  C343  1.328 .      A
C343  C344  1.372 1_455  A
C344  C339  1.339 1_655  A
C344  C343  1.372 1_655  A
C344  N86   1.328 .      A
C346  N87   1.419 .      A
C346  N88   1.397 .      A
N87   C347  1.353 1_655  A
C347  N87   1.353 1_455  A
C347  C348  1.370 .      A
C347  C352  1.386 1_455  A
C348  C349  1.388 .      A
C349  C350  1.392 .      A
C350  C351  1.384 .      A
C351  C352  1.371 1_455  A
C352  C347  1.386 1_655  A
C352  C351  1.371 1_655  A
C352  N88   1.346 .      A
C354  N89   1.338 .      A
C354  N90   1.330 .      A
N89   C355  1.340 .      A
C355  C356  1.361 .      A
C355  C360  1.335 .      A
C356  C357  1.370 .      A
C357  C358  1.380 .      A
C358  C359  1.390 .      A
C359  C360  1.372 .      A
C360  N90   1.334 .      A
C362  N91   1.375 .      A
C362  N92   1.382 .      A
N91   C363  1.345 .      A
C363  C364  1.371 .      A
C363  C368  1.373 .      A
C364  C365  1.386 .      A
C365  C366  1.394 .      A
C366  C367  1.387 .      A
C367  C368  1.372 .      A
C368  N92   1.344 .      A
C370  N93   1.352 .      A
C370  N94   1.339 .      A
N93   C371  1.346 .      A
C371  C372  1.378 .      A
C371  C376  1.347 .      A
C372  C373  1.392 .      A
C373  C374  1.394 .      A
C374  C375  1.381 .      A
C375  C376  1.365 .      A
C376  N94   1.326 .      A
C378  N95   1.412 .      A
C378  N96   1.418 .      A
N95   C379  1.326 1_455  A
C379  N95   1.326 1_655  A
C379  C380  1.369 .      A
C379  C384  1.361 .      A
C380  C381  1.378 .      A
C381  C382  1.380 .      A
C382  C383  1.379 .      A
C383  C384  1.364 .      A
C384  N96   1.366 1_655  A
N96   C384  1.366 1_455  A
