data_str_m1_o12004_CGF
_audit_creation_date              2015-10-01T06:29:33-0700
_symmetry_space_group_name_H-M    P1
_symmetry_Int_Tables_number       1
_space_group_crystal_system       triclinic
loop_
_symmetry_equiv_pos_as_xyz
  x,y,z
_cell_length_a                    14.6914165
_cell_length_b                    24.7483102
_cell_length_c                    25.3467358
_cell_angle_alpha                 85.7029682
_cell_angle_beta                  102.124454
_cell_angle_gamma                 87.7643471
_cell_volume                      8970.68800232

loop_
_atom_site_label
_atom_site_type_symbol
_atom_site_description
_atom_site_fract_x
_atom_site_fract_y
_atom_site_fract_z
_atom_type_partial_charge
Zn1   Zn    Zn3+2 0.108149 0.862054 0.499758 0.000000
Zn2   Zn    Zn3+2 0.381824 0.029758 0.869420 0.000000
Zn3   Zn    Zn3+2 0.980616 0.469634 0.769876 0.000000
Zn4   Zn    Zn3+2 0.623459 0.805687 0.271226 0.000000
Zn5   Zn    Zn3+2 0.253317 0.610215 0.503729 0.000000
Zn6   Zn    Zn3+2 0.862082 0.553284 0.532186 0.000000
Zn7   Zn    Zn3+2 0.436534 0.855726 0.694320 0.000000
Zn8   Zn    Zn3+2 0.346660 0.608217 0.750954 0.000000
Zn9   Zn    Zn3+2 0.729956 0.807352 0.531713 0.000000
Zn10  Zn    Zn3+2 0.840496 0.199421 0.158742 0.000000
Zn11  Zn    Zn3+2 0.549729 0.392028 0.153249 0.000000
Zn12  Zn    Zn3+2 0.246388 0.211142 0.097753 0.000000
Zn13  Zn    Zn3+2 0.967920 0.964516 0.265264 0.000000
Zn14  Zn    Zn3+2 0.709888 0.205066 0.907251 0.000000
Zn15  Zn    Zn3+2 0.311915 0.961312 0.119591 0.000000
Zn16  Zn    Zn3+2 0.076741 0.223797 0.840067 0.000000
Zn17  Zn    Zn3+2 0.645928 0.458160 0.915071 0.000000
Zn18  Zn    Zn3+2 0.526132 0.563395 0.333736 0.000000
C1    C     C_3   0.866399 0.023209 0.477480 0.000000
N1    N     N_3   0.908003 0.972447 0.506606 0.000000
C2    C     C_3   0.871526 0.927537 0.476348 0.000000
C3    C     C_R   0.898819 0.875516 0.509583 0.000000
N2    N     N_R   0.990617 0.867491 0.535431 0.000000
C4    C     C_R   0.982601 0.866132 0.588183 0.000000
C5    C     C_R   0.047488 0.876949 0.633018 0.000000
C6    C     C_R   0.016993 0.896173 0.676442 0.000000
C7    C     C_R   0.923345 0.899329 0.677270 0.000000
C8    C     C_R   0.859589 0.882651 0.634556 0.000000
C9    C     C_R   0.891469 0.863998 0.591633 0.000000
N3    N     N_R   0.838409 0.861322 0.542551 0.000000
H1    H     H_    0.899729 0.057525 0.498271 0.000000
H2    H     H_    0.877675 0.025544 0.435667 0.000000
H3    H     H_    0.790703 0.026354 0.476975 0.000000
H4    H     H_    0.885981 0.969859 0.543211 0.000000
H5    H     H_    0.795892 0.931875 0.471787 0.000000
H6    H     H_    0.895552 0.927566 0.437936 0.000000
H7    H     H_    0.120285 0.870893 0.635476 0.000000
H8    H     H_    0.066437 0.911250 0.708916 0.000000
H9    H     H_    0.900007 0.916203 0.710591 0.000000
H10   H     H_    0.786150 0.889765 0.632574 0.000000
C10   C     C_3   0.072347 0.752524 0.636276 0.000000
N4    N     N_3   0.071268 0.752560 0.579413 0.000000
C11   C     C_3   0.163114 0.732555 0.575801 0.000000
C12   C     C_R   0.173319 0.735132 0.518835 0.000000
N5    N     N_R   0.212524 0.693865 0.494446 0.000000
C13   C     C_R   0.207879 0.718148 0.444848 0.000000
C14   C     C_R   0.244950 0.700912 0.403784 0.000000
C15   C     C_R   0.196679 0.715967 0.351953 0.000000
C16   C     C_R   0.115181 0.747598 0.345063 0.000000
C17   C     C_R   0.097293 0.774589 0.388039 0.000000
C18   C     C_R   0.157149 0.765443 0.437380 0.000000
N6    N     N_R   0.143977 0.781500 0.485066 0.000000
H11   H     H_    0.098921 0.712733 0.655849 0.000000
H12   H     H_    0.121215 0.781697 0.654001 0.000000
H13   H     H_    0.001140 0.761326 0.642714 0.000000
H14   H     H_    0.026814 0.722842 0.567138 0.000000
H15   H     H_    0.211706 0.759321 0.598572 0.000000
H16   H     H_    0.176417 0.690615 0.593417 0.000000
H17   H     H_    0.311862 0.679810 0.411518 0.000000
H18   H     H_    0.218617 0.700293 0.317808 0.000000
H19   H     H_    0.070469 0.755355 0.305264 0.000000
H20   H     H_    0.036972 0.801490 0.382256 0.000000
C19   C     C_3   0.401057 0.802193 0.482420 0.000000
N7    N     N_3   0.351117 0.844039 0.504335 0.000000
C20   C     C_3   0.344813 0.824151 0.558801 0.000000
C21   C     C_R   0.294060 0.864385 0.583636 0.000000
N8    N     N_R   0.330502 0.886352 0.631485 0.000000
C22   C     C_R   0.270537 0.929809 0.629983 0.000000
C23   C     C_R   0.266973 0.966274 0.668070 0.000000
C24   C     C_R   0.193690 0.004925 0.659119 0.000000
C25   C     C_R   0.123034 0.005883 0.613584 0.000000
C26   C     C_R   0.125817 0.968009 0.576836 0.000000
C27   C     C_R   0.201057 0.931510 0.585020 0.000000
N9    N     N_R   0.210983 0.888799 0.556422 0.000000
H21   H     H_    0.475823 0.800006 0.502437 0.000000
H22   H     H_    0.372907 0.762105 0.488989 0.000000
H23   H     H_    0.393211 0.811766 0.438330 0.000000
H24   H     H_    0.283884 0.848959 0.480456 0.000000
H25   H     H_    0.309404 0.787114 0.556357 0.000000
H26   H     H_    0.413559 0.815624 0.584204 0.000000
H27   H     H_    0.316467 0.965403 0.704813 0.000000
H28   H     H_    0.190024 0.033591 0.688701 0.000000
H29   H     H_    0.064526 0.035208 0.607604 0.000000
H30   H     H_    0.069737 0.966246 0.542993 0.000000
C28   C     C_3   0.386598 0.837576 0.918318 0.000000
N10   N     N_3   0.417728 0.882968 0.888151 0.000000
C29   C     C_3   0.374983 0.881338 0.831164 0.000000
C30   C     C_R   0.413206 0.923765 0.798565 0.000000
N11   N     N_R   0.419720 0.977350 0.811961 0.000000
C31   C     C_R   0.470670 0.997381 0.776710 0.000000
C32   C     C_R   0.497144 0.049561 0.768850 0.000000
C33   C     C_R   0.538456 0.062601 0.725945 0.000000
C34   C     C_R   0.562044 0.022891 0.694796 0.000000
C35   C     C_R   0.538596 0.970193 0.704298 0.000000
C36   C     C_R   0.490959 0.958939 0.744330 0.000000
N12   N     N_R   0.452255 0.912232 0.754609 0.000000
H31   H     H_    0.413269 0.840343 0.962272 0.000000
H32   H     H_    0.309379 0.838581 0.909828 0.000000
H33   H     H_    0.413897 0.798763 0.906860 0.000000
H34   H     H_    0.489646 0.876630 0.892290 0.000000
H35   H     H_    0.391682 0.841152 0.818206 0.000000
H36   H     H_    0.298667 0.888407 0.824802 0.000000
H37   H     H_    0.478020 0.081715 0.791062 0.000000
H38   H     H_    0.550610 0.104536 0.716312 0.000000
H39   H     H_    0.597405 0.033432 0.662503 0.000000
H40   H     H_    0.557062 0.938826 0.681081 0.000000
C37   C     C_3   0.016814 0.376050 0.568005 0.000000
N13   N     N_3   0.009154 0.430176 0.586058 0.000000
C38   C     C_3   0.965319 0.426874 0.632452 0.000000
C39   C     C_R   0.926694 0.481225 0.642308 0.000000
N14   N     N_R   0.904021 0.485958 0.692019 0.000000
C40   C     C_R   0.814669 0.506227 0.677825 0.000000
C41   C     C_R   0.753750 0.519438 0.709303 0.000000
C42   C     C_R   0.660060 0.526510 0.684896 0.000000
C43   C     C_R   0.630642 0.519684 0.630515 0.000000
C44   C     C_R   0.695138 0.515460 0.598574 0.000000
C45   C     C_R   0.786969 0.513359 0.623661 0.000000
N15   N     N_R   0.858921 0.505569 0.600590 0.000000
H41   H     H_    0.062623 0.376407 0.538352 0.000000
H42   H     H_    0.047176 0.346350 0.602655 0.000000
H43   H     H_    0.947018 0.363752 0.548016 0.000000
H44   H     H_    0.962977 0.452205 0.554663 0.000000
H45   H     H_    0.905656 0.400630 0.623606 0.000000
H46   H     H_    0.013457 0.407706 0.668783 0.000000
H47   H     H_    0.777580 0.526135 0.750945 0.000000
H48   H     H_    0.609085 0.534732 0.708616 0.000000
H49   H     H_    0.557466 0.520966 0.612405 0.000000
H50   H     H_    0.673555 0.511936 0.555775 0.000000
C46   C     C_3   0.199983 0.431800 0.658311 0.000000
N16   N     N_3   0.151249 0.459334 0.693910 0.000000
C47   C     C_3   0.209239 0.501490 0.715249 0.000000
C48   C     C_R   0.172799 0.533630 0.754294 0.000000
N17   N     N_R   0.224324 0.576432 0.773548 0.000000
C49   C     C_R   0.174531 0.595468 0.807985 0.000000
C50   C     C_R   0.195841 0.636306 0.841794 0.000000
C51   C     C_R   0.127348 0.655720 0.866623 0.000000
C52   C     C_R   0.039306 0.635272 0.856148 0.000000
C53   C     C_R   0.020860 0.592589 0.823907 0.000000
C54   C     C_R   0.092585 0.570052 0.804155 0.000000
N18   N     N_R   0.090549 0.527161 0.773766 0.000000
H51   H     H_    0.169346 0.392536 0.649843 0.000000
H52   H     H_    0.196206 0.457565 0.620099 0.000000
H53   H     H_    0.273042 0.421639 0.678725 0.000000
H54   H     H_    0.152263 0.430927 0.725748 0.000000
H55   H     H_    0.278149 0.483493 0.737015 0.000000
H56   H     H_    0.215244 0.529976 0.680897 0.000000
H57   H     H_    0.261788 0.655164 0.846311 0.000000
H58   H     H_    0.140970 0.688898 0.892083 0.000000
H59   H     H_    0.984824 0.652691 0.873475 0.000000
H60   H     H_    0.952011 0.577516 0.814936 0.000000
C55   C     C_3   0.860182 0.751979 0.326048 0.000000
N19   N     N_3   0.765422 0.752214 0.335508 0.000000
C56   C     C_3   0.767274 0.766631 0.389669 0.000000
C57   C     C_R   0.683113 0.798327 0.395887 0.000000
N20   N     N_R   0.616149 0.815948 0.350797 0.000000
C58   C     C_R   0.553840 0.842988 0.372406 0.000000
C59   C     C_R   0.472260 0.869995 0.346195 0.000000
C60   C     C_R   0.433268 0.907561 0.373900 0.000000
C61   C     C_R   0.476109 0.916649 0.426213 0.000000
C62   C     C_R   0.554186 0.884976 0.452880 0.000000
C63   C     C_R   0.586176 0.845102 0.426751 0.000000
N21   N     N_R   0.666281 0.815183 0.444944 0.000000
H61   H     H_    0.901072 0.715740 0.348012 0.000000
H62   H     H_    0.859388 0.750055 0.282674 0.000000
H63   H     H_    0.894766 0.789472 0.336995 0.000000
H64   H     H_    0.752810 0.711293 0.339193 0.000000
H65   H     H_    0.773913 0.728538 0.415149 0.000000
H66   H     H_    0.823829 0.792754 0.399536 0.000000
H67   H     H_    0.440608 0.863099 0.305112 0.000000
H68   H     H_    0.372006 0.932140 0.354050 0.000000
H69   H     H_    0.447869 0.948694 0.445636 0.000000
H70   H     H_    0.596203 0.893656 0.490716 0.000000
C64   C     C_3   0.490188 0.718678 0.614715 0.000000
N22   N     N_3   0.396908 0.702595 0.591319 0.000000
C65   C     C_3   0.361240 0.676225 0.634900 0.000000
C66   C     C_R   0.333474 0.620113 0.628022 0.000000
N23   N     N_R   0.328347 0.593697 0.581298 0.000000
C67   C     C_R   0.356666 0.542558 0.600924 0.000000
C68   C     C_R   0.366086 0.498857 0.571943 0.000000
C69   C     C_R   0.406961 0.451177 0.600563 0.000000
C70   C     C_R   0.436128 0.448456 0.656623 0.000000
C71   C     C_R   0.418495 0.491910 0.685349 0.000000
C72   C     C_R   0.376372 0.538503 0.656152 0.000000
N24   N     N_R   0.354316 0.586176 0.674423 0.000000
H71   H     H_    0.520156 0.739571 0.582772 0.000000
H72   H     H_    0.485767 0.746470 0.646266 0.000000
H73   H     H_    0.537542 0.683544 0.633868 0.000000
H74   H     H_    0.398732 0.677418 0.560938 0.000000
H75   H     H_    0.418651 0.670741 0.669892 0.000000
H76   H     H_    0.308756 0.701600 0.647207 0.000000
H77   H     H_    0.346310 0.502103 0.528310 0.000000
H78   H     H_    0.419074 0.416385 0.579076 0.000000
H79   H     H_    0.471556 0.411625 0.677888 0.000000
H80   H     H_    0.439544 0.489464 0.728904 0.000000
C73   C     C_3   0.812775 0.637227 0.707265 0.000000
N25   N     N_3   0.835446 0.648780 0.655218 0.000000
C74   C     C_3   0.750645 0.657205 0.613856 0.000000
C75   C     C_R   0.779782 0.671121 0.562569 0.000000
N26   N     N_R   0.785209 0.724793 0.543957 0.000000
C76   C     C_R   0.853145 0.719067 0.517512 0.000000
C77   C     C_R   0.888718 0.759355 0.493918 0.000000
C78   C     C_R   0.955169 0.749298 0.465665 0.000000
C79   C     C_R   0.974700 0.696979 0.454457 0.000000
C80   C     C_R   0.929875 0.655787 0.475325 0.000000
C81   C     C_R   0.877454 0.667537 0.512310 0.000000
N27   N     N_R   0.832949 0.634272 0.540602 0.000000
H81   H     H_    0.859786 0.603340 0.729382 0.000000
H82   H     H_    0.825739 0.671934 0.731759 0.000000
H83   H     H_    0.739403 0.626859 0.701000 0.000000
H84   H     H_    0.865217 0.612480 0.647176 0.000000
H85   H     H_    0.714123 0.619532 0.611396 0.000000
H86   H     H_    0.704999 0.690298 0.622710 0.000000
H87   H     H_    0.845389 0.794273 0.484484 0.000000
H88   H     H_    0.975033 0.784314 0.445338 0.000000
H89   H     H_    0.016510 0.688343 0.425598 0.000000
H90   H     H_    0.930040 0.617783 0.458139 0.000000
C82   C     C_3   0.047986 0.611278 0.663239 0.000000
N28   N     N_3   0.041407 0.575005 0.620815 0.000000
C83   C     C_3   0.085348 0.600603 0.580536 0.000000
C84   C     C_R   0.071043 0.570871 0.532048 0.000000
N29   N     N_R   0.139229 0.564753 0.503310 0.000000
C85   C     C_R   0.107394 0.525004 0.471765 0.000000
C86   C     C_R   0.154682 0.494435 0.441953 0.000000
C87   C     C_R   0.106854 0.455810 0.412184 0.000000
C88   C     C_R   0.014412 0.447663 0.413559 0.000000
C89   C     C_R   0.969950 0.476316 0.446612 0.000000
C90   C     C_R   0.019150 0.513719 0.476669 0.000000
N30   N     N_R   0.993055 0.542871 0.514518 0.000000
H91   H     H_    0.016750 0.593110 0.695724 0.000000
H92   H     H_    0.121548 0.620121 0.678405 0.000000
H93   H     H_    0.005906 0.648913 0.646842 0.000000
H94   H     H_    0.971215 0.576950 0.603159 0.000000
H95   H     H_    0.054240 0.641071 0.568626 0.000000
H96   H     H_    0.160333 0.600809 0.597131 0.000000
H97   H     H_    0.227689 0.498287 0.443071 0.000000
H98   H     H_    0.142014 0.431438 0.388050 0.000000
H99   H     H_    0.977917 0.417340 0.390096 0.000000
H100  H     H_    0.900146 0.467934 0.449486 0.000000
C91   C     C_3   0.558130 0.996186 0.553372 0.000000
N31   N     N_3   0.600262 0.942211 0.572802 0.000000
C92   C     C_3   0.527332 0.904384 0.575492 0.000000
C93   C     C_R   0.569924 0.852072 0.605135 0.000000
N32   N     N_R   0.647466 0.823331 0.593798 0.000000
C94   C     C_R   0.686694 0.800780 0.644368 0.000000
C95   C     C_R   0.776722 0.779562 0.661848 0.000000
C96   C     C_R   0.813836 0.774035 0.717003 0.000000
C97   C     C_R   0.759369 0.785243 0.753863 0.000000
C98   C     C_R   0.667490 0.804099 0.735948 0.000000
C99   C     C_R   0.632961 0.811658 0.681160 0.000000
N33   N     N_R   0.554153 0.840326 0.656982 0.000000
H101  H     H_    0.612615 0.026166 0.560597 0.000000
H102  H     H_    0.528664 0.998088 0.509393 0.000000
H103  H     H_    0.502599 0.007056 0.574901 0.000000
H104  H     H_    0.639133 0.944410 0.611969 0.000000
H105  H     H_    0.478325 0.921159 0.598434 0.000000
H106  H     H_    0.485669 0.899029 0.535466 0.000000
H107  H     H_    0.820553 0.772053 0.633763 0.000000
H108  H     H_    0.886360 0.760781 0.731583 0.000000
H109  H     H_    0.789857 0.780858 0.796757 0.000000
H110  H     H_    0.627114 0.817254 0.764100 0.000000
C100  C     C_3   0.577383 0.705003 0.879934 0.000000
N34   N     N_3   0.502396 0.694639 0.835011 0.000000
C101  C     C_3   0.507479 0.732665 0.789181 0.000000
C102  C     C_R   0.422508 0.733014 0.745420 0.000000
N35   N     N_R   0.354122 0.695951 0.749524 0.000000
C103  C     C_R   0.277634 0.730039 0.742253 0.000000
C104  C     C_R   0.191769 0.718640 0.750820 0.000000
C105  C     C_R   0.135675 0.760435 0.761869 0.000000
C106  C     C_R   0.162717 0.813199 0.757640 0.000000
C107  C     C_R   0.239782 0.824989 0.736207 0.000000
C108  C     C_R   0.297666 0.782134 0.730021 0.000000
N36   N     N_R   0.386534 0.784490 0.725185 0.000000
H111  H     H_    0.589019 0.669706 0.910668 0.000000
H112  H     H_    0.642596 0.711758 0.865598 0.000000
H113  H     H_    0.557934 0.741493 0.898847 0.000000
H114  H     H_    0.440430 0.703859 0.847258 0.000000
H115  H     H_    0.511373 0.773984 0.803246 0.000000
H116  H     H_    0.569559 0.725148 0.772977 0.000000
H117  H     H_    0.167180 0.679058 0.747123 0.000000
H118  H     H_    0.070314 0.752090 0.773133 0.000000
H119  H     H_    0.122093 0.844921 0.770380 0.000000
H120  H     H_    0.259285 0.866216 0.730908 0.000000
C109  C     C_3   0.548661 0.265544 0.022340 0.000000
N37   N     N_3   0.583218 0.258774 0.080702 0.000000
C110  C     C_3   0.640875 0.302789 0.096632 0.000000
C111  C     C_R   0.685891 0.298174 0.154949 0.000000
N38   N     N_R   0.656736 0.335767 0.185370 0.000000
C112  C     C_R   0.709062 0.321732 0.235104 0.000000
C113  C     C_R   0.706996 0.345550 0.282049 0.000000
C114  C     C_R   0.765664 0.322875 0.329248 0.000000
C115  C     C_R   0.822813 0.276884 0.328844 0.000000
C116  C     C_R   0.823847 0.253496 0.281037 0.000000
C117  C     C_R   0.767734 0.277543 0.234160 0.000000
N39   N     N_R   0.758088 0.261992 0.183225 0.000000
H121  H     H_    0.473085 0.258783 0.012901 0.000000
H122  H     H_    0.559721 0.306650 0.005548 0.000000
H123  H     H_    0.585958 0.235890 0.002946 0.000000
H124  H     H_    0.625889 0.224085 0.089646 0.000000
H125  H     H_    0.691514 0.307841 0.072462 0.000000
H126  H     H_    0.594549 0.339038 0.089763 0.000000
H127  H     H_    0.662161 0.380981 0.282400 0.000000
H128  H     H_    0.766805 0.340835 0.366873 0.000000
H129  H     H_    0.867172 0.259309 0.366224 0.000000
H130  H     H_    0.867801 0.217708 0.280826 0.000000
C118  C     C_3   0.937414 0.074003 0.110630 0.000000
N40   N     N_3   0.002970 0.100336 0.083586 0.000000
C119  C     C_3   0.998116 0.159070 0.079388 0.000000
C120  C     C_R   0.039482 0.189591 0.127083 0.000000
N41   N     N_R   0.981911 0.210615 0.158428 0.000000
C121  C     C_R   0.037129 0.244179 0.188028 0.000000
C122  C     C_R   0.012105 0.279990 0.221896 0.000000
C123  C     C_R   0.078877 0.312029 0.248116 0.000000
C124  C     C_R   0.168688 0.307835 0.239644 0.000000
C125  C     C_R   0.191476 0.273008 0.203616 0.000000
C126  C     C_R   0.123569 0.242733 0.176483 0.000000
N42   N     N_R   0.127893 0.210985 0.135624 0.000000
H131  H     H_    0.899276 0.045241 0.084083 0.000000
H132  H     H_    0.971582 0.046147 0.145258 0.000000
H133  H     H_    0.892775 0.104957 0.122264 0.000000
H134  H     H_    0.980859 0.091738 0.043358 0.000000
H135  H     H_    0.031526 0.172255 0.046274 0.000000
H136  H     H_    0.926463 0.168948 0.069163 0.000000
H137  H     H_    0.941872 0.284890 0.226260 0.000000
H138  H     H_    0.060877 0.340693 0.274944 0.000000
H139  H     H_    0.220186 0.333330 0.260046 0.000000
H140  H     H_    0.259949 0.271017 0.196432 0.000000
C127  C     C_3   0.132011 0.148697 0.289653 0.000000
N43   N     N_3   0.033737 0.137699 0.275666 0.000000
C128  C     C_3   0.017648 0.101666 0.232191 0.000000
C129  C     C_R   0.919175 0.087471 0.220562 0.000000
N44   N     N_R   0.897431 0.041817 0.247754 0.000000
C130  C     C_R   0.819951 0.060238 0.263077 0.000000
C131  C     C_R   0.801124 0.047844 0.313129 0.000000
C132  C     C_R   0.741513 0.082200 0.332283 0.000000
C133  C     C_R   0.701082 0.128599 0.301409 0.000000
C134  C     C_R   0.722552 0.142236 0.251786 0.000000
C135  C     C_R   0.787421 0.109515 0.235728 0.000000
N45   N     N_R   0.847140 0.126781 0.205617 0.000000
H141  H     H_    0.166130 0.122699 0.326450 0.000000
H142  H     H_    0.167034 0.140971 0.256065 0.000000
H143  H     H_    0.138830 0.191632 0.298796 0.000000
H144  H     H_    0.995468 0.174117 0.262531 0.000000
H145  H     H_    0.040981 0.117527 0.196787 0.000000
H146  H     H_    0.056924 0.063831 0.245756 0.000000
H147  H     H_    0.840282 0.015706 0.339779 0.000000
H148  H     H_    0.728881 0.074112 0.372509 0.000000
H149  H     H_    0.658164 0.155760 0.318368 0.000000
H150  H     H_    0.695364 0.179871 0.229085 0.000000
C136  C     C_3   0.720821 0.029165 0.015454 0.000000
N46   N     N_3   0.686846 0.086247 0.005051 0.000000
C137  C     C_3   0.755293 0.113810 0.040403 0.000000
C138  C     C_R   0.746463 0.173319 0.034622 0.000000
N47   N     N_R   0.764779 0.198453 0.988298 0.000000
C139  C     C_R   0.816100 0.238918 0.006703 0.000000
C140  C     C_R   0.902566 0.242473 0.997357 0.000000
C141  C     C_R   0.963838 0.277002 0.024842 0.000000
C142  C     C_R   0.941968 0.300191 0.068236 0.000000
C143  C     C_R   0.867499 0.281659 0.087255 0.000000
C144  C     C_R   0.812909 0.245359 0.058125 0.000000
N48   N     N_R   0.780305 0.201192 0.079538 0.000000
H151  H     H_    0.675247 0.002578 0.990499 0.000000
H152  H     H_    0.790386 0.023553 0.005612 0.000000
H153  H     H_    0.725467 0.014876 0.058445 0.000000
H154  H     H_    0.626443 0.091229 0.019361 0.000000
H155  H     H_    0.753862 0.099500 0.082446 0.000000
H156  H     H_    0.820423 0.105800 0.027090 0.000000
H157  H     H_    0.925964 0.210637 0.975788 0.000000
H158  H     H_    0.031426 0.281803 0.016037 0.000000
H159  H     H_    0.988168 0.326852 0.091223 0.000000
H160  H     H_    0.859823 0.292374 0.126241 0.000000
C145  C     C_3   0.316539 0.440639 0.983811 0.000000
N49   N     N_3   0.409770 0.456863 0.003613 0.000000
C146  C     C_3   0.476742 0.412686 0.002140 0.000000
C147  C     C_R   0.567906 0.431382 0.027907 0.000000
N50   N     N_R   0.619644 0.463128 0.998169 0.000000
C148  C     C_R   0.663796 0.493146 0.037187 0.000000
C149  C     C_R   0.711154 0.538865 0.030754 0.000000
C150  C     C_R   0.759398 0.559976 0.076830 0.000000
C151  C     C_R   0.757955 0.535646 0.127814 0.000000
C152  C     C_R   0.701688 0.492956 0.133714 0.000000
C153  C     C_R   0.651406 0.474256 0.087459 0.000000
N51   N     N_R   0.588801 0.435650 0.083685 0.000000
H161  H     H_    0.291778 0.456822 0.941244 0.000000
H162  H     H_    0.315068 0.395919 0.986953 0.000000
H163  H     H_    0.270350 0.458838 0.007845 0.000000
H164  H     H_    0.415111 0.465267 0.043760 0.000000
H165  H     H_    0.461792 0.376077 0.025977 0.000000
H166  H     H_    0.475889 0.404302 0.959703 0.000000
H167  H     H_    0.710641 0.557979 0.991081 0.000000
H168  H     H_    0.800132 0.594964 0.073095 0.000000
H169  H     H_    0.799578 0.551133 0.163041 0.000000
H170  H     H_    0.697837 0.474976 0.173310 0.000000
C154  C     C_3   0.442894 0.610500 0.132067 0.000000
N52   N     N_3   0.458402 0.578089 0.183603 0.000000
C155  C     C_3   0.533492 0.537675 0.185161 0.000000
C156  C     C_R   0.530866 0.493906 0.228169 0.000000
N53   N     N_R   0.502913 0.504640 0.275909 0.000000
C157  C     C_R   0.461297 0.458960 0.286873 0.000000
C158  C     C_R   0.417767 0.447426 0.329231 0.000000
C159  C     C_R   0.387900 0.395746 0.336618 0.000000
C160  C     C_R   0.401610 0.357054 0.301918 0.000000
C161  C     C_R   0.443072 0.369983 0.258791 0.000000
C162  C     C_R   0.473209 0.421174 0.251990 0.000000
N54   N     N_R   0.518837 0.441082 0.214214 0.000000
H171  H     H_    0.508445 0.629011 0.127103 0.000000
H172  H     H_    0.418298 0.584969 0.098319 0.000000
H173  H     H_    0.388008 0.642732 0.131264 0.000000
H174  H     H_    0.397800 0.557480 0.183814 0.000000
H175  H     H_    0.521494 0.519117 0.146093 0.000000
H176  H     H_    0.600980 0.556545 0.191036 0.000000
H177  H     H_    0.411714 0.476145 0.358106 0.000000
H178  H     H_    0.355699 0.385109 0.370326 0.000000
H179  H     H_    0.379906 0.316353 0.308693 0.000000
H180  H     H_    0.452300 0.340218 0.232230 0.000000
C163  C     C_3   0.482434 0.178781 0.243643 0.000000
N55   N     N_3   0.424064 0.219425 0.206251 0.000000
C164  C     C_3   0.482174 0.251965 0.178018 0.000000
C165  C     C_R   0.420837 0.289832 0.134461 0.000000
N56   N     N_R   0.328077 0.279135 0.114981 0.000000
C166  C     C_R   0.286274 0.329553 0.107944 0.000000
C167  C     C_R   0.192828 0.342706 0.101129 0.000000
C168  C     C_R   0.165058 0.395721 0.107011 0.000000
C169  C     C_R   0.230316 0.434883 0.116671 0.000000
C170  C     C_R   0.324169 0.421197 0.121847 0.000000
C171  C     C_R   0.350082 0.368006 0.117661 0.000000
N57   N     N_R   0.436705 0.344852 0.131560 0.000000
H181  H     H_    0.437605 0.152200 0.263051 0.000000
H182  H     H_    0.524227 0.153561 0.222249 0.000000
H183  H     H_    0.527624 0.199748 0.275366 0.000000
H184  H     H_    0.399631 0.245208 0.231444 0.000000
H185  H     H_    0.526280 0.275449 0.207554 0.000000
H186  H     H_    0.532501 0.226435 0.163622 0.000000
H187  H     H_    0.142984 0.312325 0.092409 0.000000
H188  H     H_    0.091934 0.406993 0.102868 0.000000
H189  H     H_    0.207740 0.476187 0.120695 0.000000
H190  H     H_    0.375204 0.451156 0.131152 0.000000
C172  C     C_3   0.123466 0.015177 0.076039 0.000000
N58   N     N_3   0.159204 0.037288 0.127292 0.000000
C173  C     C_3   0.189609 0.091089 0.125418 0.000000
C174  C     C_R   0.286073 0.089613 0.126826 0.000000
N59   N     N_R   0.341177 0.043312 0.127294 0.000000
C175  C     C_R   0.423548 0.064269 0.127197 0.000000
C176  C     C_R   0.504008 0.036402 0.125411 0.000000
C177  C     C_R   0.581114 0.065198 0.123356 0.000000
C178  C     C_R   0.571222 0.120909 0.113869 0.000000
C179  C     C_R   0.484666 0.148099 0.107673 0.000000
C180  C     C_R   0.414772 0.119630 0.121242 0.000000
N60   N     N_R   0.326651 0.137466 0.120595 0.000000
H191  H     H_    0.175137 0.986319 0.067726 0.000000
H192  H     H_    0.059428 0.994201 0.078273 0.000000
H193  H     H_    0.105393 0.046223 0.043197 0.000000
H194  H     H_    0.110571 0.036756 0.151117 0.000000
H195  H     H_    0.158448 0.115547 0.088654 0.000000
H196  H     H_    0.178490 0.109803 0.161934 0.000000
H197  H     H_    0.507645 0.993143 0.128338 0.000000
H198  H     H_    0.647956 0.044150 0.126299 0.000000
H199  H     H_    0.631732 0.141656 0.109354 0.000000
H200  H     H_    0.470512 0.189629 0.092005 0.000000
C181  C     C_3   0.116961 0.392919 0.968702 0.000000
N61   N     N_3   0.108956 0.340599 0.947193 0.000000
C182  C     C_3   0.192429 0.305903 0.966322 0.000000
C183  C     C_R   0.165490 0.249305 0.967698 0.000000
N62   N     N_R   0.193184 0.214857 0.014108 0.000000
C184  C     C_R   0.165329 0.167955 0.995948 0.000000
C185  C     C_R   0.220834 0.122585 0.005041 0.000000
C186  C     C_R   0.190674 0.079251 0.977864 0.000000
C187  C     C_R   0.102795 0.081583 0.945753 0.000000
C188  C     C_R   0.064776 0.131757 0.924837 0.000000
C189  C     C_R   0.109068 0.174940 0.946819 0.000000
N63   N     N_R   0.116140 0.224464 0.923717 0.000000
H201  H     H_    0.140047 0.420862 0.938940 0.000000
H202  H     H_    0.048345 0.407126 0.975568 0.000000
H203  H     H_    0.167627 0.391513 0.006780 0.000000
H204  H     H_    0.106042 0.349183 0.906362 0.000000
H205  H     H_    0.241628 0.312478 0.939838 0.000000
H206  H     H_    0.228281 0.312950 0.007370 0.000000
H207  H     H_    0.289188 0.123369 0.028118 0.000000
H208  H     H_    0.230202 0.042736 0.988400 0.000000
H209  H     H_    0.070256 0.045186 0.932386 0.000000
H210  H     H_    0.003590 0.134706 0.893686 0.000000
C190  C     C_3   0.247287 0.844143 0.325217 0.000000
N64   N     N_3   0.201193 0.861358 0.367111 0.000000
C191  C     C_3   0.107436 0.880527 0.339772 0.000000
C192  C     C_R   0.055716 0.909607 0.374043 0.000000
N65   N     N_R   0.091096 0.913907 0.428550 0.000000
C193  C     C_R   0.083909 0.968007 0.431740 0.000000
C194  C     C_R   0.146174 0.997449 0.464732 0.000000
C195  C     C_R   0.136473 0.053431 0.458188 0.000000
C196  C     C_R   0.071423 0.079065 0.415298 0.000000
C197  C     C_R   0.022600 0.048700 0.376447 0.000000
C198  C     C_R   0.032310 0.992998 0.384881 0.000000
N66   N     N_R   0.014114 0.956764 0.347442 0.000000
H211  H     H_    0.307529 0.815708 0.343684 0.000000
H212  H     H_    0.198619 0.823782 0.294597 0.000000
H213  H     H_    0.270134 0.879799 0.303602 0.000000
H214  H     H_    0.235647 0.894487 0.383101 0.000000
H215  H     H_    0.115302 0.910795 0.309352 0.000000
H216  H     H_    0.065480 0.851387 0.315689 0.000000
H217  H     H_    0.206238 0.977916 0.492052 0.000000
H218  H     H_    0.182869 0.077223 0.484959 0.000000
H219  H     H_    0.065634 0.122878 0.409357 0.000000
H220  H     H_    0.981990 0.068735 0.339867 0.000000
C199  C     C_3   0.692678 0.946036 0.375058 0.000000
N67   N     N_3   0.712153 0.929917 0.324899 0.000000
C200  C     C_3   0.801593 0.901201 0.333321 0.000000
C201  C     C_R   0.809413 0.880165 0.281491 0.000000
N68   N     N_R   0.745118 0.845783 0.254629 0.000000
C202  C     C_R   0.760721 0.852635 0.203907 0.000000
C203  C     C_R   0.710490 0.833133 0.158048 0.000000
C204  C     C_R   0.728723 0.851612 0.108594 0.000000
C205  C     C_R   0.793600 0.890479 0.105613 0.000000
C206  C     C_R   0.843653 0.909891 0.152255 0.000000
C207  C     C_R   0.828831 0.888624 0.200982 0.000000
N69   N     N_R   0.864517 0.905589 0.249817 0.000000
H221  H     H_    0.704283 0.910542 0.404194 0.000000
H222  H     H_    0.737433 0.978682 0.389881 0.000000
H223  H     H_    0.618846 0.960602 0.369043 0.000000
H224  H     H_    0.716167 0.964409 0.300333 0.000000
H225  H     H_    0.856407 0.929177 0.344407 0.000000
H226  H     H_    0.809764 0.869757 0.366065 0.000000
H227  H     H_    0.658402 0.804385 0.160232 0.000000
H228  H     H_    0.690012 0.836933 0.071817 0.000000
H229  H     H_    0.804160 0.906133 0.066513 0.000000
H230  H     H_    0.890765 0.942067 0.150510 0.000000
C208  C     C_3   0.016490 0.839744 0.079588 0.000000
N70   N     N_3   0.043444 0.891547 0.099767 0.000000
C209  C     C_3   0.078222 0.882699 0.157896 0.000000
C210  C     C_R   0.120569 0.931946 0.181083 0.000000
N71   N     N_R   0.209138 0.947148 0.173756 0.000000
C211  C     C_R   0.236741 0.973356 0.218891 0.000000
C212  C     C_R   0.318493 0.998109 0.233645 0.000000
C213  C     C_R   0.334859 0.025509 0.279911 0.000000
C214  C     C_R   0.269049 0.027436 0.311065 0.000000
C215  C     C_R   0.185640 0.003992 0.294729 0.000000
C216  C     C_R   0.168450 0.978805 0.247223 0.000000
N72   N     N_R   0.089548 0.955483 0.223871 0.000000
H231  H     H_    0.079541 0.812821 0.081713 0.000000
H232  H     H_    0.970488 0.820071 0.103900 0.000000
H233  H     H_    0.978263 0.846614 0.036803 0.000000
H234  H     H_    0.983433 0.917155 0.092398 0.000000
H235  H     H_    0.021594 0.870976 0.178305 0.000000
H236  H     H_    0.132738 0.849049 0.166712 0.000000
H237  H     H_    0.370467 0.994557 0.210622 0.000000
H238  H     H_    0.399707 0.044461 0.292880 0.000000
H239  H     H_    0.282552 0.047798 0.347951 0.000000
H240  H     H_    0.134035 0.008490 0.317627 0.000000
C217  C     C_3   0.814414 0.399880 0.027205 0.000000
N73   N     N_3   0.754137 0.357303 0.007697 0.000000
C218  C     C_3   0.761742 0.350679 0.953352 0.000000
C219  C     C_R   0.673018 0.335920 0.919222 0.000000
N74   N     N_R   0.652877 0.286843 0.895967 0.000000
C220  C     C_R   0.579865 0.302866 0.855222 0.000000
C221  C     C_R   0.538352 0.272673 0.814462 0.000000
C222  C     C_R   0.468682 0.298200 0.773954 0.000000
C223  C     C_R   0.444906 0.353128 0.773852 0.000000
C224  C     C_R   0.490829 0.383670 0.813834 0.000000
C225  C     C_R   0.556735 0.357196 0.854975 0.000000
N75   N     N_R   0.614672 0.379245 0.895235 0.000000
H241  H     H_    0.819027 0.402141 0.071212 0.000000
H242  H     H_    0.884691 0.393177 0.018726 0.000000
H243  H     H_    0.785945 0.438143 0.005194 0.000000
H244  H     H_    0.685645 0.369743 0.005234 0.000000
H245  H     H_    0.775986 0.389610 0.935782 0.000000
H246  H     H_    0.822055 0.326220 0.953626 0.000000
H247  H     H_    0.559640 0.230509 0.813724 0.000000
H248  H     H_    0.433285 0.275424 0.741733 0.000000
H249  H     H_    0.390045 0.372147 0.742115 0.000000
H250  H     H_    0.474336 0.426558 0.812858 0.000000
C226  C     C_3   0.337385 0.197936 0.927479 0.000000
N76   N     N_3   0.382949 0.168261 0.892932 0.000000
C227  C     C_3   0.479835 0.173506 0.912927 0.000000
C228  C     C_R   0.533150 0.130320 0.894933 0.000000
N77   N     N_R   0.506679 0.076884 0.888500 0.000000
C229  C     C_R   0.589701 0.052051 0.886458 0.000000
C230  C     C_R   0.609974 0.997379 0.885546 0.000000
C231  C     C_R   0.700666 0.980253 0.885208 0.000000
C232  C     C_R   0.770128 0.017079 0.888627 0.000000
C233  C     C_R   0.749752 0.071548 0.892300 0.000000
C234  C     C_R   0.658302 0.088370 0.889271 0.000000
N78   N     N_R   0.624782 0.138707 0.894471 0.000000
H251  H     H_    0.263640 0.198754 0.909355 0.000000
H252  H     H_    0.352094 0.177719 0.968852 0.000000
H253  H     H_    0.361663 0.239646 0.929029 0.000000
H254  H     H_    0.368693 0.190181 0.855209 0.000000
H255  H     H_    0.499504 0.213183 0.897592 0.000000
H256  H     H_    0.497395 0.171748 0.957386 0.000000
H257  H     H_    0.558673 0.967995 0.888190 0.000000
H258  H     H_    0.718327 0.937529 0.884578 0.000000
H259  H     H_    0.841310 0.002772 0.890529 0.000000
H260  H     H_    0.805052 0.099162 0.899206 0.000000
C235  C     C_3   0.914778 0.358512 0.876378 0.000000
N79   N     N_3   0.928804 0.308829 0.853649 0.000000
C236  C     C_3   0.901608 0.268934 0.888126 0.000000
C237  C     C_R   0.888503 0.219930 0.862661 0.000000
N80   N     N_R   0.942583 0.206114 0.827961 0.000000
C238  C     C_R   0.887384 0.175739 0.794938 0.000000
C239  C     C_R   0.906050 0.154543 0.749816 0.000000
C240  C     C_R   0.836551 0.127383 0.719211 0.000000
C241  C     C_R   0.751300 0.122918 0.734073 0.000000
C242  C     C_R   0.733638 0.144664 0.780278 0.000000
C243  C     C_R   0.804384 0.170571 0.811027 0.000000
N81   N     N_R   0.804642 0.196998 0.856228 0.000000
H261  H     H_    0.840167 0.368127 0.866896 0.000000
H262  H     H_    0.938432 0.354062 0.920703 0.000000
H263  H     H_    0.957383 0.388064 0.860220 0.000000
H264  H     H_    0.999713 0.301153 0.865095 0.000000
H265  H     H_    0.963040 0.263915 0.920450 0.000000
H266  H     H_    0.832370 0.279547 0.894300 0.000000
H267  H     H_    0.971544 0.160311 0.737793 0.000000
H268  H     H_    0.847701 0.110507 0.682810 0.000000
H269  H     H_    0.698455 0.102811 0.708044 0.000000
H270  H     H_    0.666018 0.142729 0.790356 0.000000
C244  C     C_3   0.438878 0.067853 0.001044 0.000000
N82   N     N_3   0.509277 0.023263 0.010059 0.000000
C245  C     C_3   0.470487 0.971281 0.017380 0.000000
C246  C     C_R   0.370077 0.975147 0.996172 0.000000
N83   N     N_R   0.307125 0.956548 0.027679 0.000000
C247  C     C_R   0.238188 0.942291 0.987008 0.000000
C248  C     C_R   0.158817 0.916257 0.991456 0.000000
C249  C     C_R   0.099763 0.903247 0.944584 0.000000
C250  C     C_R   0.119752 0.916579 0.894236 0.000000
C251  C     C_R   0.198253 0.944238 0.889730 0.000000
C252  C     C_R   0.255996 0.957419 0.936284 0.000000
N84   N     N_R   0.336707 0.982816 0.940022 0.000000
H271  H     H_    0.390557 0.062476 0.027780 0.000000
H272  H     H_    0.473039 0.105389 0.011207 0.000000
H273  H     H_    0.401312 0.073715 0.958262 0.000000
H274  H     H_    0.529255 0.021697 0.973596 0.000000
H275  H     H_    0.501557 0.942586 0.993618 0.000000
H276  H     H_    0.487576 0.953213 0.059284 0.000000
H277  H     H_    0.143819 0.904561 0.030217 0.000000
H278  H     H_    0.037899 0.881868 0.947220 0.000000
H279  H     H_    0.073236 0.905298 0.858279 0.000000
H280  H     H_    0.213108 0.955694 0.850614 0.000000
C253  C     C_3   0.565039 0.024017 0.249557 0.000000
N85   N     N_3   0.566044 0.975087 0.221208 0.000000
C254  C     C_3   0.521831 0.931983 0.245931 0.000000
C255  C     C_R   0.482824 0.894289 0.205794 0.000000
N86   N     N_R   0.412746 0.905379 0.159915 0.000000
C256  C     C_R   0.407186 0.857025 0.138839 0.000000
C257  C     C_R   0.343172 0.843129 0.095236 0.000000
C258  C     C_R   0.354242 0.792804 0.076748 0.000000
C259  C     C_R   0.427683 0.757316 0.102975 0.000000
C260  C     C_R   0.485590 0.769887 0.150460 0.000000
C261  C     C_R   0.471958 0.820105 0.168560 0.000000
N87   N     N_R   0.518810 0.841887 0.212793 0.000000
H281  H     H_    0.620732 0.049129 0.240280 0.000000
H282  H     H_    0.498499 0.047936 0.234720 0.000000
H283  H     H_    0.574793 0.014660 0.293588 0.000000
H284  H     H_    0.633673 0.962384 0.219321 0.000000
H285  H     H_    0.574052 0.906179 0.274540 0.000000
H286  H     H_    0.472693 0.947444 0.268812 0.000000
H287  H     H_    0.284652 0.869869 0.076966 0.000000
H288  H     H_    0.306347 0.781392 0.041343 0.000000
H289  H     H_    0.438763 0.719333 0.086428 0.000000
H290  H     H_    0.541759 0.741683 0.170053 0.000000
C262  C     C_3   0.030739 0.016304 0.764059 0.000000
N88   N     N_3   0.106252 0.052867 0.775177 0.000000
C263  C     C_3   0.111181 0.071491 0.828789 0.000000
C264  C     C_R   0.189454 0.108451 0.840898 0.000000
N89   N     N_R   0.270645 0.088598 0.827749 0.000000
C265  C     C_R   0.276848 0.124918 0.786009 0.000000
C266  C     C_R   0.310082 0.114601 0.740920 0.000000
C267  C     C_R   0.300289 0.154869 0.698917 0.000000
C268  C     C_R   0.250118 0.203100 0.700237 0.000000
C269  C     C_R   0.203845 0.209485 0.741659 0.000000
C270  C     C_R   0.216724 0.169145 0.783354 0.000000
N90   N     N_R   0.164510 0.161962 0.820609 0.000000
H291  H     H_    0.053409 0.975906 0.785504 0.000000
H292  H     H_    0.968236 0.032406 0.777028 0.000000
H293  H     H_    0.012278 0.012058 0.719911 0.000000
H294  H     H_    0.088546 0.086438 0.746872 0.000000
H295  H     H_    0.044785 0.093693 0.828496 0.000000
H296  H     H_    0.122515 0.036288 0.858314 0.000000
H297  H     H_    0.330950 0.074089 0.734728 0.000000
H298  H     H_    0.326933 0.147380 0.663336 0.000000
H299  H     H_    0.239908 0.233517 0.666318 0.000000
H300  H     H_    0.154415 0.243287 0.738598 0.000000
C271  C     C_3   0.870956 0.274802 0.661803 0.000000
N91   N     N_3   0.955396 0.286283 0.699840 0.000000
C272  C     C_3   0.931880 0.326167 0.734847 0.000000
C273  C     C_R   0.019011 0.339147 0.772984 0.000000
N92   N     N_R   0.046299 0.391174 0.782812 0.000000
C274  C     C_R   0.135801 0.380752 0.810815 0.000000
C275  C     C_R   0.201034 0.415749 0.833014 0.000000
C276  C     C_R   0.290974 0.394727 0.855024 0.000000
C277  C     C_R   0.313785 0.339811 0.857075 0.000000
C278  C     C_R   0.246114 0.305046 0.838305 0.000000
C279  C     C_R   0.158457 0.326625 0.816824 0.000000
N93   N     N_R   0.084357 0.298819 0.798770 0.000000
H301  H     H_    0.819368 0.258142 0.683985 0.000000
H302  H     H_    0.840443 0.312294 0.636630 0.000000
H303  H     H_    0.888334 0.244410 0.634927 0.000000
H304  H     H_    0.000832 0.303515 0.677700 0.000000
H305  H     H_    0.900357 0.363382 0.710227 0.000000
H306  H     H_    0.880686 0.309021 0.756638 0.000000
H307  H     H_    0.184872 0.457828 0.834737 0.000000
H308  H     H_    0.344537 0.421055 0.871123 0.000000
H309  H     H_    0.383502 0.323838 0.875484 0.000000
H310  H     H_    0.261648 0.262460 0.838775 0.000000
C280  C     C_3   0.695278 0.377429 0.727829 0.000000
N94   N     N_3   0.769203 0.398585 0.767218 0.000000
C281  C     C_3   0.726625 0.434732 0.798859 0.000000
C282  C     C_R   0.797125 0.463651 0.836768 0.000000
N95   N     N_R   0.887563 0.475048 0.829329 0.000000
C283  C     C_R   0.926178 0.489880 0.878935 0.000000
C284  C     C_R   0.017919 0.499614 0.897697 0.000000
C285  C     C_R   0.044289 0.519032 0.947973 0.000000
C286  C     C_R   0.979901 0.524430 0.980099 0.000000
C287  C     C_R   0.890053 0.508659 0.962991 0.000000
C288  C     C_R   0.864017 0.489916 0.912511 0.000000
N96   N     N_R   0.780552 0.471918 0.888046 0.000000
H311  H     H_    0.725699 0.348203 0.704398 0.000000
H312  H     H_    0.646304 0.356227 0.748911 0.000000
H313  H     H_    0.657116 0.410816 0.699256 0.000000
H314  H     H_    0.811692 0.420206 0.746567 0.000000
H315  H     H_    0.671761 0.462685 0.773814 0.000000
H316  H     H_    0.690803 0.409521 0.824065 0.000000
H317  H     H_    0.068658 0.492101 0.873880 0.000000
H318  H     H_    0.115652 0.528975 0.962646 0.000000
H319  H     H_    0.000624 0.539646 0.019482 0.000000
H320  H     H_    0.842924 0.512951 0.988837 0.000000
C289  C     C_3   0.346535 0.577463 0.943736 0.000000
N97   N     N_3   0.389823 0.581368 0.897198 0.000000
C290  C     C_3   0.400219 0.527884 0.878100 0.000000
C291  C     C_R   0.470082 0.530884 0.843977 0.000000
N98   N     N_R   0.458483 0.569234 0.800668 0.000000
C292  C     C_R   0.546521 0.580342 0.798893 0.000000
C293  C     C_R   0.576395 0.619407 0.766768 0.000000
C294  C     C_R   0.665513 0.636322 0.783680 0.000000
C295  C     C_R   0.721344 0.614766 0.831896 0.000000
C296  C     C_R   0.690235 0.573381 0.861468 0.000000
C297  C     C_R   0.606590 0.552455 0.840366 0.000000
N99   N     N_R   0.562028 0.516265 0.866135 0.000000
H321  H     H_    0.323854 0.618759 0.951730 0.000000
H322  H     H_    0.284675 0.552783 0.935471 0.000000
H323  H     H_    0.398027 0.560071 0.979957 0.000000
H324  H     H_    0.456460 0.595027 0.910402 0.000000
H325  H     H_    0.427607 0.497978 0.912679 0.000000
H326  H     H_    0.332820 0.516127 0.854622 0.000000
H327  H     H_    0.530499 0.639483 0.732013 0.000000
H328  H     H_    0.687431 0.671093 0.762486 0.000000
H329  H     H_    0.786781 0.632252 0.847682 0.000000
H330  H     H_    0.725757 0.562430 0.902541 0.000000
C298  C     C_3   0.304810 0.732660 0.231647 0.000000
N100  N     N_3   0.372972 0.690371 0.259617 0.000000
C299  C     C_3   0.448622 0.714870 0.294969 0.000000
C300  C     C_R   0.538962 0.690614 0.287513 0.000000
N101  N     N_R   0.603010 0.721205 0.267020 0.000000
C301  C     C_R   0.659377 0.682178 0.254149 0.000000
C302  C     C_R   0.734994 0.688725 0.230974 0.000000
C303  C     C_R   0.794923 0.643857 0.232253 0.000000
C304  C     C_R   0.778599 0.594118 0.256833 0.000000
C305  C     C_R   0.698836 0.587645 0.276958 0.000000
C306  C     C_R   0.637731 0.631996 0.272619 0.000000
N102  N     N_R   0.561212 0.635160 0.294052 0.000000
H331  H     H_    0.240794 0.713743 0.211681 0.000000
H332  H     H_    0.286958 0.760157 0.260718 0.000000
H333  H     H_    0.332796 0.755991 0.200302 0.000000
H334  H     H_    0.400486 0.672592 0.229907 0.000000
H335  H     H_    0.446366 0.759196 0.284181 0.000000
H336  H     H_    0.441160 0.707420 0.337370 0.000000
H337  H     H_    0.748898 0.727792 0.213613 0.000000
H338  H     H_    0.856558 0.647966 0.215643 0.000000
H339  H     H_    0.828020 0.559951 0.259709 0.000000
H340  H     H_    0.685703 0.548918 0.295619 0.000000
C307  C     C_3   0.547746 0.623129 0.546962 0.000000
N103  N     N_3   0.465785 0.617850 0.505780 0.000000
C308  C     C_3   0.481913 0.572913 0.475180 0.000000
C309  C     C_R   0.403997 0.576393 0.428823 0.000000
N104  N     N_R   0.314053 0.586199 0.436053 0.000000
C310  C     C_R   0.264797 0.584965 0.384393 0.000000
C311  C     C_R   0.169918 0.593239 0.365550 0.000000
C312  C     C_R   0.134621 0.591518 0.310559 0.000000
C313  C     C_R   0.193709 0.582966 0.275359 0.000000
C314  C     C_R   0.289282 0.576674 0.294480 0.000000
C315  C     C_R   0.323039 0.578086 0.349075 0.000000
N105  N     N_R   0.413079 0.573711 0.375303 0.000000
H341  H     H_    0.570519 0.664994 0.543215 0.000000
H342  H     H_    0.531552 0.612880 0.586944 0.000000
H343  H     H_    0.603378 0.595123 0.541755 0.000000
H344  H     H_    0.454961 0.653229 0.479770 0.000000
H345  H     H_    0.546631 0.575286 0.460513 0.000000
H346  H     H_    0.482810 0.534091 0.500062 0.000000
H347  H     H_    0.124052 0.602350 0.392206 0.000000
H348  H     H_    0.060356 0.597677 0.294723 0.000000
H349  H     H_    0.164848 0.582092 0.232550 0.000000
H350  H     H_    0.335653 0.571025 0.267253 0.000000
C316  C     C_3   0.593479 0.683615 0.424301 0.000000
N106  N     N_3   0.681495 0.655370 0.450746 0.000000
C317  C     C_3   0.713714 0.622708 0.412757 0.000000
C318  C     C_R   0.704173 0.564437 0.426329 0.000000
N107  N     N_R   0.759806 0.534279 0.470024 0.000000
C319  C     C_R   0.728966 0.484179 0.464359 0.000000
C320  C     C_R   0.758651 0.437688 0.497853 0.000000
C321  C     C_R   0.720804 0.389535 0.483026 0.000000
C322  C     C_R   0.658030 0.388382 0.434220 0.000000
C323  C     C_R   0.629642 0.435638 0.401242 0.000000
C324  C     C_R   0.661181 0.484033 0.418644 0.000000
N108  N     N_R   0.640424 0.535018 0.394294 0.000000
H351  H     H_    0.568515 0.709094 0.453067 0.000000
H352  H     H_    0.602385 0.710153 0.389391 0.000000
H353  H     H_    0.541314 0.654346 0.409539 0.000000
H354  H     H_    0.668292 0.628193 0.480723 0.000000
H355  H     H_    0.672370 0.634381 0.373344 0.000000
H356  H     H_    0.785632 0.630099 0.410165 0.000000
H357  H     H_    0.810000 0.437863 0.534571 0.000000
H358  H     H_    0.743314 0.352335 0.508390 0.000000
H359  H     H_    0.633314 0.350040 0.420977 0.000000
H360  H     H_    0.592560 0.432698 0.361268 0.000000

loop_
_geom_bond_atom_site_label_1
_geom_bond_atom_site_label_2
_geom_bond_distance
_geom_bond_site_symmetry_2
_ccdc_geom_bond_type
Zn1   N2    2.115 1_455  S
Zn1   N6    2.122 .      S
Zn1   N9    2.023 .      S
Zn1   N65   2.099 .      S
Zn2   N11   2.163 1_545  S
Zn2   N77   2.199 .      S
Zn2   N84   2.289 1_545  S
Zn2   N89   2.182 .      S
Zn3   N14   2.058 .      S
Zn3   N18   2.186 1_655  S
Zn3   N92   2.106 1_655  S
Zn3   N95   2.245 .      S
Zn4   N20   2.076 .      S
Zn4   N68   2.179 .      S
Zn4   N87   2.024 .      S
Zn4   N101  2.131 .      S
Zn5   N5    2.115 .      S
Zn5   N23   2.045 .      S
Zn5   N29   2.053 .      S
Zn5   N104  2.201 .      S
Zn6   N15   2.033 .      S
Zn6   N27   2.069 .      S
Zn6   N30   2.076 .      S
Zn6   N107  2.033 .      S
Zn7   N8    2.055 .      S
Zn7   N12   2.131 .      S
Zn7   N33   2.172 .      S
Zn7   N36   2.097 .      S
Zn8   N17   2.157 .      S
Zn8   N24   2.078 .      S
Zn8   N35   2.176 .      S
Zn8   N98   2.010 .      S
Zn9   N3    2.106 .      S
Zn9   N21   2.193 .      S
Zn9   N26   2.145 .      S
Zn9   N32   2.227 .      S
Zn10  N39   2.136 .      S
Zn10  N41   2.108 .      S
Zn10  N45   2.066 .      S
Zn10  N48   2.013 .      S
Zn11  N38   2.048 .      S
Zn11  N51   2.189 .      S
Zn11  N54   2.145 .      S
Zn11  N57   2.070 .      S
Zn12  N42   2.157 .      S
Zn12  N56   2.124 .      S
Zn12  N60   2.107 .      S
Zn12  N62   2.094 .      S
Zn13  N44   2.111 1_565  S
Zn13  N66   2.043 1_655  S
Zn13  N69   2.144 .      S
Zn13  N72   2.266 1_655  S
Zn14  N47   2.035 .      S
Zn14  N74   2.135 .      S
Zn14  N78   2.106 .      S
Zn14  N81   2.103 .      S
Zn15  N59   2.106 1_565  S
Zn15  N71   2.264 .      S
Zn15  N83   2.328 .      S
Zn15  N86   2.036 .      S
Zn16  N63   2.079 .      S
Zn16  N80   2.001 1_455  S
Zn16  N90   2.115 .      S
Zn16  N93   2.081 .      S
Zn17  N50   2.231 .      S
Zn17  N75   2.097 .      S
Zn17  N96   2.255 .      S
Zn17  N99   2.019 .      S
Zn18  N53   2.128 .      S
Zn18  N102  2.110 .      S
Zn18  N105  2.162 .      S
Zn18  N108  2.081 .      S
C1    N1    1.452 1_545  S
C1    H1    1.109 .      S
C1    H2    1.104 .      S
C1    H3    1.109 .      S
N1    C1    1.452 1_565  S
N1    C2    1.453 .      S
N1    H4    1.043 .      S
C2    C3    1.478 .      S
C2    H5    1.093 .      S
C2    H6    1.103 .      S
N2    Zn1   2.115 1_655  S
C5    H7    1.062 .      S
C6    H8    1.077 .      S
C7    H9    1.081 .      S
C8    H10   1.076 .      S
C10   N4    1.438 .      S
C10   H11   1.088 .      S
C10   H12   1.092 .      S
C10   H13   1.108 .      S
N4    C11   1.443 .      S
N4    H14   1.025 .      S
C11   C12   1.480 .      S
C11   H15   1.097 .      S
C11   H16   1.092 .      S
C14   H17   1.068 .      S
C15   H18   1.078 .      S
C16   H19   1.081 .      S
C17   H20   1.065 .      S
C19   N7    1.455 .      S
C19   H21   1.106 .      S
C19   H22   1.104 .      S
C19   H23   1.106 .      S
N7    C20   1.453 .      S
N7    H24   1.042 .      S
C20   C21   1.475 .      S
C20   H25   1.071 .      S
C20   H26   1.081 .      S
C23   H27   1.053 .      S
C24   H28   1.078 .      S
C25   H29   1.081 .      S
C26   H30   1.062 .      S
C28   N10   1.454 .      S
C28   H31   1.109 .      S
C28   H32   1.108 .      S
C28   H33   1.108 .      S
N10   C29   1.453 .      S
N10   H34   1.044 .      S
C29   C30   1.487 .      S
C29   H35   1.105 .      S
C29   H36   1.104 .      S
N11   Zn2   2.163 1_565  S
C32   H37   1.070 .      S
C33   H38   1.079 .      S
C34   H39   1.079 .      S
C35   H40   1.068 .      S
C37   N13   1.455 .      S
C37   H41   1.109 .      S
C37   H42   1.106 .      S
C37   H43   1.109 1_455  S
N13   C38   1.453 1_455  S
N13   H44   1.034 1_455  S
C38   N13   1.453 1_655  S
C38   C39   1.498 .      S
C38   H45   1.106 .      S
C38   H46   1.099 1_655  S
C41   H47   1.068 .      S
C42   H48   1.077 .      S
C43   H49   1.075 .      S
C44   H50   1.076 .      S
H43   C37   1.109 1_655  S
H44   N13   1.034 1_655  S
H46   C38   1.099 1_455  S
C46   N16   1.455 .      S
C46   H51   1.103 .      S
C46   H52   1.109 .      S
C46   H53   1.100 .      S
N16   C47   1.438 .      S
N16   H54   1.027 .      S
C47   C48   1.485 .      S
C47   H55   1.105 .      S
C47   H56   1.099 .      S
C50   H57   1.080 .      S
C51   H58   1.081 .      S
C52   H59   1.081 1_455  S
C53   H60   1.077 1_455  S
N18   Zn3   2.186 1_455  S
H59   C52   1.081 1_655  S
H60   C53   1.077 1_655  S
C55   N19   1.461 .      S
C55   H61   1.104 .      S
C55   H62   1.102 .      S
C55   H63   1.101 .      S
N19   C56   1.439 .      S
N19   H64   1.037 .      S
C56   C57   1.481 .      S
C56   H65   1.091 .      S
C56   H66   1.072 .      S
C59   H67   1.077 .      S
C60   H68   1.074 .      S
C61   H69   1.078 .      S
C62   H70   1.067 .      S
C64   N22   1.458 .      S
C64   H71   1.105 .      S
C64   H72   1.103 .      S
C64   H73   1.106 .      S
N22   C65   1.443 .      S
N22   H74   1.030 .      S
C65   C66   1.475 .      S
C65   H75   1.084 .      S
C65   H76   1.086 .      S
C68   H77   1.079 .      S
C69   H78   1.081 .      S
C70   H79   1.079 .      S
C71   H80   1.078 .      S
C73   N25   1.438 .      S
C73   H81   1.103 .      S
C73   H82   1.097 .      S
C73   H83   1.099 .      S
N25   C74   1.447 .      S
N25   H84   1.036 .      S
C74   C75   1.473 .      S
C74   H85   1.093 .      S
C74   H86   1.104 .      S
C77   H87   1.035 .      S
C78   H88   1.057 .      S
C79   H89   1.077 1_655  S
C80   H90   1.066 .      S
H89   C79   1.077 1_455  S
C82   N28   1.442 .      S
C82   H91   1.100 .      S
C82   H92   1.105 .      S
C82   H93   1.101 .      S
N28   C83   1.440 .      S
N28   H94   1.032 1_455  S
C83   C84   1.461 .      S
C83   H95   1.079 .      S
C83   H96   1.094 .      S
C86   H97   1.075 .      S
C87   H98   1.081 .      S
C88   H99   1.081 1_455  S
C89   H100  1.070 .      S
H94   N28   1.032 1_655  S
H99   C88   1.081 1_655  S
C91   N31   1.456 .      S
C91   H101  1.109 1_565  S
C91   H102  1.105 .      S
C91   H103  1.108 1_565  S
N31   C92   1.459 .      S
N31   H104  1.043 .      S
C92   C93   1.492 .      S
C92   H105  1.103 .      S
C92   H106  1.090 .      S
C95   H107  1.077 .      S
C96   H108  1.081 .      S
C97   H109  1.081 .      S
C98   H110  1.079 .      S
H101  C91   1.109 1_545  S
H103  C91   1.108 1_545  S
C100  N34   1.454 .      S
C100  H111  1.109 .      S
C100  H112  1.108 .      S
C100  H113  1.109 .      S
N34   C101  1.456 .      S
N34   H114  1.044 .      S
C101  C102  1.485 .      S
C101  H115  1.108 .      S
C101  H116  1.091 .      S
C104  H117  1.061 .      S
C105  H118  1.081 .      S
C106  H119  1.077 .      S
C107  H120  1.077 .      S
C109  N37   1.454 .      S
C109  H121  1.108 .      S
C109  H122  1.104 .      S
C109  H123  1.103 .      S
N37   C110  1.436 .      S
N37   H124  1.025 .      S
C110  C111  1.481 .      S
C110  H125  1.064 .      S
C110  H126  1.085 .      S
C113  H127  1.078 .      S
C114  H128  1.079 .      S
C115  H129  1.081 .      S
C116  H130  1.077 .      S
C118  N40   1.443 1_655  S
C118  H131  1.104 .      S
C118  H132  1.093 .      S
C118  H133  1.086 .      S
N40   C118  1.443 1_455  S
N40   C119  1.447 1_455  S
N40   H134  1.044 1_455  S
C119  N40   1.447 1_655  S
C119  C120  1.505 1_655  S
C119  H135  1.094 1_655  S
C119  H136  1.044 .      S
C120  C119  1.505 1_455  S
C122  H137  1.064 1_455  S
C123  H138  1.081 .      S
C124  H139  1.077 .      S
C125  H140  1.059 .      S
H134  N40   1.044 1_655  S
H135  C119  1.094 1_455  S
H137  C122  1.064 1_655  S
C127  N43   1.454 .      S
C127  H141  1.106 .      S
C127  H142  1.108 .      S
C127  H143  1.108 .      S
N43   C128  1.456 .      S
N43   H144  1.037 1_455  S
C128  C129  1.476 1_455  S
C128  H145  1.079 .      S
C128  H146  1.074 .      S
C129  C128  1.476 1_655  S
N44   Zn13  2.111 1_545  S
C131  H147  1.068 .      S
C132  H148  1.080 .      S
C133  H149  1.076 .      S
C134  H150  1.073 .      S
H144  N43   1.037 1_655  S
C136  N46   1.466 .      S
C136  H151  1.096 1_554  S
C136  H152  1.108 .      S
C136  H153  1.107 .      S
N46   C137  1.430 .      S
N46   H154  1.033 .      S
C137  C138  1.467 .      S
C137  H155  1.102 .      S
C137  H156  1.095 .      S
C140  H157  1.077 .      S
C141  H158  1.072 1_655  S
C142  H159  1.078 .      S
C143  H160  1.069 .      S
H151  C136  1.096 1_556  S
H158  C141  1.072 1_455  S
C145  N49   1.440 1_556  S
C145  H161  1.103 .      S
C145  H162  1.105 .      S
C145  H163  1.107 1_556  S
N49   C145  1.440 1_554  S
N49   C146  1.450 .      S
N49   H164  1.041 .      S
C146  C147  1.470 .      S
C146  H165  1.106 .      S
C146  H166  1.108 1_554  S
C149  H167  1.077 1_554  S
C150  H168  1.081 .      S
C151  H169  1.076 .      S
C152  H170  1.080 .      S
H163  C145  1.107 1_554  S
H166  C146  1.108 1_556  S
H167  C149  1.077 1_556  S
C154  N52   1.451 .      S
C154  H171  1.109 .      S
C154  H172  1.109 .      S
C154  H173  1.108 .      S
N52   C155  1.452 .      S
N52   H174  1.044 .      S
C155  C156  1.486 .      S
C155  H175  1.106 .      S
C155  H176  1.099 .      S
C158  H177  1.072 .      S
C159  H178  1.081 .      S
C160  H179  1.081 .      S
C161  H180  1.058 .      S
C163  N55   1.447 .      S
C163  H181  1.109 .      S
C163  H182  1.105 .      S
C163  H183  1.105 .      S
N55   C164  1.454 .      S
N55   H184  1.041 .      S
C164  C165  1.507 .      S
C164  H185  1.100 .      S
C164  H186  1.091 .      S
C167  H187  1.073 .      S
C168  H188  1.081 .      S
C169  H189  1.081 .      S
C170  H190  1.078 .      S
C172  N58   1.451 .      S
C172  H191  1.085 1_545  S
C172  H192  1.102 1_545  S
C172  H193  1.072 .      S
N58   C173  1.421 .      S
N58   H194  1.028 .      S
C173  C174  1.409 .      S
C173  H195  1.077 .      S
C173  H196  1.104 .      S
N59   Zn15  2.106 1_545  S
C176  H197  1.066 1_545  S
C177  H198  1.079 .      S
C178  H199  1.066 .      S
C179  H200  1.070 .      S
H191  C172  1.085 1_565  S
H192  C172  1.102 1_565  S
H197  C176  1.066 1_565  S
C181  N61   1.442 .      S
C181  H201  1.100 .      S
C181  H202  1.107 .      S
C181  H203  1.085 1_556  S
N61   C182  1.443 .      S
N61   H204  1.032 .      S
C182  C183  1.470 .      S
C182  H205  1.094 .      S
C182  H206  1.093 1_556  S
C185  H207  1.052 .      S
C186  H208  1.041 .      S
C187  H209  1.080 .      S
C188  H210  1.061 .      S
H203  C181  1.085 1_554  S
H206  C182  1.093 1_554  S
C190  N64   1.454 .      S
C190  H211  1.107 .      S
C190  H212  1.105 .      S
C190  H213  1.104 .      S
N64   C191  1.450 .      S
N64   H214  1.043 .      S
C191  C192  1.476 .      S
C191  H215  1.061 .      S
C191  H216  1.102 .      S
C194  H217  1.073 .      S
C195  H218  1.081 .      S
C196  H219  1.081 .      S
C197  H220  1.066 1_455  S
N66   Zn13  2.043 1_455  S
H220  C197  1.066 1_655  S
C199  N67   1.441 .      S
C199  H221  1.088 .      S
C199  H222  1.100 .      S
C199  H223  1.105 .      S
N67   C200  1.437 .      S
N67   H224  1.029 .      S
C200  C201  1.474 .      S
C200  H225  1.088 .      S
C200  H226  1.078 .      S
C203  H227  1.072 .      S
C204  H228  1.081 .      S
C205  H229  1.081 .      S
C206  H230  1.080 .      S
C208  N70   1.454 .      S
C208  H231  1.109 .      S
C208  H232  1.109 1_455  S
C208  H233  1.109 1_455  S
N70   C209  1.451 .      S
N70   H234  1.041 1_455  S
C209  C210  1.494 .      S
C209  H235  1.105 .      S
C209  H236  1.109 .      S
C212  H237  1.059 .      S
C213  H238  1.078 .      S
C214  H239  1.081 .      S
C215  H240  1.054 .      S
N72   Zn13  2.266 1_455  S
H232  C208  1.109 1_655  S
H233  C208  1.109 1_655  S
H234  N70   1.041 1_655  S
C217  N73   1.451 .      S
C217  H241  1.109 .      S
C217  H242  1.107 .      S
C217  H243  1.084 .      S
N73   C218  1.426 1_554  S
N73   H244  1.028 .      S
C218  N73   1.426 1_556  S
C218  C219  1.480 .      S
C218  H245  1.078 .      S
C218  H246  1.052 .      S
C221  H247  1.080 .      S
C222  H248  1.081 .      S
C223  H249  1.077 .      S
C224  H250  1.077 .      S
C226  N76   1.435 .      S
C226  H251  1.083 .      S
C226  H252  1.102 .      S
C226  H253  1.106 .      S
N76   C227  1.422 .      S
N76   H254  1.040 .      S
C227  C228  1.457 .      S
C227  H255  1.100 .      S
C227  H256  1.099 .      S
C230  H257  1.076 .      S
C231  H258  1.081 .      S
C232  H259  1.081 .      S
C233  H260  1.077 .      S
C235  N79   1.422 .      S
C235  H261  1.085 .      S
C235  H262  1.100 .      S
C235  H263  1.092 .      S
N79   C236  1.395 .      S
N79   H264  1.027 .      S
C236  C237  1.417 .      S
C236  H265  1.080 .      S
C236  H266  1.086 .      S
N80   Zn16  2.001 1_655  S
C239  H267  1.080 .      S
C240  H268  1.081 .      S
C241  H269  1.072 .      S
C242  H270  1.078 .      S
C244  N82   1.454 .      S
C244  H271  1.085 .      S
C244  H272  1.095 .      S
C244  H273  1.105 1_554  S
N82   C245  1.442 1_545  S
N82   H274  1.030 1_554  S
C245  N82   1.442 1_565  S
C245  C246  1.457 1_554  S
C245  H275  1.109 1_554  S
C245  H276  1.095 .      S
C246  C245  1.457 1_556  S
C248  H277  1.073 1_556  S
C249  H278  1.081 .      S
C250  H279  1.080 .      S
C251  H280  1.079 .      S
N84   Zn2   2.289 1_565  S
H273  C244  1.105 1_556  S
H274  N82   1.030 1_556  S
H275  C245  1.109 1_556  S
H277  C248  1.073 1_554  S
C253  N85   1.455 1_545  S
C253  H281  1.100 .      S
C253  H282  1.102 .      S
C253  H283  1.101 .      S
N85   C253  1.455 1_565  S
N85   C254  1.441 .      S
N85   H284  1.042 .      S
C254  C255  1.474 .      S
C254  H285  1.087 .      S
C254  H286  1.092 .      S
C257  H287  1.065 .      S
C258  H288  1.081 .      S
C259  H289  1.078 .      S
C260  H290  1.070 .      S
C262  N88   1.454 .      S
C262  H291  1.106 1_545  S
C262  H292  1.108 1_455  S
C262  H293  1.109 .      S
N88   C263  1.456 .      S
N88   H294  1.043 .      S
C263  C264  1.493 .      S
C263  H295  1.099 .      S
C263  H296  1.089 .      S
C266  H297  1.069 .      S
C267  H298  1.081 .      S
C268  H299  1.081 .      S
C269  H300  1.073 .      S
H291  C262  1.106 1_565  S
H292  C262  1.108 1_655  S
C271  N91   1.454 .      S
C271  H301  1.109 .      S
C271  H302  1.108 .      S
C271  H303  1.109 .      S
N91   C272  1.454 .      S
N91   H304  1.042 1_655  S
C272  C273  1.495 1_655  S
C272  H305  1.101 .      S
C272  H306  1.102 .      S
C273  C272  1.495 1_455  S
N92   Zn3   2.106 1_455  S
C275  H307  1.065 .      S
C276  H308  1.075 .      S
C277  H309  1.078 .      S
C278  H310  1.068 .      S
H304  N91   1.042 1_455  S
C280  N94   1.455 .      S
C280  H311  1.107 .      S
C280  H312  1.108 .      S
C280  H313  1.107 .      S
N94   C281  1.452 .      S
N94   H314  1.035 .      S
C281  C282  1.500 .      S
C281  H315  1.099 .      S
C281  H316  1.087 .      S
C284  H317  1.072 .      S
C285  H318  1.081 .      S
C286  H319  1.081 1_656  S
C287  H320  1.056 .      S
H319  C286  1.081 1_454  S
C289  N97   1.452 .      S
C289  H321  1.109 .      S
C289  H322  1.107 .      S
C289  H323  1.106 .      S
N97   C290  1.456 .      S
N97   H324  1.044 .      S
C290  C291  1.475 .      S
C290  H325  1.100 .      S
C290  H326  1.105 .      S
C293  H327  1.066 .      S
C294  H328  1.076 .      S
C295  H329  1.081 .      S
C296  H330  1.071 .      S
C298  N100  1.452 .      S
C298  H331  1.109 .      S
C298  H332  1.103 .      S
C298  H333  1.105 .      S
N100  C299  1.457 .      S
N100  H334  1.043 .      S
C299  C300  1.489 .      S
C299  H335  1.108 .      S
C299  H336  1.106 .      S
C302  H337  1.077 .      S
C303  H338  1.081 .      S
C304  H339  1.081 .      S
C305  H340  1.079 .      S
C307  N103  1.436 .      S
C307  H341  1.105 .      S
C307  H342  1.102 .      S
C307  H343  1.087 .      S
N103  C308  1.442 .      S
N103  H344  1.042 .      S
C308  C309  1.453 .      S
C308  H345  1.093 .      S
C308  H346  1.107 .      S
C311  H347  1.079 .      S
C312  H348  1.081 .      S
C313  H349  1.081 .      S
C314  H350  1.079 .      S
C316  N106  1.451 .      S
C316  H351  1.108 .      S
C316  H352  1.095 .      S
C316  H353  1.103 .      S
N106  C317  1.443 .      S
N106  H354  1.031 .      S
C317  C318  1.476 .      S
C317  H355  1.067 .      S
C317  H356  1.094 .      S
C320  H357  1.068 .      S
C321  H358  1.081 .      S
C322  H359  1.081 .      S
C323  H360  1.054 .      S
C3    N2    1.370 .      A
C3    N3    1.379 .      A
N2    C4    1.365 .      A
C4    C5    1.372 1_655  A
C4    C9    1.363 .      A
C5    C4    1.372 1_455  A
C5    C6    1.381 .      A
C6    C7    1.380 1_455  A
C7    C6    1.380 1_655  A
C7    C8    1.375 .      A
C8    C9    1.374 .      A
C9    N3    1.330 .      A
C12   N5    1.398 .      A
C12   N6    1.376 .      A
N5    C13   1.339 .      A
C13   C14   1.360 .      A
C13   C18   1.342 .      A
C14   C15   1.372 .      A
C15   C16   1.377 .      A
C16   C17   1.385 .      A
C17   C18   1.367 .      A
C18   N6    1.349 .      A
C21   N8    1.379 .      A
C21   N9    1.363 .      A
N8    C22   1.356 .      A
C22   C23   1.377 .      A
C22   C27   1.358 .      A
C23   C24   1.382 1_565  A
C24   C23   1.382 1_545  A
C24   C25   1.379 .      A
C25   C26   1.375 1_545  A
C26   C25   1.375 1_565  A
C26   C27   1.371 .      A
C27   N9    1.346 .      A
C30   N11   1.395 .      A
C30   N12   1.398 .      A
N11   C31   1.359 .      A
C31   C32   1.375 1_565  A
C31   C36   1.366 .      A
C32   C31   1.375 1_545  A
C32   C33   1.377 .      A
C33   C34   1.383 .      A
C34   C35   1.379 1_545  A
C35   C34   1.379 1_565  A
C35   C36   1.367 .      A
C36   N12   1.340 .      A
C39   N14   1.381 .      A
C39   N15   1.374 .      A
N14   C40   1.352 .      A
C40   C41   1.364 .      A
C40   C45   1.343 .      A
C41   C42   1.384 .      A
C42   C43   1.380 .      A
C43   C44   1.375 .      A
C44   C45   1.362 .      A
C45   N15   1.326 .      A
C48   N17   1.385 .      A
C48   N18   1.408 .      A
N17   C49   1.350 .      A
C49   C50   1.377 .      A
C49   C54   1.369 .      A
C50   C51   1.383 .      A
C51   C52   1.388 .      A
C52   C53   1.384 .      A
C53   C54   1.375 .      A
C54   N18   1.355 .      A
C57   N20   1.372 .      A
C57   N21   1.407 .      A
N20   C58   1.343 .      A
C58   C59   1.364 .      A
C58   C63   1.365 .      A
C59   C60   1.382 .      A
C60   C61   1.382 .      A
C61   C62   1.383 .      A
C62   C63   1.351 .      A
C63   N21   1.341 .      A
C66   N23   1.385 .      A
C66   N24   1.365 .      A
N23   C67   1.342 .      A
C67   C68   1.371 .      A
C67   C72   1.364 .      A
C68   C69   1.383 .      A
C69   C70   1.391 .      A
C70   C71   1.389 .      A
C71   C72   1.373 .      A
C72   N24   1.352 .      A
C75   N26   1.387 .      A
C75   N27   1.398 .      A
N26   C76   1.323 .      A
C76   C77   1.307 .      A
C76   C81   1.334 .      A
C77   C78   1.353 .      A
C78   C79   1.378 .      A
C79   C80   1.368 .      A
C80   C81   1.372 .      A
C81   N27   1.330 .      A
C84   N29   1.367 .      A
C84   N30   1.373 1_455  A
N29   C85   1.350 .      A
C85   C86   1.375 .      A
C85   C90   1.366 .      A
C86   C87   1.384 .      A
C87   C88   1.388 .      A
C88   C89   1.384 1_455  A
C89   C88   1.384 1_655  A
C89   C90   1.373 1_655  A
C90   C89   1.373 1_455  A
C90   N30   1.351 1_455  A
N30   C84   1.373 1_655  A
N30   C90   1.351 1_655  A
C93   N32   1.411 .      A
C93   N33   1.393 .      A
N32   C94   1.358 .      A
C94   C95   1.373 .      A
C94   C99   1.377 .      A
C95   C96   1.384 .      A
C96   C97   1.388 .      A
C97   C98   1.381 .      A
C98   C99   1.371 .      A
C99   N33   1.339 .      A
C102  N35   1.401 .      A
C102  N36   1.379 .      A
N35   C103  1.351 .      A
C103  C104  1.361 .      A
C103  C108  1.361 .      A
C104  C105  1.379 .      A
C105  C106  1.383 .      A
C106  C107  1.387 .      A
C107  C108  1.372 .      A
C108  N36   1.340 .      A
C111  N38   1.363 .      A
C111  N39   1.397 .      A
N38   C112  1.344 .      A
C112  C113  1.372 .      A
C112  C117  1.371 .      A
C113  C114  1.385 .      A
C114  C115  1.390 .      A
C115  C116  1.384 .      A
C116  C117  1.375 .      A
C117  N39   1.355 .      A
C120  N41   1.388 1_455  A
C120  N42   1.402 .      A
N41   C120  1.388 1_655  A
N41   C121  1.342 1_655  A
C121  N41   1.342 1_455  A
C121  C122  1.371 .      A
C121  C126  1.362 .      A
C122  C123  1.378 .      A
C123  C124  1.382 .      A
C124  C125  1.383 .      A
C125  C126  1.370 .      A
C126  N42   1.356 .      A
C129  N44   1.363 .      A
C129  N45   1.381 .      A
N44   C130  1.351 .      A
C130  C131  1.370 .      A
C130  C135  1.373 .      A
C131  C132  1.381 .      A
C132  C133  1.379 .      A
C133  C134  1.381 .      A
C134  C135  1.372 .      A
C135  N45   1.340 .      A
C138  N47   1.369 1_554  A
C138  N48   1.388 .      A
N47   C138  1.369 1_556  A
N47   C139  1.330 1_556  A
C139  N47   1.330 1_554  A
C139  C140  1.345 1_554  A
C139  C144  1.335 .      A
C140  C139  1.345 1_556  A
C140  C141  1.383 1_556  A
C141  C140  1.383 1_554  A
C141  C142  1.368 .      A
C142  C143  1.366 .      A
C143  C144  1.379 .      A
C144  N48   1.334 .      A
C147  N50   1.401 1_554  A
C147  N51   1.395 .      A
N50   C147  1.401 1_556  A
N50   C148  1.352 1_556  A
C148  N50   1.352 1_554  A
C148  C149  1.368 .      A
C148  C153  1.375 .      A
C149  C150  1.383 .      A
C150  C151  1.389 .      A
C151  C152  1.385 .      A
C152  C153  1.371 .      A
C153  N51   1.347 .      A
C156  N53   1.397 .      A
C156  N54   1.388 .      A
N53   C157  1.344 .      A
C157  C158  1.378 .      A
C157  C162  1.365 .      A
C158  C159  1.381 .      A
C159  C160  1.384 .      A
C160  C161  1.382 .      A
C161  C162  1.369 .      A
C162  N54   1.354 .      A
C165  N56   1.391 .      A
C165  N57   1.390 .      A
N56   C166  1.352 .      A
C166  C167  1.370 .      A
C166  C171  1.361 .      A
C167  C168  1.387 .      A
C168  C169  1.388 .      A
C169  C170  1.383 .      A
C170  C171  1.374 .      A
C171  N57   1.340 .      A
C174  N59   1.375 .      A
C174  N60   1.360 .      A
N59   C175  1.335 .      A
C175  C176  1.356 .      A
C175  C180  1.365 .      A
C176  C177  1.370 .      A
C177  C178  1.378 .      A
C178  C179  1.389 .      A
C179  C180  1.356 .      A
C180  N60   1.348 .      A
C183  N62   1.378 1_556  A
C183  N63   1.394 .      A
N62   C183  1.378 1_554  A
N62   C184  1.328 1_554  A
C184  N62   1.328 1_556  A
C184  C185  1.338 1_556  A
C184  C189  1.337 .      A
C185  C184  1.338 1_554  A
C185  C186  1.357 1_554  A
C186  C185  1.357 1_556  A
C186  C187  1.371 .      A
C187  C188  1.363 .      A
C188  C189  1.366 .      A
C189  N63   1.336 .      A
C192  N65   1.384 .      A
C192  N66   1.358 .      A
N65   C193  1.349 .      A
C193  C194  1.374 .      A
C193  C198  1.358 .      A
C194  C195  1.381 1_565  A
C195  C194  1.381 1_545  A
C195  C196  1.382 .      A
C196  C197  1.380 .      A
C197  C198  1.376 1_545  A
C198  C197  1.376 1_565  A
C198  N66   1.348 .      A
C201  N68   1.400 .      A
C201  N69   1.390 .      A
N68   C202  1.352 .      A
C202  C203  1.371 .      A
C202  C207  1.375 .      A
C203  C204  1.385 .      A
C204  C205  1.389 .      A
C205  C206  1.384 .      A
C206  C207  1.369 .      A
C207  N69   1.344 .      A
C210  N71   1.414 .      A
C210  N72   1.416 .      A
N71   C211  1.353 .      A
C211  C212  1.364 .      A
C211  C216  1.359 .      A
C212  C213  1.381 1_565  A
C213  C212  1.381 1_545  A
C213  C214  1.372 .      A
C214  C215  1.374 .      A
C215  C216  1.378 1_545  A
C216  C215  1.378 1_565  A
C216  N72   1.357 .      A
C219  N74   1.404 .      A
C219  N75   1.366 .      A
N74   C220  1.347 .      A
C220  C221  1.373 .      A
C220  C225  1.373 .      A
C221  C222  1.383 .      A
C222  C223  1.390 .      A
C223  C224  1.386 .      A
C224  C225  1.370 .      A
C225  N75   1.348 .      A
C228  N77   1.404 .      A
C228  N78   1.372 .      A
N77   C229  1.357 .      A
C229  C230  1.377 1_545  A
C229  C234  1.371 .      A
C230  C229  1.377 1_565  A
C230  C231  1.384 .      A
C231  C232  1.388 1_565  A
C232  C231  1.388 1_545  A
C232  C233  1.384 .      A
C233  C234  1.376 .      A
C234  N78   1.348 .      A
C237  N80   1.356 .      A
C237  N81   1.360 .      A
N80   C238  1.334 .      A
C238  C239  1.367 .      A
C238  C243  1.372 .      A
C239  C240  1.377 .      A
C240  C241  1.388 .      A
C241  C242  1.393 .      A
C242  C243  1.373 .      A
C243  N81   1.361 .      A
C246  N83   1.412 1_556  A
C246  N84   1.400 .      A
N83   C246  1.412 1_554  A
N83   C247  1.363 1_554  A
C247  N83   1.363 1_556  A
C247  C248  1.375 .      A
C247  C252  1.392 .      A
C248  C249  1.383 .      A
C249  C250  1.388 .      A
C250  C251  1.385 .      A
C251  C252  1.370 .      A
C252  N84   1.353 .      A
C255  N86   1.384 .      A
C255  N87   1.366 .      A
N86   C256  1.345 .      A
C256  C257  1.367 .      A
C256  C261  1.355 .      A
C257  C258  1.379 .      A
C258  C259  1.384 .      A
C259  C260  1.384 .      A
C260  C261  1.378 .      A
C261  N87   1.348 .      A
C264  N89   1.386 .      A
C264  N90   1.390 .      A
N89   C265  1.356 .      A
C265  C266  1.370 .      A
C265  C270  1.368 .      A
C266  C267  1.383 .      A
C267  C268  1.385 .      A
C268  C269  1.380 .      A
C269  C270  1.376 .      A
C270  N90   1.342 .      A
C273  N92   1.388 .      A
C273  N93   1.382 .      A
N92   C274  1.361 .      A
C274  C275  1.377 .      A
C274  C279  1.357 .      A
C275  C276  1.386 .      A
C276  C277  1.382 .      A
C277  C278  1.373 .      A
C278  C279  1.360 .      A
C279  N93   1.328 .      A
C282  N95   1.417 .      A
C282  N96   1.400 .      A
N95   C283  1.350 .      A
C283  C284  1.369 1_655  A
C283  C288  1.373 .      A
C284  C283  1.369 1_455  A
C284  C285  1.380 .      A
C285  C286  1.380 1_455  A
C286  C285  1.380 1_655  A
C286  C287  1.381 .      A
C287  C288  1.377 .      A
C288  N96   1.361 .      A
C291  N98   1.374 .      A
C291  N99   1.372 .      A
N98   C292  1.342 .      A
C292  C293  1.362 .      A
C292  C297  1.347 .      A
C293  C294  1.381 .      A
C294  C295  1.378 .      A
C295  C296  1.373 .      A
C296  C297  1.371 .      A
C297  N99   1.340 .      A
C300  N101  1.389 .      A
C300  N102  1.388 .      A
N101  C301  1.350 .      A
C301  C302  1.371 .      A
C301  C306  1.367 .      A
C302  C303  1.384 .      A
C303  C304  1.390 .      A
C304  C305  1.383 .      A
C305  C306  1.373 .      A
C306  N102  1.349 .      A
C309  N104  1.386 .      A
C309  N105  1.397 .      A
N104  C310  1.360 .      A
C310  C311  1.377 .      A
C310  C315  1.377 .      A
C311  C312  1.386 .      A
C312  C313  1.391 .      A
C313  C314  1.384 .      A
C314  C315  1.372 .      A
C315  N105  1.346 .      A
C318  N107  1.378 .      A
C318  N108  1.374 .      A
N107  C319  1.344 .      A
C319  C320  1.376 .      A
C319  C324  1.360 .      A
C320  C321  1.379 .      A
C321  C322  1.382 .      A
C322  C323  1.382 .      A
C323  C324  1.371 .      A
C324  N108  1.357 .      A
