data_str_m1_o12004_SSY
_audit_creation_date              2015-10-01T06:33:30-0700
_symmetry_space_group_name_H-M    P1
_symmetry_Int_Tables_number       1
_space_group_crystal_system       triclinic
loop_
_symmetry_equiv_pos_as_xyz
  x,y,z
_cell_length_a                    10.2998719
_cell_length_b                    27.6281421
_cell_length_c                    44.9987939
_cell_angle_alpha                 86.9151803
_cell_angle_beta                  89.6824177
_cell_angle_gamma                 88.7442283
_cell_volume                      12783.3932416

loop_
_atom_site_label
_atom_site_type_symbol
_atom_site_description
_atom_site_fract_x
_atom_site_fract_y
_atom_site_fract_z
_atom_type_partial_charge
Zn1   Zn    Zn3+2 0.859541 0.313404 0.997456 0.000000
Zn2   Zn    Zn3+2 0.829976 0.100157 0.034943 0.000000
Zn3   Zn    Zn3+2 0.328103 0.865984 0.081885 0.000000
Zn4   Zn    Zn3+2 0.377987 0.619213 0.979501 0.000000
Zn5   Zn    Zn3+2 0.336412 0.076217 0.109281 0.000000
Zn6   Zn    Zn3+2 0.357762 0.408135 0.939266 0.000000
Zn7   Zn    Zn3+2 0.872269 0.712430 0.923371 0.000000
Zn8   Zn    Zn3+2 0.380716 0.654748 0.117959 0.000000
Zn9   Zn    Zn3+2 0.827523 0.890829 0.006202 0.000000
Zn10  Zn    Zn3+2 0.403646 0.070777 0.507819 0.000000
Zn11  Zn    Zn3+2 0.351633 0.856713 0.528146 0.000000
Zn12  Zn    Zn3+2 0.905816 0.100069 0.582080 0.000000
Zn13  Zn    Zn3+2 0.843005 0.307243 0.625661 0.000000
Zn14  Zn    Zn3+2 0.393495 0.260971 0.437505 0.000000
Zn15  Zn    Zn3+2 0.400806 0.649626 0.482877 0.000000
Zn16  Zn    Zn3+2 0.855814 0.892457 0.598198 0.000000
Zn17  Zn    Zn3+2 0.378567 0.346024 0.306731 0.000000
Zn18  Zn    Zn3+2 0.879354 0.351395 0.488640 0.000000
Zn19  Zn    Zn3+2 0.871854 0.695745 0.664232 0.000000
Zn20  Zn    Zn3+2 0.346487 0.392821 0.684250 0.000000
Zn21  Zn    Zn3+2 0.905101 0.558984 0.434985 0.000000
Zn22  Zn    Zn3+2 0.386575 0.597939 0.617333 0.000000
Zn23  Zn    Zn3+2 0.390179 0.249174 0.184525 0.000000
Zn24  Zn    Zn3+2 0.880835 0.474987 0.305605 0.000000
Zn25  Zn    Zn3+2 0.837245 0.620283 0.796998 0.000000
Zn26  Zn    Zn3+2 0.343681 0.489167 0.805360 0.000000
Zn27  Zn    Zn3+2 0.891259 0.343244 0.133191 0.000000
Zn28  Zn    Zn3+2 0.885230 0.553785 0.174790 0.000000
C1    C     C_3   0.619474 0.216549 0.085035 0.000000
N1    N     N_3   0.673276 0.193083 0.059505 0.000000
C2    C     C_3   0.797673 0.214871 0.052804 0.000000
C3    C     C_R   0.832492 0.206491 0.021322 0.000000
N2    N     N_R   0.834591 0.161069 0.010958 0.000000
C4    C     C_R   0.829677 0.168959 0.981250 0.000000
C5    C     C_R   0.825992 0.135518 0.959794 0.000000
C6    C     C_R   0.822298 0.153034 0.930346 0.000000
C7    C     C_R   0.823043 0.202694 0.923116 0.000000
C8    C     C_R   0.826571 0.235647 0.945239 0.000000
C9    C     C_R   0.827708 0.217381 0.974184 0.000000
N3    N     N_R   0.836371 0.242200 0.999033 0.000000
H1    H     H_    0.525292 0.200152 0.091359 0.000000
H2    H     H_    0.688412 0.212116 0.103873 0.000000
H3    H     H_    0.603683 0.255678 0.079288 0.000000
H4    H     H_    0.611917 0.201340 0.041488 0.000000
H5    H     H_    0.788432 0.254359 0.055864 0.000000
H6    H     H_    0.870255 0.196699 0.068004 0.000000
H7    H     H_    0.826408 0.097021 0.965411 0.000000
H8    H     H_    0.819602 0.127864 0.912791 0.000000
H9    H     H_    0.821225 0.215649 0.900019 0.000000
H10   H     H_    0.828179 0.274246 0.939888 0.000000
C10   C     C_3   0.519629 0.012937 0.997864 0.000000
N4    N     N_3   0.577245 0.970979 0.013813 0.000000
C11   C     C_3   0.676336 0.988560 0.033061 0.000000
C12   C     C_R   0.794123 0.997398 0.014868 0.000000
N5    N     N_R   0.849465 0.962591 0.998108 0.000000
C13   C     C_R   0.936069 0.987628 0.981109 0.000000
C14   C     C_R   0.029446 0.969628 0.962471 0.000000
C15   C     C_R   0.116970 0.001991 0.949628 0.000000
C16   C     C_R   0.113894 0.050446 0.956639 0.000000
C17   C     C_R   0.025254 0.067072 0.977222 0.000000
C18   C     C_R   0.936748 0.034756 0.988896 0.000000
N6    N     N_R   0.848804 0.041898 0.010555 0.000000
H11   H     H_    0.441876 0.001210 0.983072 0.000000
H12   H     H_    0.478248 0.037514 0.014094 0.000000
H13   H     H_    0.595251 0.031967 0.984376 0.000000
H14   H     H_    0.625811 0.951539 0.997741 0.000000
H15   H     H_    0.642589 0.022841 0.042265 0.000000
H16   H     H_    0.696632 0.961320 0.051376 0.000000
H17   H     H_    0.036904 0.931610 0.958150 0.000000
H18   H     H_    0.189981 0.989265 0.934380 0.000000
H19   H     H_    0.183326 0.074998 0.946386 0.000000
H20   H     H_    0.025668 0.104141 0.983781 0.000000
C19   C     C_3   0.982167 0.960301 0.046244 0.000000
N7    N     N_3   0.060184 0.960295 0.018998 0.000000
C20   C     C_3   0.140377 0.916459 0.018350 0.000000
C21   C     C_R   0.085007 0.880452 0.039431 0.000000
N8    N     N_R   0.145780 0.862699 0.064965 0.000000
C22   C     C_R   0.049868 0.838421 0.079285 0.000000
C23   C     C_R   0.052875 0.816080 0.107283 0.000000
C24   C     C_R   0.942035 0.792674 0.117280 0.000000
C25   C     C_R   0.831400 0.792852 0.099630 0.000000
C26   C     C_R   0.828800 0.817467 0.071921 0.000000
C27   C     C_R   0.939889 0.840095 0.062445 0.000000
N9    N     N_R   0.959412 0.866596 0.036923 0.000000
H21   H     H_    0.893419 0.939344 0.044142 0.000000
H22   H     H_    0.036861 0.944177 0.065432 0.000000
H23   H     H_    0.946944 0.997498 0.050348 0.000000
H24   H     H_    0.118491 0.990533 0.017206 0.000000
H25   H     H_    0.139004 0.902481 0.995789 0.000000
H26   H     H_    0.241785 0.922966 0.024164 0.000000
H27   H     H_    0.139805 0.815186 0.120570 0.000000
H28   H     H_    0.941936 0.773590 0.138879 0.000000
H29   H     H_    0.747176 0.773371 0.107694 0.000000
H30   H     H_    0.743523 0.818334 0.058049 0.000000
C28   C     C_3   0.718380 0.858630 0.126833 0.000000
N10   N     N_3   0.655411 0.846238 0.099559 0.000000
C29   C     C_3   0.663089 0.888109 0.078918 0.000000
C30   C     C_R   0.593893 0.878574 0.050943 0.000000
N11   N     N_R   0.651814 0.881563 0.023424 0.000000
C31   C     C_R   0.552699 0.876106 0.004900 0.000000
C32   C     C_R   0.553749 0.883962 0.974629 0.000000
C33   C     C_R   0.437862 0.878689 0.959804 0.000000
C34   C     C_R   0.328339 0.862645 0.975343 0.000000
C35   C     C_R   0.330184 0.856328 0.006120 0.000000
C36   C     C_R   0.442096 0.867037 0.020419 0.000000
N12   N     N_R   0.463625 0.869409 0.049826 0.000000
H31   H     H_    0.705320 0.828993 0.144137 0.000000
H32   H     H_    0.823486 0.863721 0.122578 0.000000
H33   H     H_    0.675065 0.892798 0.134643 0.000000
H34   H     H_    0.557402 0.840982 0.104233 0.000000
H35   H     H_    0.616721 0.919788 0.089180 0.000000
H36   H     H_    0.766489 0.895639 0.074025 0.000000
H37   H     H_    0.640277 0.896690 0.963232 0.000000
H38   H     H_    0.432281 0.887161 0.936094 0.000000
H39   H     H_    0.240176 0.856243 0.963375 0.000000
H40   H     H_    0.247767 0.842771 0.018297 0.000000
C37   C     C_3   0.336748 0.186688 0.026802 0.000000
N13   N     N_3   0.273451 0.166045 0.053527 0.000000
C38   C     C_3   0.141602 0.152302 0.046376 0.000000
C39   C     C_R   0.088299 0.115300 0.068821 0.000000
N14   N     N_R   0.152813 0.093210 0.093062 0.000000
C40   C     C_R   0.063523 0.062533 0.104418 0.000000
C41   C     C_R   0.077357 0.030627 0.128253 0.000000
C42   C     C_R   0.979073 0.998205 0.134587 0.000000
C43   C     C_R   0.871050 0.997755 0.116226 0.000000
C44   C     C_R   0.859545 0.030675 0.092029 0.000000
C45   C     C_R   0.956132 0.063672 0.087517 0.000000
N15   N     N_R   0.967322 0.096772 0.065017 0.000000
H41   H     H_    0.374642 0.222725 0.031421 0.000000
H42   H     H_    0.422668 0.164535 0.020964 0.000000
H43   H     H_    0.269129 0.189989 0.007682 0.000000
H44   H     H_    0.264255 0.195045 0.067332 0.000000
H45   H     H_    0.076273 0.184554 0.046034 0.000000
H46   H     H_    0.137267 0.138156 0.023779 0.000000
H47   H     H_    0.161302 0.032625 0.141599 0.000000
H48   H     H_    0.987341 0.972669 0.153578 0.000000
H49   H     H_    0.796091 0.971569 0.120800 0.000000
H50   H     H_    0.778319 0.030273 0.077060 0.000000
C46   C     C_3   0.678768 0.104344 0.158909 0.000000
N16   N     N_3   0.601574 0.111419 0.132102 0.000000
C47   C     C_3   0.669026 0.085470 0.109286 0.000000
C48   C     C_R   0.599182 0.092944 0.080493 0.000000
N17   N     N_R   0.467321 0.090689 0.078085 0.000000
C49   C     C_R   0.447771 0.095820 0.048421 0.000000
C50   C     C_R   0.335659 0.092024 0.032518 0.000000
C51   C     C_R   0.340817 0.098918 0.001794 0.000000
C52   C     C_R   0.458102 0.108172 0.987413 0.000000
C53   C     C_R   0.571338 0.109234 0.003737 0.000000
C54   C     C_R   0.561984 0.102514 0.034119 0.000000
N18   N     N_R   0.659884 0.099491 0.053508 0.000000
H51   H     H_    0.630605 0.123063 0.177233 0.000000
H52   H     H_    0.688452 0.065038 0.165096 0.000000
H53   H     H_    0.776522 0.119463 0.154844 0.000000
H54   H     H_    0.602307 0.148260 0.125742 0.000000
H55   H     H_    0.768841 0.099376 0.106761 0.000000
H56   H     H_    0.671768 0.046346 0.116246 0.000000
H57   H     H_    0.247286 0.082447 0.043061 0.000000
H58   H     H_    0.253039 0.096647 0.988992 0.000000
H59   H     H_    0.461338 0.113352 0.963440 0.000000
H60   H     H_    0.663919 0.115150 0.992996 0.000000
C55   C     C_3   0.200958 0.009395 0.068258 0.000000
N19   N     N_3   0.287305 0.984822 0.048661 0.000000
C56   C     C_3   0.406601 0.981102 0.065312 0.000000
C57   C     C_R   0.372404 0.969273 0.096882 0.000000
N20   N     N_R   0.350791 0.002739 0.118081 0.000000
C58   C     C_R   0.317249 0.974448 0.142415 0.000000
C59   C     C_R   0.286768 0.987285 0.170958 0.000000
C60   C     C_R   0.248999 0.951057 0.191488 0.000000
C61   C     C_R   0.240602 0.903350 0.183517 0.000000
C62   C     C_R   0.270413 0.891081 0.154847 0.000000
C63   C     C_R   0.310658 0.927258 0.135030 0.000000
N21   N     N_R   0.341920 0.923314 0.106234 0.000000
H61   H     H_    0.165170 0.984764 0.086556 0.000000
H62   H     H_    0.263772 0.034486 0.078073 0.000000
H63   H     H_    0.121208 0.028896 0.056216 0.000000
H64   H     H_    0.304313 0.008452 0.030296 0.000000
H65   H     H_    0.469962 0.951975 0.056755 0.000000
H66   H     H_    0.457054 0.015951 0.063281 0.000000
H67   H     H_    0.285654 0.024303 0.177425 0.000000
H68   H     H_    0.223525 0.960185 0.213873 0.000000
H69   H     H_    0.209746 0.875692 0.199783 0.000000
H70   H     H_    0.264086 0.854124 0.148474 0.000000
C64   C     C_3   0.102196 0.490477 0.950356 0.000000
N22   N     N_3   0.029538 0.447207 0.958205 0.000000
C65   C     C_3   0.092423 0.420402 0.982901 0.000000
C66   C     C_R   0.116292 0.370854 0.973537 0.000000
N23   N     N_R   0.040386 0.330269 0.978482 0.000000
C67   C     C_R   0.109209 0.296683 0.963513 0.000000
C68   C     C_R   0.095404 0.247268 0.963694 0.000000
C69   C     C_R   0.176960 0.220908 0.945668 0.000000
C70   C     C_R   0.271333 0.243710 0.928133 0.000000
C71   C     C_R   0.290579 0.292783 0.929940 0.000000
C72   C     C_R   0.211185 0.317401 0.948735 0.000000
N24   N     N_R   0.219438 0.363822 0.955076 0.000000
H71   H     H_    0.146802 0.505140 0.970262 0.000000
H72   H     H_    0.177846 0.482027 0.933691 0.000000
H73   H     H_    0.034090 0.518125 0.940463 0.000000
H74   H     H_    0.033217 0.425488 0.939922 0.000000
H75   H     H_    0.188923 0.434662 0.985883 0.000000
H76   H     H_    0.044324 0.424422 0.004799 0.000000
H77   H     H_    0.033482 0.228256 0.979134 0.000000
H78   H     H_    0.167932 0.182014 0.945512 0.000000
H79   H     H_    0.332772 0.222746 0.913850 0.000000
H80   H     H_    0.364171 0.311391 0.916761 0.000000
C73   C     C_3   0.470234 0.301389 0.017500 0.000000
N25   N     N_3   0.417957 0.294252 0.988297 0.000000
C74   C     C_3   0.526171 0.288878 0.968034 0.000000
C75   C     C_R   0.590582 0.336153 0.962134 0.000000
N26   N     N_R   0.532971 0.377924 0.949200 0.000000
C76   C     C_R   0.629335 0.409870 0.949806 0.000000
C77   C     C_R   0.620444 0.459501 0.945421 0.000000
C78   C     C_R   0.722130 0.486044 0.955155 0.000000
C79   C     C_R   0.821690 0.462861 0.971461 0.000000
C80   C     C_R   0.831203 0.413299 0.973733 0.000000
C81   C     C_R   0.736702 0.388255 0.962003 0.000000
N27   N     N_R   0.715606 0.342763 0.971123 0.000000
H81   H     H_    0.388158 0.303118 0.033412 0.000000
H82   H     H_    0.537145 0.270931 0.024251 0.000000
H83   H     H_    0.524208 0.335703 0.016988 0.000000
H84   H     H_    0.369959 0.326360 0.981702 0.000000
H85   H     H_    0.597733 0.262409 0.978149 0.000000
H86   H     H_    0.492581 0.274703 0.946964 0.000000
H87   H     H_    0.535172 0.478605 0.937173 0.000000
H88   H     H_    0.716833 0.525004 0.951929 0.000000
H89   H     H_    0.886918 0.482202 0.984439 0.000000
H90   H     H_    0.894030 0.392562 0.988521 0.000000
C82   C     C_3   0.500989 0.582429 0.888436 0.000000
N28   N     N_3   0.497518 0.555846 0.917103 0.000000
C83   C     C_3   0.368192 0.536790 0.921611 0.000000
C84   C     C_R   0.357417 0.518129 0.952978 0.000000
N29   N     N_R   0.355194 0.469645 0.961349 0.000000
C85   C     C_R   0.374927 0.469239 0.990903 0.000000
C86   C     C_R   0.388752 0.429473 0.010331 0.000000
C87   C     C_R   0.406247 0.437509 0.040153 0.000000
C88   C     C_R   0.406662 0.484260 0.049789 0.000000
C89   C     C_R   0.405333 0.523464 0.029445 0.000000
C90   C     C_R   0.383911 0.515102 0.999960 0.000000
N30   N     N_R   0.372916 0.547233 0.976389 0.000000
H91   H     H_    0.586461 0.606195 0.887555 0.000000
H92   H     H_    0.509320 0.556476 0.870613 0.000000
H93   H     H_    0.411249 0.604888 0.885213 0.000000
H94   H     H_    0.512533 0.580393 0.933515 0.000000
H95   H     H_    0.294336 0.566013 0.917374 0.000000
H96   H     H_    0.353223 0.507021 0.906494 0.000000
H97   H     H_    0.386017 0.393281 0.002637 0.000000
H98   H     H_    0.424510 0.407725 0.056134 0.000000
H99   H     H_    0.417261 0.490053 0.073150 0.000000
H100  H     H_    0.427782 0.558130 0.037261 0.000000
C91   C     C_3   0.554811 0.806619 0.930000 0.000000
N31   N     N_3   0.596905 0.766773 0.950257 0.000000
C92   C     C_3   0.538235 0.723920 0.939616 0.000000
C93   C     C_R   0.609590 0.679555 0.950670 0.000000
N32   N     N_R   0.737853 0.670983 0.944168 0.000000
C94   C     C_R   0.759320 0.626064 0.956355 0.000000
C95   C     C_R   0.871658 0.598934 0.956891 0.000000
C96   C     C_R   0.881987 0.562206 0.978632 0.000000
C97   C     C_R   0.774051 0.548618 0.995856 0.000000
C98   C     C_R   0.654311 0.570286 0.990099 0.000000
C99   C     C_R   0.651457 0.609948 0.970691 0.000000
N33   N     N_R   0.552537 0.641528 0.966296 0.000000
H101  H     H_    0.604192 0.839913 0.935547 0.000000
H102  H     H_    0.580872 0.799191 0.906782 0.000000
H103  H     H_    0.447899 0.811172 0.931678 0.000000
H104  H     H_    0.554465 0.772980 0.970841 0.000000
H105  H     H_    0.435100 0.722797 0.946767 0.000000
H106  H     H_    0.548051 0.725689 0.915365 0.000000
H107  H     H_    0.955701 0.610107 0.944386 0.000000
H108  H     H_    0.977140 0.546133 0.982399 0.000000
H109  H     H_    0.780066 0.520492 0.013305 0.000000
H110  H     H_    0.569231 0.559382 0.002560 0.000000
C100  C     C_3   0.094528 0.734623 0.986601 0.000000
N34   N     N_3   0.083404 0.688258 0.003602 0.000000
C101  C     C_3   0.039248 0.653494 0.983408 0.000000
C102  C     C_R   0.109571 0.659994 0.955311 0.000000
N35   N     N_R   0.053470 0.684099 0.931104 0.000000
C103  C     C_R   0.155355 0.691958 0.912905 0.000000
C104  C     C_R   0.159533 0.722568 0.887980 0.000000
C105  C     C_R   0.280257 0.732597 0.875835 0.000000
C106  C     C_R   0.389160 0.706432 0.885786 0.000000
C107  C     C_R   0.382364 0.674641 0.910640 0.000000
C108  C     C_R   0.265202 0.671148 0.925054 0.000000
N36   N     N_R   0.240139 0.650832 0.952327 0.000000
H111  H     H_    0.045283 0.764245 0.997805 0.000000
H112  H     H_    0.198331 0.742820 0.982667 0.000000
H113  H     H_    0.042905 0.734732 0.965415 0.000000
H114  H     H_    0.009603 0.691451 0.019364 0.000000
H115  H     H_    0.044640 0.616477 0.992718 0.000000
H116  H     H_    0.938338 0.660577 0.979185 0.000000
H117  H     H_    0.072934 0.739950 0.879073 0.000000
H118  H     H_    0.290698 0.760582 0.858271 0.000000
H119  H     H_    0.479841 0.711584 0.873925 0.000000
H120  H     H_    0.466536 0.654580 0.918852 0.000000
C109  C     C_3   0.744384 0.697317 0.005011 0.000000
N37   N     N_3   0.847707 0.725943 0.992436 0.000000
C110  C     C_3   0.812069 0.775612 0.995832 0.000000
C111  C     C_R   0.838683 0.803249 0.967611 0.000000
N38   N     N_R   0.864131 0.784949 0.939672 0.000000
C112  C     C_R   0.887702 0.826530 0.923269 0.000000
C113  C     C_R   0.932993 0.832024 0.894542 0.000000
C114  C     C_R   0.946109 0.878667 0.882115 0.000000
C115  C     C_R   0.914745 0.918734 0.898352 0.000000
C116  C     C_R   0.876716 0.912759 0.927829 0.000000
C117  C     C_R   0.869916 0.866259 0.940007 0.000000
N39   N     N_R   0.843674 0.852444 0.968412 0.000000
H121  H     H_    0.759252 0.658624 0.000633 0.000000
H122  H     H_    0.743858 0.699871 0.029355 0.000000
H123  H     H_    0.654101 0.710903 0.993965 0.000000
H124  H     H_    0.840145 0.722508 0.969760 0.000000
H125  H     H_    0.708476 0.780156 0.001847 0.000000
H126  H     H_    0.868599 0.790453 0.013966 0.000000
H127  H     H_    0.959589 0.801464 0.881960 0.000000
H128  H     H_    0.979663 0.883945 0.859391 0.000000
H129  H     H_    0.922115 0.954812 0.888020 0.000000
H130  H     H_    0.849908 0.943628 0.940502 0.000000
C118  C     C_3   0.084158 0.763158 0.046360 0.000000
N40   N     N_3   0.133868 0.762477 0.075965 0.000000
C119  C     C_3   0.269979 0.751712 0.072338 0.000000
C120  C     C_R   0.333609 0.761002 0.100178 0.000000
N41   N     N_R   0.361319 0.806602 0.107578 0.000000
C121  C     C_R   0.419728 0.799315 0.134186 0.000000
C122  C     C_R   0.476508 0.832817 0.151122 0.000000
C123  C     C_R   0.537561 0.815782 0.177132 0.000000
C124  C     C_R   0.542638 0.766385 0.185233 0.000000
C125  C     C_R   0.487084 0.733150 0.167406 0.000000
C126  C     C_R   0.425276 0.750983 0.142087 0.000000
N42   N     N_R   0.370927 0.725747 0.120839 0.000000
H131  H     H_    0.088590 0.800331 0.036285 0.000000
H132  H     H_    0.151309 0.739868 0.034129 0.000000
H133  H     H_    0.983462 0.750286 0.046830 0.000000
H134  H     H_    0.093809 0.733438 0.088277 0.000000
H135  H     H_    0.284059 0.713512 0.067247 0.000000
H136  H     H_    0.309637 0.775738 0.054107 0.000000
H137  H     H_    0.475817 0.870914 0.144312 0.000000
H138  H     H_    0.583180 0.841062 0.191100 0.000000
H139  H     H_    0.591862 0.753791 0.205444 0.000000
H140  H     H_    0.492659 0.694676 0.173185 0.000000
C127  C     C_3   0.545908 0.765006 0.048215 0.000000
N43   N     N_3   0.467462 0.729609 0.034176 0.000000
C128  C     C_3   0.517939 0.680584 0.041094 0.000000
C129  C     C_R   0.409187 0.648958 0.046556 0.000000
N44   N     N_R   0.351802 0.638940 0.073888 0.000000
C130  C     C_R   0.249404 0.613040 0.065951 0.000000
C131  C     C_R   0.142560 0.601260 0.082275 0.000000
C132  C     C_R   0.043002 0.578488 0.068368 0.000000
C133  C     C_R   0.058483 0.564216 0.039367 0.000000
C134  C     C_R   0.170032 0.575016 0.023764 0.000000
C135  C     C_R   0.252923 0.605086 0.036580 0.000000
N45   N     N_R   0.349908 0.628625 0.023202 0.000000
H141  H     H_    0.549804 0.798410 0.033600 0.000000
H142  H     H_    0.503855 0.773775 0.069985 0.000000
H143  H     H_    0.645191 0.751233 0.051861 0.000000
H144  H     H_    0.472223 0.736437 0.011180 0.000000
H145  H     H_    0.563146 0.664745 0.021700 0.000000
H146  H     H_    0.585303 0.677905 0.059689 0.000000
H147  H     H_    0.131648 0.614911 0.103601 0.000000
H148  H     H_    0.952458 0.572639 0.079988 0.000000
H149  H     H_    0.981684 0.546936 0.028218 0.000000
H150  H     H_    0.185877 0.564009 0.001286 0.000000
C136  C     C_3   0.139628 0.996595 0.532467 0.000000
N46   N     N_3   0.213268 0.972115 0.556372 0.000000
C137  C     C_3   0.350251 0.973494 0.549097 0.000000
C138  C     C_R   0.379281 0.963766 0.517672 0.000000
N47   N     N_R   0.372294 0.919537 0.505524 0.000000
C139  C     C_R   0.382295 0.930529 0.476189 0.000000
C140  C     C_R   0.367566 0.899810 0.453558 0.000000
C141  C     C_R   0.362698 0.920198 0.424807 0.000000
C142  C     C_R   0.366612 0.970238 0.419592 0.000000
C143  C     C_R   0.380086 0.000612 0.442881 0.000000
C144  C     C_R   0.394915 0.979428 0.471136 0.000000
N48   N     N_R   0.400842 0.001043 0.497371 0.000000
H151  H     H_    0.078405 0.971832 0.521944 0.000000
H152  H     H_    0.074155 0.024022 0.541556 0.000000
H153  H     H_    0.203700 0.010761 0.514705 0.000000
H154  H     H_    0.182154 0.937421 0.561537 0.000000
H155  H     H_    0.371910 0.011683 0.551025 0.000000
H156  H     H_    0.406844 0.947528 0.563685 0.000000
H157  H     H_    0.356769 0.861266 0.458045 0.000000
H158  H     H_    0.350259 0.897236 0.406370 0.000000
H159  H     H_    0.355863 0.985715 0.397139 0.000000
H160  H     H_    0.371985 0.039367 0.438559 0.000000
C145  C     C_3   0.328097 0.024874 0.625263 0.000000
N49   N     N_3   0.268861 0.026443 0.595840 0.000000
C146  C     C_3   0.231839 0.076737 0.589108 0.000000
C147  C     C_R   0.181770 0.086189 0.558091 0.000000
N50   N     N_R   0.247754 0.081235 0.531554 0.000000
C148  C     C_R   0.155285 0.088450 0.511380 0.000000
C149  C     C_R   0.164012 0.076198 0.482433 0.000000
C150  C     C_R   0.056577 0.085081 0.465013 0.000000
C151  C     C_R   0.947215 0.106465 0.477108 0.000000
C152  C     C_R   0.937686 0.112431 0.507900 0.000000
C153  C     C_R   0.043176 0.100645 0.524223 0.000000
N51   N     N_R   0.054466 0.099194 0.553866 0.000000
H161  H     H_    0.307121 0.989957 0.637333 0.000000
H162  H     H_    0.434261 0.029340 0.623969 0.000000
H163  H     H_    0.290375 0.055327 0.637919 0.000000
H164  H     H_    0.182153 0.007776 0.598470 0.000000
H165  H     H_    0.149858 0.086153 0.603591 0.000000
H166  H     H_    0.311463 0.099420 0.595111 0.000000
H167  H     H_    0.249533 0.058669 0.473945 0.000000
H168  H     H_    0.060500 0.078527 0.441553 0.000000
H169  H     H_    0.877169 0.120224 0.461089 0.000000
H170  H     H_    0.858596 0.125693 0.520998 0.000000
C154  C     C_3   0.673799 0.120452 0.478669 0.000000
N52   N     N_3   0.703339 0.068211 0.481593 0.000000
C155  C     C_3   0.737358 0.049930 0.511708 0.000000
C156  C     C_R   0.678171 0.081067 0.534428 0.000000
N53   N     N_R   0.737479 0.098923 0.559131 0.000000
C157  C     C_R   0.639374 0.123345 0.571809 0.000000
C158  C     C_R   0.636408 0.141839 0.599561 0.000000
C159  C     C_R   0.522358 0.163818 0.608703 0.000000
C160  C     C_R   0.415921 0.167628 0.590007 0.000000
C161  C     C_R   0.418488 0.145411 0.563152 0.000000
C162  C     C_R   0.530456 0.121837 0.555293 0.000000
N54   N     N_R   0.549034 0.092411 0.532800 0.000000
H171  H     H_    0.679291 0.134330 0.455116 0.000000
H172  H     H_    0.581299 0.129470 0.489304 0.000000
H173  H     H_    0.741496 0.142334 0.489480 0.000000
H174  H     H_    0.775533 0.057799 0.466760 0.000000
H175  H     H_    0.693061 0.013938 0.514926 0.000000
H176  H     H_    0.842954 0.043270 0.513957 0.000000
H177  H     H_    0.714847 0.135982 0.615013 0.000000
H178  H     H_    0.515455 0.177276 0.630772 0.000000
H179  H     H_    0.326035 0.183342 0.597858 0.000000
H180  H     H_    0.331951 0.143956 0.550227 0.000000
C163  C     C_3   0.033193 0.188444 0.493976 0.000000
N55   N     N_3   0.126795 0.157139 0.479886 0.000000
C164  C     C_3   0.249513 0.178584 0.485251 0.000000
C165  C     C_R   0.351645 0.159311 0.466792 0.000000
N56   N     N_R   0.399800 0.113163 0.469987 0.000000
C166  C     C_R   0.482503 0.110777 0.446779 0.000000
C167  C     C_R   0.566053 0.073142 0.440150 0.000000
C168  C     C_R   0.655712 0.081713 0.417492 0.000000
C169  C     C_R   0.664344 0.127328 0.402984 0.000000
C170  C     C_R   0.582174 0.165122 0.410560 0.000000
C171  C     C_R   0.489813 0.155407 0.432027 0.000000
N57   N     N_R   0.407848 0.187243 0.444432 0.000000
H181  H     H_    0.938641 0.184450 0.483590 0.000000
H182  H     H_    0.035221 0.180832 0.518391 0.000000
H183  H     H_    0.057634 0.226787 0.489879 0.000000
H184  H     H_    0.111291 0.161949 0.456989 0.000000
H185  H     H_    0.241471 0.214134 0.474993 0.000000
H186  H     H_    0.272691 0.175904 0.509182 0.000000
H187  H     H_    0.564063 0.038092 0.452037 0.000000
H188  H     H_    0.722297 0.052968 0.411584 0.000000
H189  H     H_    0.737961 0.133605 0.386083 0.000000
H190  H     H_    0.593514 0.201229 0.400555 0.000000
C172  C     C_3   0.759627 0.778365 0.525219 0.000000
N58   N     N_3   0.625093 0.764081 0.528254 0.000000
C173  C     C_3   0.572274 0.760892 0.498611 0.000000
C174  C     C_R   0.428026 0.756510 0.499586 0.000000
N59   N     N_R   0.370226 0.720353 0.485126 0.000000
C175  C     C_R   0.253398 0.739159 0.477864 0.000000
C176  C     C_R   0.166237 0.722660 0.457820 0.000000
C177  C     C_R   0.049225 0.747092 0.454017 0.000000
C178  C     C_R   0.020190 0.785763 0.471130 0.000000
C179  C     C_R   0.111811 0.802325 0.490187 0.000000
C180  C     C_R   0.233799 0.781394 0.491043 0.000000
N60   N     N_R   0.343747 0.794737 0.504820 0.000000
H191  H     H_    0.777734 0.807849 0.540213 0.000000
H192  H     H_    0.825064 0.746919 0.530792 0.000000
H193  H     H_    0.780553 0.791561 0.502171 0.000000
H194  H     H_    0.574445 0.791350 0.538789 0.000000
H195  H     H_    0.596073 0.792906 0.483961 0.000000
H196  H     H_    0.617954 0.729730 0.487641 0.000000
H197  H     H_    0.190518 0.694977 0.443018 0.000000
H198  H     H_    0.979609 0.735431 0.438146 0.000000
H199  H     H_    0.926126 0.803586 0.469261 0.000000
H200  H     H_    0.081073 0.827139 0.505501 0.000000
C181  C     C_3   0.231380 0.909532 0.615400 0.000000
N61   N     N_3   0.267801 0.859620 0.610815 0.000000
C182  C     C_3   0.155662 0.835896 0.599509 0.000000
C183  C     C_R   0.110190 0.860586 0.571277 0.000000
N62   N     N_R   0.991523 0.882985 0.569373 0.000000
C184  C     C_R   0.989504 0.903738 0.541940 0.000000
C185  C     C_R   0.895873 0.933733 0.529663 0.000000
C186  C     C_R   0.904958 0.946500 0.499510 0.000000
C187  C     C_R   0.012900 0.931393 0.483351 0.000000
C188  C     C_R   0.113925 0.905363 0.497505 0.000000
C189  C     C_R   0.099597 0.892938 0.527416 0.000000
N63   N     N_R   0.180094 0.865794 0.545341 0.000000
H201  H     H_    0.128927 0.916486 0.608728 0.000000
H202  H     H_    0.246198 0.915929 0.639189 0.000000
H203  H     H_    0.295523 0.934052 0.602257 0.000000
H204  H     H_    0.282166 0.844054 0.632190 0.000000
H205  H     H_    0.175647 0.797049 0.596385 0.000000
H206  H     H_    0.077977 0.838014 0.616254 0.000000
H207  H     H_    0.820352 0.946280 0.543688 0.000000
H208  H     H_    0.829718 0.968764 0.488662 0.000000
H209  H     H_    0.019411 0.940923 0.459782 0.000000
H210  H     H_    0.195673 0.892384 0.484957 0.000000
C190  C     C_3   0.637724 0.882064 0.473440 0.000000
N64   N     N_3   0.567500 0.883891 0.501472 0.000000
C191  C     C_3   0.656743 0.898721 0.523773 0.000000
C192  C     C_R   0.609476 0.882603 0.554031 0.000000
N65   N     N_R   0.495161 0.858550 0.557414 0.000000
C193  C     C_R   0.493787 0.844858 0.586362 0.000000
C194  C     C_R   0.427794 0.807147 0.599644 0.000000
C195  C     C_R   0.453470 0.795493 0.629387 0.000000
C196  C     C_R   0.539963 0.822154 0.645080 0.000000
C197  C     C_R   0.617104 0.855539 0.630071 0.000000
C198  C     C_R   0.596367 0.863592 0.600220 0.000000
N66   N     N_R   0.677187 0.885020 0.580401 0.000000
H211  H     H_    0.572435 0.869526 0.456073 0.000000
H212  H     H_    0.672368 0.918762 0.466656 0.000000
H213  H     H_    0.721973 0.856567 0.475821 0.000000
H214  H     H_    0.536555 0.849470 0.507911 0.000000
H215  H     H_    0.751218 0.880572 0.519777 0.000000
H216  H     H_    0.657445 0.938634 0.521403 0.000000
H217  H     H_    0.367033 0.785119 0.586706 0.000000
H218  H     H_    0.403080 0.766539 0.640733 0.000000
H219  H     H_    0.553238 0.814660 0.668664 0.000000
H220  H     H_    0.688453 0.875392 0.641520 0.000000
C199  C     C_3   0.564916 0.241192 0.569401 0.000000
N67   N     N_3   0.675650 0.245467 0.588784 0.000000
C200  C     C_3   0.789774 0.223486 0.575440 0.000000
C201  C     C_R   0.879441 0.208217 0.599681 0.000000
N68   N     N_R   0.894692 0.237257 0.623024 0.000000
C202  C     C_R   0.929264 0.205763 0.645481 0.000000
C203  C     C_R   0.933307 0.214990 0.675115 0.000000
C204  C     C_R   0.937889 0.175580 0.695461 0.000000
C205  C     C_R   0.928582 0.128733 0.685905 0.000000
C206  C     C_R   0.920892 0.120644 0.655848 0.000000
C207  C     C_R   0.931681 0.159701 0.635939 0.000000
N69   N     N_R   0.909485 0.160245 0.606444 0.000000
H221  H     H_    0.565250 0.271052 0.552319 0.000000
H222  H     H_    0.565078 0.205479 0.559363 0.000000
H223  H     H_    0.474874 0.245262 0.582334 0.000000
H224  H     H_    0.656622 0.225835 0.608636 0.000000
H225  H     H_    0.764101 0.190728 0.563920 0.000000
H226  H     H_    0.835643 0.250910 0.560577 0.000000
H227  H     H_    0.927826 0.251649 0.682373 0.000000
H228  H     H_    0.940306 0.181390 0.719015 0.000000
H229  H     H_    0.922239 0.098551 0.702122 0.000000
H230  H     H_    0.898350 0.085255 0.648403 0.000000
C208  C     C_3   0.542279 0.025936 0.577721 0.000000
N70   N     N_3   0.662462 0.039280 0.590207 0.000000
C209  C     C_3   0.752120 0.004730 0.578210 0.000000
C210  C     C_R   0.859900 0.999481 0.598291 0.000000
N71   N     N_R   0.923222 0.038417 0.607479 0.000000
C211  C     C_R   0.996600 0.018889 0.630182 0.000000
C212  C     C_R   0.082790 0.040716 0.648381 0.000000
C213  C     C_R   0.149605 0.011439 0.669363 0.000000
C214  C     C_R   0.134139 0.961544 0.671193 0.000000
C215  C     C_R   0.048981 0.940102 0.652498 0.000000
C216  C     C_R   0.978730 0.969887 0.632922 0.000000
N72   N     N_R   0.892419 0.956860 0.612699 0.000000
H231  H     H_    0.468777 0.055176 0.580004 0.000000
H232  H     H_    0.563754 0.018616 0.554183 0.000000
H233  H     H_    0.510701 0.991974 0.589397 0.000000
H234  H     H_    0.656594 0.031580 0.613143 0.000000
H235  H     H_    0.703691 0.969413 0.577360 0.000000
H236  H     H_    0.788431 0.018417 0.556582 0.000000
H237  H     H_    0.100248 0.079062 0.647372 0.000000
H238  H     H_    0.217221 0.027537 0.684028 0.000000
H239  H     H_    0.190750 0.939225 0.687012 0.000000
H240  H     H_    0.043097 0.901129 0.652589 0.000000
C217  C     C_3   0.185810 0.368432 0.599982 0.000000
N73   N     N_3   0.050969 0.373047 0.591759 0.000000
C218  C     C_3   0.033427 0.338218 0.569397 0.000000
C219  C     C_R   0.894553 0.339542 0.561350 0.000000
N74   N     N_R   0.806897 0.332059 0.583779 0.000000
C220  C     C_R   0.692439 0.339250 0.570113 0.000000
C221  C     C_R   0.571107 0.333826 0.582147 0.000000
C222  C     C_R   0.466914 0.341814 0.563114 0.000000
C223  C     C_R   0.485276 0.357311 0.533521 0.000000
C224  C     C_R   0.609240 0.360149 0.521601 0.000000
C225  C     C_R   0.711109 0.350013 0.540543 0.000000
N75   N     N_R   0.838345 0.348635 0.533615 0.000000
H241  H     H_    0.198626 0.382502 0.622061 0.000000
H242  H     H_    0.214556 0.329665 0.600785 0.000000
H243  H     H_    0.244312 0.389073 0.583271 0.000000
H244  H     H_    0.036084 0.407612 0.581644 0.000000
H245  H     H_    0.103871 0.345802 0.551570 0.000000
H246  H     H_    0.053789 0.301921 0.579831 0.000000
H247  H     H_    0.557364 0.322422 0.605287 0.000000
H248  H     H_    0.370725 0.334478 0.571012 0.000000
H249  H     H_    0.402125 0.363877 0.519197 0.000000
H250  H     H_    0.624867 0.369705 0.498276 0.000000
C226  C     C_3   0.755218 0.395975 0.707711 0.000000
N76   N     N_3   0.783135 0.392909 0.676242 0.000000
C227  C     C_3   0.661089 0.399987 0.660418 0.000000
C228  C     C_R   0.602314 0.353051 0.657909 0.000000
N77   N     N_R   0.673774 0.312974 0.650343 0.000000
C229  C     C_R   0.603399 0.276424 0.662731 0.000000
C230  C     C_R   0.632244 0.227639 0.663580 0.000000
C231  C     C_R   0.547390 0.196555 0.678521 0.000000
C232  C     C_R   0.436158 0.214433 0.692120 0.000000
C233  C     C_R   0.408473 0.263738 0.691186 0.000000
C234  C     C_R   0.494009 0.294171 0.676195 0.000000
N78   N     N_R   0.488541 0.343042 0.672760 0.000000
H251  H     H_    0.838149 0.380166 0.720806 0.000000
H252  H     H_    0.740712 0.434463 0.712814 0.000000
H253  H     H_    0.666572 0.375411 0.713577 0.000000
H254  H     H_    0.814699 0.357299 0.673412 0.000000
H255  H     H_    0.594551 0.419253 0.674240 0.000000
H256  H     H_    0.668460 0.420292 0.638808 0.000000
H257  H     H_    0.718627 0.213637 0.653414 0.000000
H258  H     H_    0.567806 0.157956 0.679578 0.000000
H259  H     H_    0.370281 0.189580 0.703400 0.000000
H260  H     H_    0.319418 0.277340 0.700810 0.000000
C235  C     C_3   0.355464 0.253108 0.630364 0.000000
N79   N     N_3   0.310863 0.290917 0.649169 0.000000
C236  C     C_3   0.173089 0.284974 0.653792 0.000000
C237  C     C_R   0.110167 0.333032 0.656431 0.000000
N80   N     N_R   0.166267 0.371437 0.669879 0.000000
C238  C     C_R   0.073241 0.405914 0.666347 0.000000
C239  C     C_R   0.057969 0.446819 0.681723 0.000000
C240  C     C_R   0.952446 0.477078 0.674239 0.000000
C241  C     C_R   0.873104 0.467217 0.650375 0.000000
C242  C     C_R   0.888682 0.424038 0.636325 0.000000
C243  C     C_R   0.978153 0.391697 0.648317 0.000000
N81   N     N_R   0.992094 0.344544 0.643342 0.000000
H261  H     H_    0.462352 0.254838 0.628153 0.000000
H262  H     H_    0.329267 0.217364 0.640820 0.000000
H263  H     H_    0.307998 0.258474 0.608367 0.000000
H264  H     H_    0.328692 0.324612 0.638610 0.000000
H265  H     H_    0.130865 0.267422 0.634591 0.000000
H266  H     H_    0.155577 0.261928 0.674284 0.000000
H267  H     H_    0.122988 0.453735 0.699623 0.000000
H268  H     H_    0.933545 0.509234 0.686393 0.000000
H269  H     H_    0.795618 0.492296 0.643772 0.000000
H270  H     H_    0.835505 0.415395 0.616733 0.000000
C244  C     C_3   0.597569 0.189907 0.333830 0.000000
N82   N     N_3   0.556143 0.235755 0.345460 0.000000
C245  C     C_3   0.423598 0.230188 0.355983 0.000000
C246  C     C_R   0.372436 0.277322 0.366460 0.000000
N83   N     N_R   0.362524 0.285947 0.396228 0.000000
C247  C     C_R   0.343405 0.334042 0.396079 0.000000
C248  C     C_R   0.342927 0.362256 0.420301 0.000000
C249  C     C_R   0.328485 0.411673 0.415295 0.000000
C250  C     C_R   0.327173 0.431838 0.386461 0.000000
C251  C     C_R   0.335706 0.402800 0.362413 0.000000
C252  C     C_R   0.340777 0.353535 0.368016 0.000000
N84   N     N_R   0.360185 0.319071 0.348406 0.000000
H271  H     H_    0.698969 0.192597 0.325592 0.000000
H272  H     H_    0.592249 0.160826 0.351738 0.000000
H273  H     H_    0.533180 0.181245 0.315262 0.000000
H274  H     H_    0.554526 0.261664 0.327693 0.000000
H275  H     H_    0.364322 0.217008 0.337907 0.000000
H276  H     H_    0.421326 0.202556 0.374730 0.000000
H277  H     H_    0.360070 0.347397 0.442496 0.000000
H278  H     H_    0.325671 0.434860 0.433908 0.000000
H279  H     H_    0.325582 0.470547 0.382908 0.000000
H280  H     H_    0.342456 0.418808 0.340276 0.000000
C253  C     C_3   0.965565 0.249075 0.437323 0.000000
N85   N     N_3   0.965521 0.294533 0.419762 0.000000
C254  C     C_3   0.090572 0.316429 0.423578 0.000000
C255  C     C_R   0.131343 0.311017 0.455276 0.000000
N86   N     N_R   0.050347 0.318821 0.479089 0.000000
C256  C     C_R   0.118167 0.299451 0.502209 0.000000
C257  C     C_R   0.063681 0.280336 0.527885 0.000000
C258  C     C_R   0.139512 0.251582 0.547188 0.000000
C259  C     C_R   0.266972 0.241822 0.539902 0.000000
C260  C     C_R   0.313022 0.255132 0.511993 0.000000
C261  C     C_R   0.237609 0.284518 0.493355 0.000000
N87   N     N_R   0.248369 0.289763 0.463413 0.000000
H281  H     H_    0.913118 0.221695 0.425152 0.000000
H282  H     H_    0.067167 0.236466 0.441276 0.000000
H283  H     H_    0.915156 0.254738 0.458713 0.000000
H284  H     H_    0.958522 0.286538 0.397420 0.000000
H285  H     H_    0.161212 0.296725 0.410085 0.000000
H286  H     H_    0.088337 0.355047 0.415568 0.000000
H287  H     H_    0.961657 0.283622 0.531073 0.000000
H288  H     H_    0.097933 0.233238 0.566722 0.000000
H289  H     H_    0.325340 0.218677 0.554522 0.000000
H290  H     H_    0.393100 0.235441 0.503711 0.000000
C262  C     C_3   0.755976 0.218291 0.511361 0.000000
N88   N     N_3   0.709698 0.266485 0.516753 0.000000
C263  C     C_3   0.597043 0.272753 0.497915 0.000000
C264  C     C_R   0.628639 0.299573 0.470100 0.000000
N89   N     N_R   0.737291 0.326446 0.465363 0.000000
C265  C     C_R   0.739391 0.334594 0.435860 0.000000
C266  C     C_R   0.831059 0.359290 0.419518 0.000000
C267  C     C_R   0.827167 0.356715 0.388945 0.000000
C268  C     C_R   0.732199 0.329785 0.375957 0.000000
C269  C     C_R   0.636333 0.307595 0.393207 0.000000
C270  C     C_R   0.639796 0.312097 0.423352 0.000000
N90   N     N_R   0.564062 0.291080 0.444695 0.000000
H291  H     H_    0.851420 0.211981 0.521884 0.000000
H292  H     H_    0.685612 0.191687 0.520714 0.000000
H293  H     H_    0.763862 0.216488 0.486893 0.000000
H294  H     H_    0.780756 0.288864 0.507813 0.000000
H295  H     H_    0.572657 0.236520 0.490756 0.000000
H296  H     H_    0.516099 0.291396 0.508864 0.000000
H297  H     H_    0.906872 0.377636 0.430595 0.000000
H298  H     H_    0.900469 0.374401 0.375286 0.000000
H299  H     H_    0.733906 0.325582 0.352203 0.000000
H300  H     H_    0.569714 0.284137 0.383439 0.000000
C271  C     C_3   0.876584 0.658751 0.493448 0.000000
N91   N     N_3   0.953413 0.614026 0.495494 0.000000
C272  C     C_3   0.088127 0.627526 0.492271 0.000000
C273  C     C_R   0.145163 0.610695 0.463723 0.000000
N92   N     N_R   0.074329 0.594337 0.440382 0.000000
C274  C     C_R   0.148648 0.606770 0.416752 0.000000
C275  C     C_R   0.107649 0.611512 0.387777 0.000000
C276  C     C_R   0.184330 0.637488 0.367614 0.000000
C277  C     C_R   0.298500 0.657825 0.376810 0.000000
C278  C     C_R   0.341359 0.650519 0.405976 0.000000
C279  C     C_R   0.263290 0.624928 0.425727 0.000000
N93   N     N_R   0.266974 0.624619 0.455708 0.000000
H301  H     H_    0.895573 0.678395 0.471769 0.000000
H302  H     H_    0.771960 0.650616 0.495364 0.000000
H303  H     H_    0.903562 0.681670 0.511810 0.000000
H304  H     H_    0.930326 0.594065 0.477386 0.000000
H305  H     H_    0.093977 0.667509 0.492128 0.000000
H306  H     H_    0.145154 0.612364 0.511603 0.000000
H307  H     H_    0.013046 0.599388 0.381550 0.000000
H308  H     H_    0.152121 0.644009 0.344900 0.000000
H309  H     H_    0.352136 0.680819 0.361115 0.000000
H310  H     H_    0.427230 0.667854 0.413354 0.000000
C280  C     C_3   0.708308 0.486211 0.514962 0.000000
N94   N     N_3   0.677229 0.515130 0.487966 0.000000
C281  C     C_3   0.675637 0.565345 0.495465 0.000000
C282  C     C_R   0.664031 0.598442 0.468362 0.000000
N95   N     N_R   0.762417 0.602844 0.447927 0.000000
C283  C     C_R   0.739318 0.646842 0.434470 0.000000
C284  C     C_R   0.810138 0.669846 0.412239 0.000000
C285  C     C_R   0.764538 0.714764 0.401121 0.000000
C286  C     C_R   0.650350 0.735113 0.412145 0.000000
C287  C     C_R   0.579866 0.710747 0.434367 0.000000
C288  C     C_R   0.627289 0.666356 0.444935 0.000000
N96   N     N_R   0.575407 0.636247 0.466003 0.000000
H311  H     H_    0.702674 0.447179 0.510627 0.000000
H312  H     H_    0.807978 0.494269 0.522164 0.000000
H313  H     H_    0.638137 0.495110 0.532736 0.000000
H314  H     H_    0.582852 0.507449 0.482174 0.000000
H315  H     H_    0.594897 0.572394 0.511004 0.000000
H316  H     H_    0.768588 0.572692 0.506299 0.000000
H317  H     H_    0.898511 0.653771 0.403839 0.000000
H318  H     H_    0.818039 0.734163 0.383697 0.000000
H319  H     H_    0.616121 0.770162 0.403202 0.000000
H320  H     H_    0.490715 0.726074 0.442942 0.000000
C289  C     C_3   0.581359 0.674589 0.540610 0.000000
N97   N     N_3   0.509170 0.691394 0.565978 0.000000
C290  C     C_3   0.375198 0.681265 0.559860 0.000000
C291  C     C_R   0.370203 0.630115 0.552011 0.000000
N98   N     N_R   0.381002 0.615647 0.523387 0.000000
C292  C     C_R   0.390699 0.567109 0.527285 0.000000
C293  C     C_R   0.404982 0.534274 0.505670 0.000000
C294  C     C_R   0.423956 0.485959 0.514952 0.000000
C295  C     C_R   0.433518 0.472252 0.545121 0.000000
C296  C     C_R   0.419766 0.506286 0.566534 0.000000
C297  C     C_R   0.393067 0.553425 0.556838 0.000000
N99   N     N_R   0.378824 0.592626 0.573145 0.000000
H321  H     H_    0.682209 0.687727 0.540775 0.000000
H322  H     H_    0.583074 0.634530 0.541029 0.000000
H323  H     H_    0.529430 0.687219 0.520178 0.000000
H324  H     H_    0.516401 0.728942 0.566050 0.000000
H325  H     H_    0.314440 0.687089 0.579829 0.000000
H326  H     H_    0.340336 0.705245 0.540871 0.000000
H327  H     H_    0.399639 0.545736 0.482339 0.000000
H328  H     H_    0.433372 0.458684 0.498675 0.000000
H329  H     H_    0.453044 0.434682 0.551907 0.000000
H330  H     H_    0.434318 0.496035 0.589798 0.000000
C298  C     C_3   0.670314 0.754906 0.610270 0.000000
N100  N     N_3   0.788854 0.735609 0.597890 0.000000
C299  C     C_3   0.889551 0.771213 0.598941 0.000000
C300  C     C_R   0.888543 0.792901 0.628216 0.000000
N101  N     N_R   0.876356 0.841707 0.630550 0.000000
C301  C     C_R   0.876714 0.846894 0.660006 0.000000
C302  C     C_R   0.854101 0.888701 0.674553 0.000000
C303  C     C_R   0.855183 0.885320 0.705307 0.000000
C304  C     C_R   0.874812 0.840660 0.720507 0.000000
C305  C     C_R   0.889695 0.798561 0.705311 0.000000
C306  C     C_R   0.890333 0.802757 0.674739 0.000000
N102  N     N_R   0.894230 0.767268 0.655146 0.000000
H331  H     H_    0.687225 0.765659 0.633253 0.000000
H332  H     H_    0.638223 0.785691 0.595613 0.000000
H333  H     H_    0.594903 0.726903 0.610719 0.000000
H334  H     H_    0.771562 0.729201 0.575677 0.000000
H335  H     H_    0.985983 0.754143 0.594927 0.000000
H336  H     H_    0.872108 0.800510 0.581642 0.000000
H337  H     H_    0.838024 0.923126 0.662412 0.000000
H338  H     H_    0.841061 0.917594 0.717597 0.000000
H339  H     H_    0.877516 0.838763 0.744484 0.000000
H340  H     H_    0.903966 0.764341 0.717470 0.000000
C307  C     C_3   0.339473 0.421474 0.215702 0.000000
N103  N     N_3   0.312000 0.372142 0.225235 0.000000
C308  C     C_3   0.433236 0.348523 0.233798 0.000000
C309  C     C_R   0.400743 0.300374 0.246259 0.000000
N104  N     N_R   0.358273 0.295872 0.275122 0.000000
C310  C     C_R   0.296734 0.253344 0.276028 0.000000
C311  C     C_R   0.222725 0.233446 0.298790 0.000000
C312  C     C_R   0.163948 0.189829 0.294273 0.000000
C313  C     C_R   0.176102 0.168245 0.267117 0.000000
C314  C     C_R   0.243918 0.190661 0.243696 0.000000
C315  C     C_R   0.304493 0.233135 0.248924 0.000000
N105  N     N_R   0.368768 0.262312 0.229176 0.000000
H341  H     H_    0.289876 0.431525 0.194363 0.000000
H342  H     H_    0.300316 0.446137 0.231942 0.000000
H343  H     H_    0.445987 0.424146 0.215172 0.000000
H344  H     H_    0.274254 0.354023 0.207751 0.000000
H345  H     H_    0.500011 0.346186 0.214638 0.000000
H346  H     H_    0.475585 0.368867 0.251788 0.000000
H347  H     H_    0.206145 0.251961 0.319018 0.000000
H348  H     H_    0.105934 0.172842 0.311829 0.000000
H349  H     H_    0.128778 0.134346 0.264012 0.000000
H350  H     H_    0.247696 0.175367 0.222087 0.000000
C316  C     C_3   0.966025 0.283313 0.322553 0.000000
N106  N     N_3   0.072126 0.315253 0.314527 0.000000
C317  C     C_3   0.045879 0.360942 0.327960 0.000000
C318  C     C_R   0.113371 0.400381 0.310804 0.000000
N107  N     N_R   0.239809 0.396929 0.301374 0.000000
C319  C     C_R   0.261232 0.441280 0.288827 0.000000
C320  C     C_R   0.373869 0.458433 0.276457 0.000000
C321  C     C_R   0.374849 0.506405 0.265809 0.000000
C322  C     C_R   0.264256 0.535860 0.267887 0.000000
C323  C     C_R   0.151246 0.517597 0.280485 0.000000
C324  C     C_R   0.153004 0.469764 0.290550 0.000000
N108  N     N_R   0.056188 0.444666 0.303647 0.000000
H351  H     H_    0.985083 0.247381 0.313362 0.000000
H352  H     H_    0.958143 0.278989 0.347138 0.000000
H353  H     H_    0.873798 0.298970 0.313306 0.000000
H354  H     H_    0.071685 0.321710 0.291510 0.000000
H355  H     H_    0.939964 0.368996 0.327842 0.000000
H356  H     H_    0.082063 0.358518 0.351166 0.000000
H357  H     H_    0.459024 0.435544 0.275582 0.000000
H358  H     H_    0.462737 0.521253 0.256178 0.000000
H359  H     H_    0.266867 0.573407 0.259841 0.000000
H360  H     H_    0.066447 0.540680 0.282870 0.000000
C325  C     C_3   0.666795 0.427967 0.369334 0.000000
N109  N     N_3   0.538168 0.442376 0.358982 0.000000
C326  C     C_3   0.551328 0.458586 0.328165 0.000000
C327  C     C_R   0.613064 0.420240 0.310832 0.000000
N110  N     N_R   0.741301 0.423442 0.302530 0.000000
C328  C     C_R   0.762988 0.381411 0.289509 0.000000
C329  C     C_R   0.876125 0.365639 0.277114 0.000000
C330  C     C_R   0.876437 0.321314 0.264071 0.000000
C331  C     C_R   0.766074 0.293187 0.265060 0.000000
C332  C     C_R   0.653340 0.309461 0.278451 0.000000
C333  C     C_R   0.654117 0.354396 0.290020 0.000000
N111  N     N_R   0.555771 0.377707 0.303336 0.000000
H361  H     H_    0.725487 0.460893 0.370804 0.000000
H362  H     H_    0.657838 0.408462 0.391327 0.000000
H363  H     H_    0.714816 0.403917 0.353583 0.000000
H364  H     H_    0.515933 0.474033 0.369662 0.000000
H365  H     H_    0.457597 0.472575 0.319464 0.000000
H366  H     H_    0.619105 0.488467 0.327208 0.000000
H367  H     H_    0.960504 0.387516 0.277922 0.000000
H368  H     H_    0.962649 0.308176 0.253136 0.000000
H369  H     H_    0.768153 0.258206 0.255424 0.000000
H370  H     H_    0.569026 0.287156 0.279747 0.000000
C334  C     C_3   0.544674 0.475617 0.431918 0.000000
N112  N     N_3   0.677157 0.490075 0.425604 0.000000
C335  C     C_3   0.760791 0.447815 0.431633 0.000000
C336  C     C_R   0.850199 0.455492 0.456632 0.000000
N113  N     N_R   0.912627 0.497903 0.460339 0.000000
C337  C     C_R   0.995250 0.485598 0.482919 0.000000
C338  C     C_R   0.083355 0.512264 0.496958 0.000000
C339  C     C_R   0.161784 0.489998 0.518759 0.000000
C340  C     C_R   0.157908 0.440381 0.524517 0.000000
C341  C     C_R   0.067258 0.414285 0.510185 0.000000
C342  C     C_R   0.984726 0.438671 0.491108 0.000000
N114  N     N_R   0.893387 0.418587 0.475731 0.000000
H371  H     H_    0.479779 0.508179 0.431940 0.000000
H372  H     H_    0.513895 0.451610 0.414637 0.000000
H373  H     H_    0.538282 0.454660 0.453545 0.000000
H374  H     H_    0.702495 0.517035 0.439651 0.000000
H375  H     H_    0.700842 0.415900 0.437553 0.000000
H376  H     H_    0.819491 0.441514 0.411554 0.000000
H377  H     H_    0.088785 0.549115 0.492100 0.000000
H378  H     H_    0.227775 0.511266 0.530948 0.000000
H379  H     H_    0.225531 0.422447 0.539871 0.000000
H380  H     H_    0.062004 0.375728 0.511965 0.000000
C343  C     C_3   0.446513 0.709449 0.714516 0.000000
N115  N     N_3   0.468880 0.709208 0.682560 0.000000
C344  C     C_3   0.535275 0.663930 0.676534 0.000000
C345  C     C_R   0.592192 0.665683 0.645871 0.000000
N116  N     N_R   0.540835 0.638898 0.624044 0.000000
C346  C     C_R   0.640588 0.634293 0.604830 0.000000
C347  C     C_R   0.654777 0.600578 0.583630 0.000000
C348  C     C_R   0.771946 0.597849 0.568585 0.000000
C349  C     C_R   0.872697 0.628000 0.574976 0.000000
C350  C     C_R   0.860793 0.658493 0.598201 0.000000
C351  C     C_R   0.744185 0.659149 0.613585 0.000000
N117  N     N_R   0.719952 0.677085 0.640335 0.000000
H381  H     H_    0.403255 0.744880 0.720224 0.000000
H382  H     H_    0.382921 0.679463 0.721816 0.000000
H383  H     H_    0.537819 0.703049 0.726798 0.000000
H384  H     H_    0.529847 0.737451 0.676354 0.000000
H385  H     H_    0.613772 0.656251 0.692991 0.000000
H386  H     H_    0.463231 0.634766 0.678401 0.000000
H387  H     H_    0.582011 0.574323 0.579965 0.000000
H388  H     H_    0.786844 0.570566 0.552624 0.000000
H389  H     H_    0.963508 0.625541 0.562936 0.000000
H390  H     H_    0.941756 0.680363 0.603969 0.000000
C352  C     C_3   0.125052 0.735049 0.699325 0.000000
N118  N     N_3   0.164293 0.736164 0.668263 0.000000
C353  C     C_3   0.237650 0.691893 0.662902 0.000000
C354  C     C_R   0.156924 0.658119 0.647433 0.000000
N119  N     N_R   0.209450 0.625412 0.628581 0.000000
C355  C     C_R   0.103188 0.604145 0.618530 0.000000
C356  C     C_R   0.094940 0.572960 0.595954 0.000000
C357  C     C_R   0.976236 0.551799 0.591654 0.000000
C358  C     C_R   0.871234 0.561378 0.610210 0.000000
C359  C     C_R   0.880699 0.595325 0.631635 0.000000
C360  C     C_R   0.996459 0.618509 0.633615 0.000000
N120  N     N_R   0.024109 0.655793 0.650240 0.000000
H391  H     H_    0.098409 0.772432 0.705093 0.000000
H392  H     H_    0.042285 0.710387 0.702919 0.000000
H393  H     H_    0.206244 0.722751 0.714018 0.000000
H394  H     H_    0.226660 0.765187 0.664996 0.000000
H395  H     H_    0.320963 0.699880 0.648100 0.000000
H396  H     H_    0.271906 0.673439 0.683793 0.000000
H397  H     H_    0.174153 0.568519 0.580464 0.000000
H398  H     H_    0.965571 0.527215 0.573975 0.000000
H399  H     H_    0.780760 0.543203 0.607270 0.000000
H400  H     H_    0.802985 0.601926 0.647051 0.000000
C361  C     C_3   0.137691 0.632226 0.749401 0.000000
N121  N     N_3   0.086436 0.625641 0.720031 0.000000
C362  C     C_3   0.957474 0.607151 0.724944 0.000000
C363  C     C_R   0.867005 0.648427 0.729813 0.000000
N122  N     N_R   0.809319 0.656882 0.756787 0.000000
C364  C     C_R   0.733026 0.696565 0.750048 0.000000
C365  C     C_R   0.652545 0.722789 0.768178 0.000000
C366  C     C_R   0.591084 0.764292 0.756001 0.000000
C367  C     C_R   0.610768 0.779399 0.726439 0.000000
C368  C     C_R   0.691068 0.752655 0.708526 0.000000
C369  C     C_R   0.748931 0.711262 0.720929 0.000000
N123  N     N_R   0.832976 0.681957 0.707484 0.000000
H401  H     H_    0.224700 0.654894 0.747822 0.000000
H402  H     H_    0.062739 0.650786 0.762722 0.000000
H403  H     H_    0.162597 0.596181 0.760077 0.000000
H404  H     H_    0.141532 0.598452 0.710390 0.000000
H405  H     H_    0.927141 0.588101 0.705161 0.000000
H406  H     H_    0.957954 0.581682 0.744853 0.000000
H407  H     H_    0.639276 0.713717 0.791379 0.000000
H408  H     H_    0.528971 0.785726 0.769877 0.000000
H409  H     H_    0.563842 0.812373 0.717530 0.000000
H410  H     H_    0.709493 0.764222 0.685678 0.000000
C370  C     C_3   0.125259 0.524062 0.652282 0.000000
N124  N     N_3   0.134737 0.478029 0.638171 0.000000
C371  C     C_3   0.253921 0.480229 0.621252 0.000000
C372  C     C_R   0.359367 0.489638 0.641723 0.000000
N125  N     N_R   0.419933 0.533382 0.640989 0.000000
C373  C     C_R   0.498511 0.528190 0.664895 0.000000
C374  C     C_R   0.588181 0.559464 0.674423 0.000000
C375  C     C_R   0.653511 0.547973 0.700694 0.000000
C376  C     C_R   0.628874 0.505203 0.716966 0.000000
C377  C     C_R   0.542685 0.472743 0.706330 0.000000
C378  C     C_R   0.479938 0.485097 0.679884 0.000000
N126  N     N_R   0.393898 0.458789 0.665568 0.000000
H411  H     H_    0.136777 0.520238 0.676599 0.000000
H412  H     H_    0.206362 0.546995 0.644635 0.000000
H413  H     H_    0.030107 0.540974 0.647048 0.000000
H414  H     H_    0.058660 0.477270 0.622975 0.000000
H415  H     H_    0.275800 0.446995 0.609899 0.000000
H416  H     H_    0.245627 0.510120 0.604342 0.000000
H417  H     H_    0.612673 0.590441 0.661132 0.000000
H418  H     H_    0.723459 0.572670 0.708676 0.000000
H419  H     H_    0.679463 0.496775 0.737653 0.000000
H420  H     H_    0.528671 0.438428 0.718250 0.000000
C379  C     C_3   0.402027 0.572079 0.719018 0.000000
N127  N     N_3   0.423008 0.524053 0.732995 0.000000
C380  C     C_3   0.308125 0.496270 0.727937 0.000000
C381  C     C_R   0.324341 0.447368 0.743045 0.000000
N128  N     N_R   0.337599 0.441461 0.773297 0.000000
C382  C     C_R   0.364736 0.393816 0.777602 0.000000
C383  C     C_R   0.390744 0.368381 0.804027 0.000000
C384  C     C_R   0.430757 0.320365 0.802774 0.000000
C385  C     C_R   0.448143 0.299747 0.775483 0.000000
C386  C     C_R   0.419914 0.326188 0.749199 0.000000
C387  C     C_R   0.371930 0.372533 0.751018 0.000000
N129  N     N_R   0.342860 0.405021 0.728500 0.000000
H421  H     H_    0.325863 0.591562 0.731148 0.000000
H422  H     H_    0.492854 0.592670 0.719706 0.000000
H423  H     H_    0.370332 0.568982 0.695732 0.000000
H424  H     H_    0.431794 0.527190 0.755886 0.000000
H425  H     H_    0.222821 0.515261 0.737272 0.000000
H426  H     H_    0.294087 0.493260 0.703878 0.000000
H427  H     H_    0.379379 0.384793 0.825110 0.000000
H428  H     H_    0.452671 0.299224 0.823111 0.000000
H429  H     H_    0.485834 0.263003 0.774753 0.000000
H430  H     H_    0.443052 0.312010 0.728091 0.000000
C388  C     C_3   0.188041 0.535011 0.361286 0.000000
N130  N     N_3   0.141925 0.508387 0.387852 0.000000
C389  C     C_3   0.038329 0.478108 0.378781 0.000000
C390  C     C_R   0.923545 0.509579 0.371494 0.000000
N131  N     N_R   0.868181 0.540494 0.391405 0.000000
C391  C     C_R   0.768267 0.560458 0.375366 0.000000
C392  C     C_R   0.666865 0.588425 0.384925 0.000000
C393  C     C_R   0.577566 0.606257 0.364168 0.000000
C394  C     C_R   0.587727 0.595100 0.334556 0.000000
C395  C     C_R   0.683775 0.563218 0.325815 0.000000
C396  C     C_R   0.769497 0.544940 0.347138 0.000000
N132  N     N_R   0.863740 0.511275 0.344025 0.000000
H431  H     H_    0.263142 0.560732 0.367478 0.000000
H432  H     H_    0.230694 0.509300 0.345640 0.000000
H433  H     H_    0.105913 0.554887 0.350048 0.000000
H434  H     H_    0.101865 0.532816 0.402373 0.000000
H435  H     H_    0.069054 0.458607 0.358926 0.000000
H436  H     H_    0.015223 0.451553 0.397251 0.000000
H437  H     H_    0.648901 0.593064 0.407960 0.000000
H438  H     H_    0.498587 0.628554 0.371424 0.000000
H439  H     H_    0.517132 0.609692 0.318600 0.000000
H440  H     H_    0.690089 0.552501 0.303078 0.000000
C397  C     C_3   0.013624 0.222720 0.230912 0.000000
N133  N     N_3   0.108528 0.241261 0.209367 0.000000
C398  C     C_3   0.064901 0.288242 0.196433 0.000000
C399  C     C_R   0.127559 0.296411 0.166693 0.000000
N134  N     N_R   0.252462 0.282185 0.160938 0.000000
C400  C     C_R   0.270505 0.297057 0.132342 0.000000
C401  C     C_R   0.379702 0.291549 0.115097 0.000000
C402  C     C_R   0.381223 0.316169 0.087522 0.000000
C403  C     C_R   0.272212 0.342491 0.077187 0.000000
C404  C     C_R   0.160166 0.344550 0.094296 0.000000
C405  C     C_R   0.162350 0.320505 0.121719 0.000000
N135  N     N_R   0.067778 0.318778 0.142388 0.000000
H441  H     H_    0.020790 0.182617 0.232469 0.000000
H442  H     H_    0.035077 0.235943 0.253125 0.000000
H443  H     H_    0.913629 0.233428 0.224003 0.000000
H444  H     H_    0.114865 0.217342 0.192311 0.000000
H445  H     H_    0.958057 0.290641 0.194000 0.000000
H446  H     H_    0.094107 0.316808 0.211223 0.000000
H447  H     H_    0.465201 0.272412 0.123772 0.000000
H448  H     H_    0.469603 0.316339 0.074542 0.000000
H449  H     H_    0.273777 0.360953 0.055450 0.000000
H450  H     H_    0.074948 0.365048 0.086739 0.000000
C406  C     C_3   0.384199 0.358480 0.164535 0.000000
N136  N     N_3   0.441249 0.358468 0.135458 0.000000
C407  C     C_3   0.580200 0.355788 0.138975 0.000000
C408  C     C_R   0.631344 0.309009 0.153226 0.000000
N137  N     N_R   0.566617 0.272531 0.169203 0.000000
C409  C     C_R   0.664242 0.240922 0.176269 0.000000
C410  C     C_R   0.657152 0.199946 0.194104 0.000000
C411  C     C_R   0.768872 0.171888 0.198765 0.000000
C412  C     C_R   0.884611 0.185678 0.185137 0.000000
C413  C     C_R   0.890733 0.229105 0.168315 0.000000
C414  C     C_R   0.778378 0.256196 0.164842 0.000000
N138  N     N_R   0.761222 0.299546 0.150703 0.000000
H451  H     H_    0.410227 0.324624 0.176974 0.000000
H452  H     H_    0.427551 0.388030 0.175917 0.000000
H453  H     H_    0.277332 0.361898 0.162194 0.000000
H454  H     H_    0.418256 0.391818 0.124528 0.000000
H455  H     H_    0.623340 0.358590 0.116440 0.000000
H456  H     H_    0.612968 0.386563 0.151656 0.000000
H457  H     H_    0.567352 0.192179 0.204690 0.000000
H458  H     H_    0.766043 0.139021 0.212904 0.000000
H459  H     H_    0.970018 0.162620 0.188159 0.000000
H460  H     H_    0.979869 0.241373 0.158269 0.000000
C415  C     C_3   0.043155 0.189832 0.113549 0.000000
N139  N     N_3   0.136630 0.199558 0.136414 0.000000
C416  C     C_3   0.262882 0.186140 0.124751 0.000000
C417  C     C_R   0.341858 0.160550 0.148121 0.000000
N140  N     N_R   0.376879 0.178019 0.174975 0.000000
C418  C     C_R   0.422245 0.137345 0.190097 0.000000
C419  C     C_R   0.454581 0.130120 0.219799 0.000000
C420  C     C_R   0.504329 0.084970 0.229385 0.000000
C421  C     C_R   0.519891 0.048115 0.209722 0.000000
C422  C     C_R   0.479750 0.055075 0.180481 0.000000
C423  C     C_R   0.425323 0.099356 0.171825 0.000000
N141  N     N_R   0.372710 0.112965 0.145349 0.000000
H461  H     H_    0.948870 0.208279 0.117848 0.000000
H462  H     H_    0.080839 0.203067 0.091633 0.000000
H463  H     H_    0.028179 0.150253 0.113415 0.000000
H464  H     H_    0.118107 0.174920 0.154218 0.000000
H465  H     H_    0.248204 0.159097 0.107995 0.000000
H466  H     H_    0.312433 0.217361 0.114349 0.000000
H467  H     H_    0.443392 0.158356 0.235418 0.000000
H468  H     H_    0.532891 0.078511 0.252362 0.000000
H469  H     H_    0.560964 0.013414 0.217508 0.000000
H470  H     H_    0.488647 0.026288 0.165187 0.000000
C424  C     C_3   0.079110 0.400194 0.236809 0.000000
N142  N     N_3   0.042281 0.446778 0.247968 0.000000
C425  C     C_3   0.930406 0.462198 0.230809 0.000000
C426  C     C_R   0.884394 0.510406 0.239625 0.000000
N143  N     N_R   0.870150 0.521154 0.268863 0.000000
C427  C     C_R   0.855451 0.569866 0.266994 0.000000
C428  C     C_R   0.858943 0.601204 0.289618 0.000000
C429  C     C_R   0.847535 0.650424 0.282049 0.000000
C430  C     C_R   0.836411 0.667227 0.252420 0.000000
C431  C     C_R   0.841418 0.635145 0.229800 0.000000
C432  C     C_R   0.852950 0.586696 0.237860 0.000000
N144  N     N_R   0.871759 0.549922 0.219849 0.000000
H471  H     H_    0.141982 0.380079 0.253346 0.000000
H472  H     H_    0.992264 0.378545 0.232909 0.000000
H473  H     H_    0.123026 0.406393 0.214657 0.000000
H474  H     H_    0.114428 0.471218 0.241790 0.000000
H475  H     H_    0.960219 0.464361 0.207236 0.000000
H476  H     H_    0.856482 0.435081 0.235520 0.000000
H477  H     H_    0.878533 0.588522 0.312251 0.000000
H478  H     H_    0.849794 0.676118 0.299318 0.000000
H479  H     H_    0.828266 0.705756 0.246970 0.000000
H480  H     H_    0.837818 0.647799 0.206673 0.000000
C433  C     C_3   0.065017 0.562456 0.891866 0.000000
N145  N     N_3   0.022115 0.600615 0.870708 0.000000
C434  C     C_3   0.887679 0.612230 0.877553 0.000000
C435  C     C_R   0.853158 0.660045 0.863044 0.000000
N146  N     N_R   0.840147 0.701851 0.878597 0.000000
C436  C     C_R   0.813982 0.735577 0.856706 0.000000
C437  C     C_R   0.777793 0.783143 0.859393 0.000000
C438  C     C_R   0.766953 0.812372 0.833554 0.000000
C439  C     C_R   0.795714 0.793770 0.806131 0.000000
C440  C     C_R   0.825390 0.744916 0.803935 0.000000
C441  C     C_R   0.822372 0.715786 0.829539 0.000000
N147  N     N_R   0.840112 0.667200 0.832569 0.000000
H481  H     H_    0.153942 0.544564 0.883270 0.000000
H482  H     H_    0.087235 0.578758 0.913124 0.000000
H483  H     H_    0.987288 0.535468 0.894872 0.000000
H484  H     H_    0.023311 0.585985 0.849938 0.000000
H485  H     H_    0.823871 0.584107 0.869297 0.000000
H486  H     H_    0.874841 0.614019 0.901824 0.000000
H487  H     H_    0.754059 0.796814 0.880772 0.000000
H488  H     H_    0.739500 0.850206 0.834768 0.000000
H489  H     H_    0.792779 0.817604 0.786367 0.000000
H490  H     H_    0.855167 0.730670 0.783103 0.000000
C442  C     C_3   0.684417 0.387838 0.884744 0.000000
N148  N     N_3   0.591424 0.407530 0.862942 0.000000
C443  C     C_3   0.536263 0.452042 0.873872 0.000000
C444  C     C_R   0.392749 0.449228 0.872736 0.000000
N149  N     N_R   0.327428 0.453725 0.846003 0.000000
C445  C     C_R   0.223234 0.426398 0.851261 0.000000
C446  C     C_R   0.140132 0.410753 0.830323 0.000000
C447  C     C_R   0.046720 0.378033 0.839708 0.000000
C448  C     C_R   0.036473 0.363231 0.869619 0.000000
C449  C     C_R   0.124070 0.378627 0.890202 0.000000
C450  C     C_R   0.219956 0.409385 0.880174 0.000000
N150  N     N_R   0.325607 0.423716 0.894788 0.000000
H491  H     H_    0.632523 0.377231 0.905492 0.000000
H492  H     H_    0.732788 0.354818 0.876573 0.000000
H493  H     H_    0.757846 0.415373 0.889004 0.000000
H494  H     H_    0.516565 0.382763 0.862261 0.000000
H495  H     H_    0.569243 0.454743 0.896731 0.000000
H496  H     H_    0.570017 0.483864 0.860359 0.000000
H497  H     H_    0.153826 0.421015 0.807049 0.000000
H498  H     H_    0.980661 0.364287 0.823756 0.000000
H499  H     H_    0.961767 0.338250 0.876769 0.000000
H500  H     H_    0.117190 0.365435 0.912949 0.000000
C451  C     C_3   0.985910 0.432014 0.753554 0.000000
N151  N     N_3   0.048088 0.478289 0.756270 0.000000
C452  C     C_3   0.993155 0.498500 0.782723 0.000000
C453  C     C_R   0.067366 0.540898 0.791796 0.000000
N152  N     N_R   0.195299 0.538227 0.800860 0.000000
C454  C     C_R   0.213146 0.582715 0.810537 0.000000
C455  C     C_R   0.316041 0.598541 0.825969 0.000000
C456  C     C_R   0.305828 0.645041 0.836001 0.000000
C457  C     C_R   0.201527 0.675571 0.827872 0.000000
C458  C     C_R   0.097817 0.658100 0.813272 0.000000
C459  C     C_R   0.104941 0.610777 0.806400 0.000000
N153  N     N_R   0.008977 0.585408 0.795805 0.000000
H501  H     H_    0.023014 0.414185 0.733681 0.000000
H502  H     H_    0.006813 0.407900 0.773513 0.000000
H503  H     H_    0.879454 0.438080 0.751593 0.000000
H504  H     H_    0.017995 0.500855 0.738128 0.000000
H505  H     H_    0.891017 0.509860 0.778102 0.000000
H506  H     H_    0.997238 0.470420 0.800938 0.000000
H507  H     H_    0.399300 0.575128 0.830777 0.000000
H508  H     H_    0.384723 0.658607 0.848184 0.000000
H509  H     H_    0.198890 0.713099 0.832640 0.000000
H510  H     H_    0.016451 0.681412 0.806792 0.000000
C460  C     C_3   0.570507 0.649134 0.822662 0.000000
N154  N     N_3   0.464086 0.647425 0.801849 0.000000
C461  C     C_3   0.488382 0.608453 0.782089 0.000000
C462  C     C_R   0.565500 0.568005 0.797053 0.000000
N155  N     N_R   0.696117 0.570598 0.803137 0.000000
C463  C     C_R   0.725747 0.525542 0.813922 0.000000
C464  C     C_R   0.840041 0.508780 0.826361 0.000000
C465  C     C_R   0.848089 0.460362 0.835747 0.000000
C466  C     C_R   0.748147 0.429384 0.829884 0.000000
C467  C     C_R   0.630833 0.447846 0.818898 0.000000
C468  C     C_R   0.621336 0.496791 0.812627 0.000000
N156  N     N_R   0.516145 0.522627 0.803343 0.000000
H511  H     H_    0.567537 0.684019 0.833755 0.000000
H512  H     H_    0.565614 0.618343 0.839394 0.000000
H513  H     H_    0.661536 0.646542 0.810512 0.000000
H514  H     H_    0.458599 0.679896 0.788931 0.000000
H515  H     H_    0.393365 0.594658 0.775525 0.000000
H516  H     H_    0.541601 0.622588 0.762097 0.000000
H517  H     H_    0.920470 0.532308 0.828972 0.000000
H518  H     H_    0.936126 0.446406 0.846150 0.000000
H519  H     H_    0.761678 0.390839 0.834347 0.000000
H520  H     H_    0.550551 0.424662 0.814951 0.000000
C469  C     C_3   0.136966 0.280882 0.024787 0.000000
N157  N     N_3   0.115586 0.309796 0.050225 0.000000
C470  C     C_3   0.011313 0.287577 0.067297 0.000000
C471  C     C_R   0.898797 0.321672 0.065769 0.000000
N158  N     N_R   0.859475 0.347660 0.089483 0.000000
C472  C     C_R   0.777124 0.381001 0.077125 0.000000
C473  C     C_R   0.718102 0.419129 0.090636 0.000000
C474  C     C_R   0.653153 0.453624 0.072550 0.000000
C475  C     C_R   0.640839 0.447203 0.042268 0.000000
C476  C     C_R   0.690918 0.406063 0.029932 0.000000
C477  C     C_R   0.765308 0.374680 0.047526 0.000000
N159  N     N_R   0.841224 0.337132 0.039382 0.000000
H521  H     H_    0.201964 0.300136 0.008641 0.000000
H522  H     H_    0.181634 0.246027 0.032436 0.000000
H523  H     H_    0.042517 0.274151 0.014435 0.000000
H524  H     H_    0.079940 0.343419 0.041772 0.000000
H525  H     H_    0.989399 0.253099 0.057712 0.000000
H526  H     H_    0.039895 0.279926 0.090763 0.000000
H527  H     H_    0.730210 0.424157 0.114048 0.000000
H528  H     H_    0.616300 0.486373 0.081912 0.000000
H529  H     H_    0.595891 0.474944 0.027716 0.000000
H530  H     H_    0.673417 0.400136 0.007185 0.000000
C478  C     C_3   0.901557 0.493831 0.068785 0.000000
N160  N     N_3   0.889496 0.501995 0.100078 0.000000
C479  C     C_3   0.968146 0.465076 0.115549 0.000000
C480  C     C_R   0.904201 0.452338 0.144272 0.000000
N161  N     N_R   0.857848 0.485479 0.163681 0.000000
C481  C     C_R   0.781076 0.458451 0.181954 0.000000
C482  C     C_R   0.707578 0.473405 0.205425 0.000000
C483  C     C_R   0.653257 0.437942 0.224132 0.000000
C484  C     C_R   0.683701 0.389284 0.220368 0.000000
C485  C     C_R   0.746983 0.375213 0.194983 0.000000
C486  C     C_R   0.791454 0.411149 0.175640 0.000000
N162  N     N_R   0.865238 0.406215 0.151317 0.000000
H531  H     H_    0.840189 0.521505 0.056779 0.000000
H532  H     H_    0.005695 0.494557 0.062694 0.000000
H533  H     H_    0.867292 0.457613 0.063774 0.000000
H534  H     H_    0.792952 0.496949 0.106324 0.000000
H535  H     H_    0.973296 0.432198 0.102489 0.000000
H536  H     H_    0.067412 0.478227 0.117707 0.000000
H537  H     H_    0.695146 0.511155 0.209908 0.000000
H538  H     H_    0.603941 0.448578 0.243942 0.000000
H539  H     H_    0.665693 0.362286 0.238024 0.000000
H540  H     H_    0.771120 0.337567 0.192255 0.000000
C487  C     C_3   0.443741 0.499294 0.185154 0.000000
N163  N     N_3   0.553598 0.525233 0.173265 0.000000
C488  C     C_3   0.530487 0.576082 0.177350 0.000000
C489  C     C_R   0.610539 0.602642 0.155357 0.000000
N164  N     N_R   0.743160 0.596331 0.154157 0.000000
C490  C     C_R   0.774715 0.627461 0.131648 0.000000
C491  C     C_R   0.891342 0.630733 0.117915 0.000000
C492  C     C_R   0.905098 0.665796 0.095158 0.000000
C493  C     C_R   0.803307 0.698257 0.088348 0.000000
C494  C     C_R   0.682305 0.691773 0.101479 0.000000
C495  C     C_R   0.669189 0.652527 0.120989 0.000000
N165  N     N_R   0.560784 0.635072 0.133811 0.000000
H541  H     H_    0.448129 0.463800 0.175144 0.000000
H542  H     H_    0.449595 0.497816 0.209750 0.000000
H543  H     H_    0.351363 0.517945 0.178755 0.000000
H544  H     H_    0.558536 0.520219 0.150478 0.000000
H545  H     H_    0.427590 0.586826 0.173758 0.000000
H546  H     H_    0.559892 0.584682 0.200110 0.000000
H547  H     H_    0.962806 0.603613 0.123612 0.000000
H548  H     H_    0.995287 0.668242 0.082924 0.000000
H549  H     H_    0.818395 0.727463 0.072001 0.000000
H550  H     H_    0.601857 0.716806 0.096968 0.000000
C496  C     C_3   0.039721 0.720785 0.194822 0.000000
N166  N     N_3   0.125567 0.701852 0.172340 0.000000
C497  C     C_3   0.051298 0.668928 0.155364 0.000000
C498  C     C_R   0.122836 0.621729 0.154508 0.000000
N167  N     N_R   0.246154 0.617389 0.142589 0.000000
C499  C     C_R   0.266014 0.569308 0.143625 0.000000
C500  C     C_R   0.366867 0.545018 0.130644 0.000000
C501  C     C_R   0.363120 0.494968 0.131702 0.000000
C502  C     C_R   0.260405 0.471051 0.145744 0.000000
C503  C     C_R   0.160245 0.496507 0.158950 0.000000
C504  C     C_R   0.163324 0.545961 0.156389 0.000000
N168  N     N_R   0.067979 0.577714 0.162868 0.000000
H551  H     H_    0.090433 0.748954 0.206700 0.000000
H552  H     H_    0.951122 0.736959 0.184092 0.000000
H553  H     H_    0.012520 0.690979 0.210975 0.000000
H554  H     H_    0.198668 0.681429 0.183444 0.000000
H555  H     H_    0.955026 0.663271 0.165960 0.000000
H556  H     H_    0.038258 0.684731 0.132382 0.000000
H557  H     H_    0.443766 0.564444 0.119099 0.000000
H558  H     H_    0.439639 0.474332 0.121349 0.000000
H559  H     H_    0.256337 0.432344 0.145377 0.000000
H560  H     H_    0.077914 0.478006 0.168611 0.000000

loop_
_geom_bond_atom_site_label_1
_geom_bond_atom_site_label_2
_geom_bond_distance
_geom_bond_site_symmetry_2
_ccdc_geom_bond_type
Zn1   N3    1.984 .      S
Zn1   N23   2.096 1_655  S
Zn1   N27   2.031 .      S
Zn1   N159  2.037 1_556  S
Zn2   N2    1.951 .      S
Zn2   N6    2.002 .      S
Zn2   N15   1.960 .      S
Zn2   N18   1.937 .      S
Zn3   N8    2.036 .      S
Zn3   N12   2.002 .      S
Zn3   N21   1.982 .      S
Zn3   N41   1.980 .      S
Zn4   N30   2.003 .      S
Zn4   N33   1.991 .      S
Zn4   N36   2.031 .      S
Zn4   N45   2.016 1_556  S
Zn5   N14   2.066 .      S
Zn5   N17   1.972 .      S
Zn5   N20   2.050 .      S
Zn5   N141  2.001 .      S
Zn6   N24   2.002 .      S
Zn6   N26   2.014 .      S
Zn6   N29   2.014 .      S
Zn6   N150  2.052 .      S
Zn7   N32   2.011 .      S
Zn7   N35   2.032 1_655  S
Zn7   N38   2.170 .      S
Zn7   N146  2.081 .      S
Zn8   N42   1.973 .      S
Zn8   N44   2.078 .      S
Zn8   N165  2.043 .      S
Zn8   N167  2.034 .      S
Zn9   N5    2.014 1_554  S
Zn9   N9    2.021 .      S
Zn9   N11   1.981 .      S
Zn9   N39   2.056 1_554  S
Zn10  N48   2.008 .      S
Zn10  N50   1.948 .      S
Zn10  N54   1.998 .      S
Zn10  N56   2.014 .      S
Zn11  N47   1.979 .      S
Zn11  N60   2.059 .      S
Zn11  N63   1.942 .      S
Zn11  N65   1.989 .      S
Zn12  N51   1.984 1_655  S
Zn12  N53   2.025 .      S
Zn12  N69   2.041 .      S
Zn12  N71   2.005 .      S
Zn13  N68   2.004 .      S
Zn13  N74   2.004 .      S
Zn13  N77   2.069 .      S
Zn13  N81   2.055 .      S
Zn14  N57   2.046 .      S
Zn14  N83   1.972 .      S
Zn14  N87   2.063 .      S
Zn14  N90   1.996 .      S
Zn15  N59   1.980 .      S
Zn15  N93   2.006 .      S
Zn15  N96   1.983 .      S
Zn15  N98   2.016 .      S
Zn16  N62   1.925 .      S
Zn16  N66   2.030 .      S
Zn16  N72   1.973 .      S
Zn16  N101  1.975 .      S
Zn17  N84   1.990 .      S
Zn17  N104  2.053 .      S
Zn17  N107  1.989 .      S
Zn17  N111  2.043 .      S
Zn18  N75   2.063 .      S
Zn18  N86   2.015 1_655  S
Zn18  N89   1.963 .      S
Zn18  N114  1.923 .      S
Zn19  N102  2.014 .      S
Zn19  N117  1.996 .      S
Zn19  N120  2.015 1_655  S
Zn19  N123  2.003 .      S
Zn20  N78   2.069 .      S
Zn20  N80   2.077 .      S
Zn20  N126  2.034 .      S
Zn20  N129  2.037 .      S
Zn21  N92   2.039 1_655  S
Zn21  N95   1.989 .      S
Zn21  N113  1.986 .      S
Zn21  N131  2.092 .      S
Zn22  N99   2.004 .      S
Zn22  N116  2.004 .      S
Zn22  N119  2.032 .      S
Zn22  N125  2.051 .      S
Zn23  N105  2.071 .      S
Zn23  N134  1.956 .      S
Zn23  N137  2.045 .      S
Zn23  N140  2.042 .      S
Zn24  N108  1.978 1_655  S
Zn24  N110  2.056 .      S
Zn24  N132  2.050 .      S
Zn24  N143  2.035 .      S
Zn25  N122  2.043 .      S
Zn25  N147  2.114 .      S
Zn25  N153  1.997 1_655  S
Zn25  N155  2.029 .      S
Zn26  N128  2.008 .      S
Zn26  N149  2.035 .      S
Zn26  N152  2.024 .      S
Zn26  N156  2.020 .      S
Zn27  N135  1.964 1_655  S
Zn27  N138  1.957 .      S
Zn27  N158  1.992 .      S
Zn27  N162  1.973 .      S
Zn28  N144  2.029 .      S
Zn28  N161  2.004 .      S
Zn28  N164  2.051 .      S
Zn28  N168  2.067 1_655  S
C1    N1    1.451 .      S
C1    H1    1.109 .      S
C1    H2    1.109 .      S
C1    H3    1.107 .      S
N1    C2    1.451 .      S
N1    H4    1.043 .      S
C2    C3    1.488 .      S
C2    H5    1.109 .      S
C2    H6    1.110 .      S
C5    H7    1.080 .      S
C6    H8    1.081 .      S
C7    H9    1.081 .      S
C8    H10   1.081 .      S
C10   N4    1.448 1_546  S
C10   H11   1.109 .      S
C10   H12   1.102 1_556  S
C10   H13   1.109 .      S
N4    C10   1.448 1_564  S
N4    C11   1.451 .      S
N4    H14   1.043 1_554  S
C11   C12   1.477 .      S
C11   H15   1.103 1_565  S
C11   H16   1.103 .      S
N5    Zn9   2.014 1_556  S
C14   H17   1.079 .      S
C15   H18   1.081 1_545  S
C16   H19   1.081 .      S
C17   H20   1.081 .      S
H12   C10   1.102 1_554  S
H14   N4    1.043 1_556  S
H15   C11   1.103 1_545  S
H18   C15   1.081 1_565  S
C19   N7    1.462 1_655  S
C19   H21   1.100 .      S
C19   H22   1.102 1_655  S
C19   H23   1.107 .      S
N7    C19   1.462 1_455  S
N7    C20   1.452 .      S
N7    H24   1.039 .      S
C20   C21   1.460 .      S
C20   H25   1.106 1_554  S
C20   H26   1.099 .      S
C23   H27   1.079 .      S
C24   H28   1.081 .      S
C25   H29   1.082 .      S
C26   H30   1.079 .      S
H22   C19   1.102 1_455  S
H25   C20   1.106 1_556  S
C28   N10   1.452 .      S
C28   H31   1.109 .      S
C28   H32   1.109 .      S
C28   H33   1.109 .      S
N10   C29   1.447 .      S
N10   H34   1.042 .      S
C29   C30   1.489 .      S
C29   H35   1.109 .      S
C29   H36   1.108 .      S
C32   H37   1.082 .      S
C33   H38   1.081 .      S
C34   H39   1.081 .      S
C35   H40   1.071 .      S
C37   N13   1.460 .      S
C37   H41   1.108 .      S
C37   H42   1.104 .      S
C37   H43   1.109 .      S
N13   C38   1.460 .      S
N13   H44   1.042 .      S
C38   C39   1.508 .      S
C38   H45   1.104 .      S
C38   H46   1.110 .      S
C41   H47   1.060 .      S
C42   H48   1.081 .      S
C43   H49   1.081 .      S
C44   H50   1.078 .      S
C46   N16   1.450 .      S
C46   H51   1.106 .      S
C46   H52   1.109 .      S
C46   H53   1.109 .      S
N16   C47   1.449 .      S
N16   H54   1.043 .      S
C47   C48   1.488 .      S
C47   H55   1.109 .      S
C47   H56   1.109 .      S
C50   H57   1.056 .      S
C51   H58   1.080 1_554  S
C52   H59   1.081 .      S
C53   H60   1.078 1_554  S
H58   C51   1.080 1_556  S
H60   C53   1.078 1_556  S
C55   N19   1.435 1_545  S
C55   H61   1.106 1_545  S
C55   H62   1.072 .      S
C55   H63   1.101 .      S
N19   C55   1.435 1_565  S
N19   C56   1.442 .      S
N19   H64   1.042 1_565  S
C56   C57   1.483 .      S
C56   H65   1.109 .      S
C56   H66   1.103 1_565  S
C59   H67   1.078 1_565  S
C60   H68   1.081 .      S
C61   H69   1.081 .      S
C62   H70   1.079 .      S
H61   C55   1.106 1_565  S
H64   N19   1.042 1_545  S
H66   C56   1.103 1_545  S
H67   C59   1.078 1_545  S
C64   N22   1.451 .      S
C64   H71   1.109 .      S
C64   H72   1.108 .      S
C64   H73   1.103 .      S
N22   C65   1.450 .      S
N22   H74   1.044 .      S
C65   C66   1.469 .      S
C65   H75   1.089 .      S
C65   H76   1.110 1_556  S
N23   Zn1   2.096 1_455  S
C68   H77   1.066 .      S
C69   H78   1.081 .      S
C70   H79   1.081 .      S
C71   H80   1.082 .      S
H76   C65   1.110 1_554  S
C73   N25   1.448 1_554  S
C73   H81   1.107 .      S
C73   H82   1.107 .      S
C73   H83   1.109 .      S
N25   C73   1.448 1_556  S
N25   C74   1.446 .      S
N25   H84   1.036 .      S
C74   C75   1.488 .      S
C74   H85   1.109 .      S
C74   H86   1.105 .      S
C77   H87   1.072 .      S
C78   H88   1.079 .      S
C79   H89   1.064 .      S
C80   H90   1.066 .      S
C82   N28   1.450 .      S
C82   H91   1.109 .      S
C82   H92   1.106 .      S
C82   H93   1.108 .      S
N28   C83   1.452 .      S
N28   H94   1.044 .      S
C83   C84   1.481 .      S
C83   H95   1.107 .      S
C83   H96   1.109 .      S
C86   H97   1.077 .      S
C87   H98   1.077 .      S
C88   H99   1.078 .      S
C89   H100  1.068 .      S
C91   N31   1.451 .      S
C91   H101  1.102 .      S
C91   H102  1.106 .      S
C91   H103  1.108 .      S
N31   C92   1.446 .      S
N31   H104  1.043 .      S
C92   C93   1.479 .      S
C92   H105  1.109 .      S
C92   H106  1.094 .      S
C95   H107  1.072 .      S
C96   H108  1.078 .      S
C97   H109  1.076 1_556  S
C98   H110  1.078 1_556  S
H109  C97   1.076 1_554  S
H110  C98   1.078 1_554  S
C100  N34   1.463 1_556  S
C100  H111  1.098 .      S
C100  H112  1.109 .      S
C100  H113  1.094 .      S
N34   C100  1.463 1_554  S
N34   C101  1.440 1_554  S
N34   H114  1.042 .      S
C101  N34   1.440 1_556  S
C101  C102  1.458 .      S
C101  H115  1.085 .      S
C101  H116  1.070 1_455  S
N35   Zn7   2.032 1_455  S
C104  H117  1.073 .      S
C105  H118  1.082 .      S
C106  H119  1.081 .      S
C107  H120  1.075 .      S
H116  C101  1.070 1_655  S
C109  N37   1.435 1_554  S
C109  H121  1.105 .      S
C109  H122  1.101 .      S
C109  H123  1.106 1_554  S
N37   C109  1.435 1_556  S
N37   C110  1.429 .      S
N37   H124  1.033 .      S
C110  C111  1.474 .      S
C110  H125  1.105 1_556  S
C110  H126  1.107 1_556  S
C113  H127  1.071 .      S
C114  H128  1.081 .      S
C115  H129  1.081 .      S
C116  H130  1.081 .      S
N39   Zn9   2.056 1_556  S
H123  C109  1.106 1_556  S
H125  C110  1.105 1_554  S
H126  C110  1.107 1_554  S
C118  N40   1.429 .      S
C118  H131  1.102 .      S
C118  H132  1.100 .      S
C118  H133  1.104 1_455  S
N40   C119  1.437 .      S
N40   H134  1.042 .      S
C119  C120  1.455 .      S
C119  H135  1.098 .      S
C119  H136  1.109 .      S
C122  H137  1.080 .      S
C123  H138  1.081 .      S
C124  H139  1.081 .      S
C125  H140  1.081 .      S
H133  C118  1.104 1_655  S
C127  N43   1.454 .      S
C127  H141  1.105 .      S
C127  H142  1.106 .      S
C127  H143  1.093 .      S
N43   C128  1.459 .      S
N43   H144  1.043 .      S
C128  C129  1.448 .      S
C128  H145  1.094 .      S
C128  H146  1.088 .      S
C131  H147  1.054 .      S
C132  H148  1.078 1_455  S
C133  H149  1.073 1_455  S
C134  H150  1.082 .      S
N45   Zn4   2.016 1_554  S
H148  C132  1.078 1_655  S
H149  C133  1.073 1_655  S
C136  N46   1.448 .      S
C136  H151  1.071 .      S
C136  H152  1.097 1_565  S
C136  H153  1.095 1_565  S
N46   C137  1.447 .      S
N46   H154  1.032 .      S
C137  C138  1.481 .      S
C137  H155  1.091 1_565  S
C137  H156  1.105 .      S
C140  H157  1.081 .      S
C141  H158  1.081 .      S
C142  H159  1.081 .      S
C143  H160  1.079 .      S
H152  C136  1.097 1_545  S
H153  C136  1.095 1_545  S
H155  C137  1.091 1_545  S
C145  N49   1.459 .      S
C145  H161  1.106 1_545  S
C145  H162  1.104 .      S
C145  H163  1.104 .      S
N49   C146  1.449 .      S
N49   H164  1.044 .      S
C146  C147  1.498 .      S
C146  H165  1.099 .      S
C146  H166  1.087 .      S
C149  H167  1.074 .      S
C150  H168  1.081 .      S
C151  H169  1.072 .      S
C152  H170  1.072 .      S
N51   Zn12  1.984 1_455  S
H161  C145  1.106 1_565  S
C154  N52   1.468 .      S
C154  H171  1.109 .      S
C154  H172  1.094 .      S
C154  H173  1.069 .      S
N52   C155  1.462 .      S
N52   H174  1.043 .      S
C155  C156  1.491 .      S
C155  H175  1.105 .      S
C155  H176  1.103 .      S
C158  H177  1.073 .      S
C159  H178  1.080 .      S
C160  H179  1.080 .      S
C161  H180  1.070 .      S
C163  N55   1.447 .      S
C163  H181  1.093 1_455  S
C163  H182  1.108 .      S
C163  H183  1.100 .      S
N55   C164  1.435 .      S
N55   H184  1.044 .      S
C164  C165  1.447 .      S
C164  H185  1.064 .      S
C164  H186  1.103 .      S
C167  H187  1.081 .      S
C168  H188  1.081 .      S
C169  H189  1.081 .      S
C170  H190  1.081 .      S
H181  C163  1.093 1_655  S
C172  N58   1.453 .      S
C172  H191  1.105 .      S
C172  H192  1.107 .      S
C172  H193  1.102 .      S
N58   C173  1.451 .      S
N58   H194  1.041 .      S
C173  C174  1.494 .      S
C173  H195  1.105 .      S
C173  H196  1.110 .      S
C176  H197  1.066 .      S
C177  H198  1.081 1_455  S
C178  H199  1.079 1_455  S
C179  H200  1.041 .      S
H198  C177  1.081 1_655  S
H199  C178  1.079 1_655  S
C181  N61   1.446 .      S
C181  H201  1.109 .      S
C181  H202  1.106 .      S
C181  H203  1.103 .      S
N61   C182  1.448 .      S
N61   H204  1.042 .      S
C182  C183  1.483 .      S
C182  H205  1.105 .      S
C182  H206  1.099 .      S
C185  H207  1.063 .      S
C186  H208  1.081 .      S
C187  H209  1.081 .      S
C188  H210  1.077 .      S
C190  N64   1.453 .      S
C190  H211  1.108 .      S
C190  H212  1.109 .      S
C190  H213  1.108 .      S
N64   C191  1.446 .      S
N64   H214  1.036 .      S
C191  C192  1.492 .      S
C191  H215  1.103 .      S
C191  H216  1.102 .      S
C194  H217  1.077 .      S
C195  H218  1.068 .      S
C196  H219  1.079 .      S
C197  H220  1.076 .      S
C199  N67   1.450 .      S
C199  H221  1.097 .      S
C199  H222  1.107 .      S
C199  H223  1.099 .      S
N67   C200  1.453 .      S
N67   H224  1.040 .      S
C200  C201  1.472 .      S
C200  H225  1.105 .      S
C200  H226  1.096 .      S
C203  H227  1.081 .      S
C204  H228  1.081 .      S
C205  H229  1.081 .      S
C206  H230  1.081 .      S
C208  N70   1.426 .      S
C208  H231  1.103 .      S
C208  H232  1.109 .      S
C208  H233  1.105 1_545  S
N70   C209  1.438 .      S
N70   H234  1.044 .      S
C209  C210  1.435 1_545  S
C209  H235  1.108 1_545  S
C209  H236  1.092 .      S
C210  C209  1.435 1_565  S
C212  H237  1.077 .      S
C213  H238  1.081 .      S
C214  H239  1.081 .      S
C215  H240  1.080 .      S
H233  C208  1.105 1_565  S
H235  C209  1.108 1_565  S
C217  N73   1.440 .      S
C217  H241  1.096 .      S
C217  H242  1.104 .      S
C217  H243  1.103 .      S
N73   C218  1.444 .      S
N73   H244  1.044 .      S
C218  C219  1.477 1_455  S
C218  H245  1.094 .      S
C218  H246  1.101 .      S
C219  C218  1.477 1_655  S
C221  H247  1.081 .      S
C222  H248  1.071 .      S
C223  H249  1.081 .      S
C224  H250  1.081 .      S
C226  N76   1.450 .      S
C226  H251  1.109 .      S
C226  H252  1.107 .      S
C226  H253  1.109 .      S
N76   C227  1.452 .      S
N76   H254  1.043 .      S
C227  C228  1.453 .      S
C227  H255  1.075 .      S
C227  H256  1.099 .      S
C230  H257  1.072 .      S
C231  H258  1.081 .      S
C232  H259  1.081 .      S
C233  H260  1.081 .      S
C235  N79   1.445 .      S
C235  H261  1.107 .      S
C235  H262  1.109 .      S
C235  H263  1.108 .      S
N79   C236  1.445 .      S
N79   H264  1.042 .      S
C236  C237  1.475 .      S
C236  H265  1.109 .      S
C236  H266  1.108 .      S
C239  H267  1.078 .      S
C240  H268  1.082 .      S
C241  H269  1.078 .      S
C242  H270  1.081 .      S
C244  N82   1.451 .      S
C244  H271  1.109 .      S
C244  H272  1.109 .      S
C244  H273  1.109 .      S
N82   C245  1.451 .      S
N82   H274  1.044 .      S
C245  C246  1.493 .      S
C245  H275  1.102 .      S
C245  H276  1.107 .      S
C248  H277  1.073 .      S
C249  H278  1.081 .      S
C250  H279  1.073 .      S
C251  H280  1.070 .      S
C253  N85   1.447 .      S
C253  H281  1.109 .      S
C253  H282  1.108 1_655  S
C253  H283  1.108 .      S
N85   C254  1.450 1_655  S
N85   H284  1.044 .      S
C254  N85   1.450 1_455  S
C254  C255  1.488 .      S
C254  H285  1.099 .      S
C254  H286  1.107 .      S
N86   Zn18  2.015 1_455  S
C257  H287  1.062 1_455  S
C258  H288  1.082 .      S
C259  H289  1.070 .      S
C260  H290  1.055 .      S
H282  C253  1.108 1_455  S
H287  C257  1.062 1_655  S
C262  N88   1.437 .      S
C262  H291  1.100 .      S
C262  H292  1.109 .      S
C262  H293  1.107 .      S
N88   C263  1.443 .      S
N88   H294  1.034 .      S
C263  C264  1.459 .      S
C263  H295  1.103 .      S
C263  H296  1.099 .      S
C266  H297  1.079 .      S
C267  H298  1.079 .      S
C268  H299  1.081 .      S
C269  H300  1.067 .      S
C271  N91   1.452 .      S
C271  H301  1.109 .      S
C271  H302  1.108 .      S
C271  H303  1.108 .      S
N91   C272  1.449 1_655  S
N91   H304  1.040 .      S
C272  N91   1.449 1_455  S
C272  C273  1.502 .      S
C272  H305  1.107 .      S
C272  H306  1.110 .      S
N92   Zn21  2.039 1_455  S
C275  H307  1.081 .      S
C276  H308  1.081 .      S
C277  H309  1.082 .      S
C278  H310  1.077 .      S
C280  N94   1.451 .      S
C280  H311  1.109 .      S
C280  H312  1.109 .      S
C280  H313  1.109 .      S
N94   C281  1.445 .      S
N94   H314  1.037 .      S
C281  C282  1.488 .      S
C281  H315  1.104 .      S
C281  H316  1.104 .      S
C284  H317  1.079 .      S
C285  H318  1.081 .      S
C286  H319  1.081 .      S
C287  H320  1.081 .      S
C289  N97   1.451 .      S
C289  H321  1.108 .      S
C289  H322  1.106 .      S
C289  H323  1.103 .      S
N97   C290  1.445 .      S
N97   H324  1.042 .      S
C290  C291  1.477 .      S
C290  H325  1.109 .      S
C290  H326  1.109 .      S
C293  H327  1.081 .      S
C294  H328  1.081 .      S
C295  H329  1.081 .      S
C296  H330  1.080 .      S
C298  N100  1.443 .      S
C298  H331  1.107 .      S
C298  H332  1.094 .      S
C298  H333  1.108 .      S
N100  C299  1.448 .      S
N100  H334  1.041 .      S
C299  C300  1.476 .      S
C299  H335  1.108 .      S
C299  H336  1.105 .      S
C302  H337  1.081 .      S
C303  H338  1.081 .      S
C304  H339  1.078 .      S
C305  H340  1.074 .      S
C307  N103  1.440 .      S
C307  H341  1.109 .      S
C307  H342  1.095 .      S
C307  H343  1.101 .      S
N103  C308  1.441 .      S
N103  H344  1.037 .      S
C308  C309  1.461 .      S
C308  H345  1.104 .      S
C308  H346  1.107 .      S
C311  H347  1.079 .      S
C312  H348  1.081 .      S
C313  H349  1.081 .      S
C314  H350  1.081 .      S
C316  N106  1.452 1_655  S
C316  H351  1.109 .      S
C316  H352  1.109 .      S
C316  H353  1.109 .      S
N106  C316  1.452 1_455  S
N106  C317  1.448 .      S
N106  H354  1.042 .      S
C317  C318  1.484 .      S
C317  H355  1.109 1_455  S
C317  H356  1.109 .      S
C320  H357  1.072 .      S
C321  H358  1.081 .      S
C322  H359  1.081 .      S
C323  H360  1.078 .      S
N108  Zn24  1.978 1_455  S
H355  C317  1.109 1_655  S
C325  N109  1.447 .      S
C325  H361  1.108 .      S
C325  H362  1.105 .      S
C325  H363  1.105 .      S
N109  C326  1.441 .      S
N109  H364  1.041 .      S
C326  C327  1.479 .      S
C326  H365  1.098 .      S
C326  H366  1.092 .      S
C329  H367  1.071 .      S
C330  H368  1.078 .      S
C331  H369  1.080 .      S
C332  H370  1.075 .      S
C334  N112  1.452 .      S
C334  H371  1.109 .      S
C334  H372  1.101 .      S
C334  H373  1.108 .      S
N112  C335  1.450 .      S
N112  H374  1.041 .      S
C335  C336  1.485 .      S
C335  H375  1.107 .      S
C335  H376  1.104 .      S
C338  H377  1.032 .      S
C339  H378  1.079 .      S
C340  H379  1.078 .      S
C341  H380  1.066 .      S
C343  N115  1.455 .      S
C343  H381  1.109 .      S
C343  H382  1.102 .      S
C343  H383  1.100 .      S
N115  C344  1.450 .      S
N115  H384  1.038 .      S
C344  C345  1.495 .      S
C344  H385  1.109 .      S
C344  H386  1.107 .      S
C347  H387  1.074 .      S
C348  H388  1.077 .      S
C349  H389  1.081 .      S
C350  H390  1.081 .      S
C352  N118  1.452 .      S
C352  H391  1.107 .      S
C352  H392  1.109 .      S
C352  H393  1.105 .      S
N118  C353  1.454 .      S
N118  H394  1.042 .      S
C353  C354  1.469 .      S
C353  H395  1.102 .      S
C353  H396  1.101 .      S
C356  H397  1.079 .      S
C357  H398  1.081 .      S
C358  H399  1.080 .      S
C359  H400  1.075 .      S
N120  Zn19  2.015 1_455  S
C361  N121  1.448 .      S
C361  H401  1.104 .      S
C361  H402  1.109 .      S
C361  H403  1.108 .      S
N121  C362  1.445 1_455  S
N121  H404  1.043 .      S
C362  N121  1.445 1_655  S
C362  C363  1.481 .      S
C362  H405  1.108 .      S
C362  H406  1.109 .      S
C365  H407  1.069 .      S
C366  H408  1.081 .      S
C367  H409  1.081 .      S
C368  H410  1.077 .      S
C370  N124  1.453 .      S
C370  H411  1.101 .      S
C370  H412  1.102 .      S
C370  H413  1.098 .      S
N124  C371  1.442 .      S
N124  H414  1.044 .      S
C371  C372  1.465 .      S
C371  H415  1.093 .      S
C371  H416  1.095 .      S
C374  H417  1.052 .      S
C375  H418  1.079 .      S
C376  H419  1.081 .      S
C377  H420  1.076 .      S
C379  N127  1.450 .      S
C379  H421  1.101 .      S
C379  H422  1.107 .      S
C379  H423  1.108 .      S
N127  C380  1.450 .      S
N127  H424  1.043 .      S
C380  C381  1.486 .      S
C380  H425  1.106 .      S
C380  H426  1.101 .      S
C383  H427  1.078 .      S
C384  H428  1.081 .      S
C385  H429  1.081 .      S
C386  H430  1.070 .      S
C388  N130  1.453 .      S
C388  H431  1.108 .      S
C388  H432  1.109 .      S
C388  H433  1.108 .      S
N130  C389  1.444 .      S
N130  H434  1.042 .      S
C389  C390  1.480 1_455  S
C389  H435  1.109 .      S
C389  H436  1.107 .      S
C390  C389  1.480 1_655  S
C392  H437  1.066 .      S
C393  H438  1.070 .      S
C394  H439  1.081 .      S
C395  H440  1.082 .      S
C397  N133  1.455 .      S
C397  H441  1.107 .      S
C397  H442  1.108 .      S
C397  H443  1.107 1_455  S
N133  C398  1.457 .      S
N133  H444  1.040 .      S
C398  C399  1.491 .      S
C398  H445  1.107 1_455  S
C398  H446  1.107 .      S
C401  H447  1.081 .      S
C402  H448  1.079 .      S
C403  H449  1.079 .      S
C404  H450  1.081 .      S
N135  Zn27  1.964 1_455  S
H443  C397  1.107 1_655  S
H445  C398  1.107 1_655  S
C406  N136  1.431 .      S
C406  H451  1.093 .      S
C406  H452  1.092 .      S
C406  H453  1.108 .      S
N136  C407  1.441 .      S
N136  H454  1.044 .      S
C407  C408  1.498 .      S
C407  H455  1.104 .      S
C407  H456  1.109 .      S
C410  H457  1.059 .      S
C411  H458  1.081 .      S
C412  H459  1.080 .      S
C413  H460  1.075 .      S
C415  N139  1.453 .      S
C415  H461  1.108 1_455  S
C415  H462  1.105 .      S
C415  H463  1.108 .      S
N139  C416  1.448 .      S
N139  H464  1.043 .      S
C416  C417  1.474 .      S
C416  H465  1.103 .      S
C416  H466  1.094 .      S
C419  H467  1.082 .      S
C420  H468  1.081 .      S
C421  H469  1.081 .      S
C422  H470  1.081 .      S
H461  C415  1.108 1_655  S
C424  N142  1.449 .      S
C424  H471  1.108 .      S
C424  H472  1.107 1_455  S
C424  H473  1.099 .      S
N142  C425  1.435 1_455  S
N142  H474  1.042 .      S
C425  N142  1.435 1_655  S
C425  C426  1.477 .      S
C425  H475  1.102 .      S
C425  H476  1.092 .      S
C428  H477  1.078 .      S
C429  H478  1.081 .      S
C430  H479  1.081 .      S
C431  H480  1.080 .      S
H472  C424  1.107 1_655  S
C433  N145  1.445 .      S
C433  H481  1.109 .      S
C433  H482  1.106 .      S
C433  H483  1.109 1_455  S
N145  C434  1.450 1_455  S
N145  H484  1.038 .      S
C434  N145  1.450 1_655  S
C434  C435  1.479 .      S
C434  H485  1.109 .      S
C434  H486  1.103 .      S
C437  H487  1.077 .      S
C438  H488  1.081 .      S
C439  H489  1.078 .      S
C440  H490  1.077 .      S
H483  C433  1.109 1_655  S
C442  N148  1.451 .      S
C442  H491  1.102 .      S
C442  H492  1.109 .      S
C442  H493  1.109 .      S
N148  C443  1.452 .      S
N148  H494  1.044 .      S
C443  C444  1.483 .      S
C443  H495  1.092 .      S
C443  H496  1.103 .      S
C446  H497  1.079 .      S
C447  H498  1.081 1_455  S
C448  H499  1.081 1_455  S
C449  H500  1.070 .      S
H498  C447  1.081 1_655  S
H499  C448  1.081 1_655  S
C451  N151  1.454 1_655  S
C451  H501  1.106 1_655  S
C451  H502  1.108 1_655  S
C451  H503  1.109 .      S
N151  C451  1.454 1_455  S
N151  C452  1.449 1_455  S
N151  H504  1.044 .      S
C452  N151  1.449 1_655  S
C452  C453  1.489 1_655  S
C452  H505  1.109 .      S
C452  H506  1.098 .      S
C453  C452  1.489 1_455  S
C455  H507  1.079 .      S
C456  H508  1.069 .      S
C457  H509  1.070 .      S
C458  H510  1.078 .      S
N153  Zn25  1.997 1_455  S
H501  C451  1.106 1_455  S
H502  C451  1.108 1_455  S
C460  N154  1.449 .      S
C460  H511  1.109 .      S
C460  H512  1.107 .      S
C460  H513  1.086 .      S
N154  C461  1.450 .      S
N154  H514  1.043 .      S
C461  C462  1.490 .      S
C461  H515  1.105 .      S
C461  H516  1.108 .      S
C464  H517  1.075 .      S
C465  H518  1.077 .      S
C466  H519  1.079 .      S
C467  H520  1.078 .      S
C469  N157  1.444 .      S
C469  H521  1.108 .      S
C469  H522  1.097 .      S
C469  H523  1.105 .      S
N157  C470  1.445 .      S
N157  H524  1.045 .      S
C470  C471  1.477 1_455  S
C470  H525  1.095 1_455  S
C470  H526  1.106 .      S
C471  C470  1.477 1_655  S
C473  H527  1.078 .      S
C474  H528  1.079 .      S
C475  H529  1.079 .      S
C476  H530  1.062 .      S
N159  Zn1   2.037 1_554  S
H525  C470  1.095 1_655  S
C478  N160  1.442 .      S
C478  H531  1.102 .      S
C478  H532  1.106 1_655  S
C478  H533  1.103 .      S
N160  C479  1.440 .      S
N160  H534  1.042 .      S
C479  C480  1.476 .      S
C479  H535  1.108 .      S
C479  H536  1.099 1_655  S
C482  H537  1.078 .      S
C483  H538  1.075 .      S
C484  H539  1.078 .      S
C485  H540  1.077 .      S
H532  C478  1.106 1_455  S
H536  C479  1.099 1_455  S
C487  N163  1.438 .      S
C487  H541  1.101 .      S
C487  H542  1.107 .      S
C487  H543  1.104 .      S
N163  C488  1.441 .      S
N163  H544  1.043 .      S
C488  C489  1.462 .      S
C488  H545  1.105 .      S
C488  H546  1.109 .      S
C491  H547  1.061 .      S
C492  H548  1.079 .      S
C493  H549  1.076 .      S
C494  H550  1.081 .      S
C496  N166  1.451 .      S
C496  H551  1.109 .      S
C496  H552  1.109 1_455  S
C496  H553  1.108 .      S
N166  C497  1.452 .      S
N166  H554  1.044 .      S
C497  C498  1.486 .      S
C497  H555  1.108 1_455  S
C497  H556  1.108 .      S
C500  H557  1.081 .      S
C501  H558  1.081 .      S
C502  H559  1.072 .      S
C503  H560  1.077 .      S
N168  Zn28  2.067 1_455  S
H552  C496  1.109 1_655  S
H555  C497  1.108 1_655  S
C3    N2    1.362 .      A
C3    N3    1.370 1_554  A
N2    C4    1.344 1_554  A
C4    N2    1.344 1_556  A
C4    C5    1.373 .      A
C4    C9    1.358 .      A
C5    C6    1.386 .      A
C6    C7    1.393 .      A
C7    C8    1.386 .      A
C8    C9    1.371 .      A
C9    N3    1.347 .      A
N3    C3    1.370 1_556  A
C12   N5    1.367 1_554  A
C12   N6    1.367 1_565  A
N5    C12   1.367 1_556  A
N5    C13   1.350 .      A
C13   C14   1.375 1_655  A
C13   C18   1.367 1_565  A
C14   C13   1.375 1_455  A
C14   C15   1.386 1_565  A
C15   C14   1.386 1_545  A
C15   C16   1.391 .      A
C16   C17   1.386 .      A
C17   C18   1.373 1_455  A
C18   C13   1.367 1_545  A
C18   C17   1.373 1_655  A
C18   N6    1.346 1_556  A
N6    C12   1.367 1_545  A
N6    C18   1.346 1_554  A
C21   N8    1.373 .      A
C21   N9    1.364 1_455  A
N8    C22   1.348 .      A
C22   C23   1.373 .      A
C22   C27   1.365 1_455  A
C23   C24   1.385 1_455  A
C24   C23   1.385 1_655  A
C24   C25   1.392 .      A
C25   C26   1.388 .      A
C26   C27   1.371 .      A
C27   C22   1.365 1_655  A
C27   N9    1.345 .      A
N9    C21   1.364 1_655  A
C30   N11   1.371 .      A
C30   N12   1.373 .      A
N11   C31   1.338 .      A
C31   C32   1.368 1_554  A
C31   C36   1.354 .      A
C32   C31   1.368 1_556  A
C32   C33   1.385 .      A
C33   C34   1.392 .      A
C34   C35   1.387 1_556  A
C35   C34   1.387 1_554  A
C35   C36   1.369 .      A
C36   N12   1.348 .      A
C39   N14   1.387 .      A
C39   N15   1.372 1_455  A
N14   C40   1.344 .      A
C40   C41   1.357 .      A
C40   C45   1.345 1_455  A
C41   C42   1.385 1_445  A
C42   C41   1.385 1_665  A
C42   C43   1.390 .      A
C43   C44   1.385 1_565  A
C44   C43   1.385 1_545  A
C44   C45   1.371 .      A
C45   C40   1.345 1_655  A
C45   N15   1.334 .      A
N15   C39   1.372 1_655  A
C48   N17   1.366 .      A
C48   N18   1.368 .      A
N17   C49   1.350 .      A
C49   C50   1.371 .      A
C49   C54   1.349 .      A
C50   C51   1.386 .      A
C51   C52   1.389 1_554  A
C52   C51   1.389 1_556  A
C52   C53   1.383 1_556  A
C53   C52   1.383 1_554  A
C53   C54   1.373 .      A
C54   N18   1.335 .      A
C57   N20   1.378 1_565  A
C57   N21   1.359 .      A
N20   C57   1.378 1_545  A
N20   C58   1.358 1_545  A
C58   N20   1.358 1_565  A
C58   C59   1.383 .      A
C58   C63   1.366 .      A
C59   C60   1.386 .      A
C60   C61   1.389 .      A
C61   C62   1.383 .      A
C62   C63   1.373 .      A
C63   N21   1.343 .      A
C66   N23   1.388 .      A
C66   N24   1.362 .      A
N23   C67   1.360 .      A
C67   C68   1.375 .      A
C67   C72   1.360 .      A
C68   C69   1.387 .      A
C69   C70   1.389 .      A
C70   C71   1.381 .      A
C71   C72   1.370 .      A
C72   N24   1.333 .      A
C75   N26   1.387 .      A
C75   N27   1.371 .      A
N26   C76   1.344 .      A
C76   C77   1.376 .      A
C76   C81   1.350 .      A
C77   C78   1.378 .      A
C78   C79   1.389 .      A
C79   C80   1.369 .      A
C80   C81   1.334 .      A
C81   N27   1.323 .      A
C84   N29   1.372 .      A
C84   N30   1.371 .      A
N29   C85   1.346 .      A
C85   C86   1.372 1_556  A
C85   C90   1.357 .      A
C86   C85   1.372 1_554  A
C86   C87   1.385 .      A
C87   C88   1.385 .      A
C88   C89   1.380 .      A
C89   C90   1.379 1_554  A
C90   C89   1.379 1_556  A
C90   N30   1.350 .      A
C93   N32   1.370 .      A
C93   N33   1.374 .      A
N32   C94   1.344 .      A
C94   C95   1.364 .      A
C94   C99   1.353 .      A
C95   C96   1.374 .      A
C96   C97   1.398 .      A
C97   C98   1.379 .      A
C98   C99   1.364 .      A
C99   N33   1.335 .      A
C102  N35   1.370 .      A
C102  N36   1.370 .      A
N35   C103  1.342 .      A
C103  C104  1.369 .      A
C103  C108  1.362 .      A
C104  C105  1.383 .      A
C105  C106  1.384 .      A
C106  C107  1.387 .      A
C107  C108  1.370 .      A
C108  N36   1.348 .      A
C111  N38   1.401 .      A
C111  N39   1.364 .      A
N38   C112  1.357 .      A
C112  C113  1.374 .      A
C112  C117  1.373 .      A
C113  C114  1.386 .      A
C114  C115  1.390 .      A
C115  C116  1.383 .      A
C116  C117  1.372 .      A
C117  N39   1.342 .      A
C120  N41   1.357 .      A
C120  N42   1.360 .      A
N41   C121  1.346 .      A
C121  C122  1.373 .      A
C121  C126  1.363 .      A
C122  C123  1.387 .      A
C123  C124  1.393 .      A
C124  C125  1.386 .      A
C125  C126  1.371 .      A
C126  N42   1.345 .      A
C129  N44   1.379 .      A
C129  N45   1.371 .      A
N44   C130  1.348 .      A
C130  C131  1.356 .      A
C130  C135  1.352 .      A
C131  C132  1.384 .      A
C132  C133  1.391 .      A
C133  C134  1.373 .      A
C134  C135  1.356 .      A
C135  N45   1.328 .      A
C138  N47   1.369 .      A
C138  N48   1.361 1_565  A
N47   C139  1.342 .      A
C139  C140  1.371 .      A
C139  C144  1.367 .      A
C140  C141  1.384 .      A
C141  C142  1.391 .      A
C142  C143  1.387 1_565  A
C143  C142  1.387 1_545  A
C143  C144  1.379 1_545  A
C144  C143  1.379 1_565  A
C144  N48   1.354 1_565  A
N48   C138  1.361 1_545  A
N48   C144  1.354 1_545  A
C147  N50   1.382 .      A
C147  N51   1.364 .      A
N50   C148  1.324 .      A
C148  C149  1.365 .      A
C148  C153  1.333 .      A
C149  C150  1.370 .      A
C150  C151  1.383 1_455  A
C151  C150  1.383 1_655  A
C151  C152  1.407 .      A
C152  C153  1.339 1_655  A
C153  C152  1.339 1_455  A
C153  N51   1.338 .      A
C156  N53   1.390 .      A
C156  N54   1.361 .      A
N53   C157  1.344 .      A
C157  C158  1.374 .      A
C157  C162  1.352 .      A
C158  C159  1.381 .      A
C159  C160  1.384 .      A
C160  C161  1.384 .      A
C161  C162  1.366 .      A
C162  N54   1.342 .      A
C165  N56   1.359 .      A
C165  N57   1.368 .      A
N56   C166  1.347 .      A
C166  C167  1.379 .      A
C166  C171  1.372 .      A
C167  C168  1.386 .      A
C168  C169  1.392 .      A
C169  C170  1.385 .      A
C170  C171  1.372 .      A
C171  N57   1.346 .      A
C174  N59   1.370 .      A
C174  N60   1.382 .      A
N59   C175  1.335 .      A
C175  C176  1.378 .      A
C175  C180  1.348 .      A
C176  C177  1.375 .      A
C177  C178  1.377 .      A
C178  C179  1.380 .      A
C179  C180  1.371 .      A
C180  N60   1.361 .      A
C183  N62   1.359 1_455  A
C183  N63   1.371 .      A
N62   C183  1.359 1_655  A
N62   C184  1.333 .      A
C184  C185  1.358 .      A
C184  C189  1.342 1_655  A
C185  C186  1.387 .      A
C186  C187  1.394 1_655  A
C187  C186  1.394 1_455  A
C187  C188  1.390 .      A
C188  C189  1.379 .      A
C189  C184  1.342 1_455  A
C189  N63   1.347 .      A
C192  N65   1.368 .      A
C192  N66   1.385 .      A
N65   C193  1.337 .      A
C193  C194  1.365 .      A
C193  C198  1.356 .      A
C194  C195  1.385 .      A
C195  C196  1.388 .      A
C196  C197  1.377 .      A
C197  C198  1.367 .      A
C198  N66   1.340 .      A
C201  N68   1.367 .      A
C201  N69   1.373 .      A
N68   C202  1.342 .      A
C202  C203  1.372 .      A
C202  C207  1.364 .      A
C203  C204  1.385 .      A
C204  C205  1.391 .      A
C205  C206  1.386 .      A
C206  C207  1.371 .      A
C207  N69   1.347 .      A
C210  N71   1.355 1_565  A
C210  N72   1.350 .      A
N71   C210  1.355 1_545  A
N71   C211  1.355 .      A
C211  C212  1.381 1_655  A
C211  C216  1.369 1_545  A
C212  C211  1.381 1_455  A
C212  C213  1.386 .      A
C213  C214  1.389 1_545  A
C214  C213  1.389 1_565  A
C214  C215  1.383 .      A
C215  C216  1.371 1_455  A
C216  C211  1.369 1_565  A
C216  C215  1.371 1_655  A
C216  N72   1.344 .      A
C219  N74   1.361 .      A
C219  N75   1.387 .      A
N74   C220  1.339 .      A
C220  C221  1.367 .      A
C220  C225  1.361 .      A
C221  C222  1.383 .      A
C222  C223  1.390 .      A
C223  C224  1.384 .      A
C224  C225  1.370 .      A
C225  N75   1.346 .      A
C228  N77   1.373 .      A
C228  N78   1.372 .      A
N77   C229  1.350 .      A
C229  C230  1.372 .      A
C229  C234  1.370 .      A
C230  C231  1.385 .      A
C231  C232  1.390 .      A
C232  C233  1.384 .      A
C233  C234  1.380 .      A
C234  N78   1.351 .      A
C237  N80   1.388 .      A
C237  N81   1.378 1_455  A
N80   C238  1.340 .      A
C238  C239  1.362 .      A
C238  C243  1.353 1_455  A
C239  C240  1.388 1_455  A
C240  C239  1.388 1_655  A
C240  C241  1.395 .      A
C241  C242  1.386 .      A
C242  C243  1.362 .      A
C243  C238  1.353 1_655  A
C243  N81   1.338 .      A
N81   C237  1.378 1_655  A
C246  N83   1.376 .      A
C246  N84   1.378 .      A
N83   C247  1.339 .      A
C247  C248  1.374 .      A
C247  C252  1.346 .      A
C248  C249  1.377 .      A
C249  C250  1.384 .      A
C250  C251  1.383 .      A
C251  C252  1.371 .      A
C252  N84   1.344 .      A
C255  N86   1.378 .      A
C255  N87   1.372 .      A
N86   C256  1.337 .      A
C256  C257  1.367 .      A
C256  C261  1.354 .      A
C257  C258  1.379 .      A
C258  C259  1.376 .      A
C259  C260  1.374 .      A
C260  C261  1.368 .      A
C261  N87   1.352 .      A
C264  N89   1.366 .      A
C264  N90   1.360 .      A
N89   C265  1.335 .      A
C265  C266  1.365 .      A
C265  C270  1.352 .      A
C266  C267  1.382 .      A
C267  C268  1.392 .      A
C268  C269  1.386 .      A
C269  C270  1.370 .      A
C270  N90   1.349 .      A
C273  N92   1.383 .      A
C273  N93   1.361 .      A
N92   C274  1.341 .      A
C274  C275  1.371 .      A
C274  C279  1.365 .      A
C275  C276  1.382 .      A
C276  C277  1.389 .      A
C277  C278  1.390 .      A
C278  C279  1.373 .      A
C279  N93   1.349 .      A
C282  N95   1.368 .      A
C282  N96   1.372 .      A
N95   C283  1.346 .      A
C283  C284  1.371 .      A
C283  C288  1.356 .      A
C284  C285  1.386 .      A
C285  C286  1.393 .      A
C286  C287  1.386 .      A
C287  C288  1.372 .      A
C288  N96   1.344 .      A
C291  N98   1.372 .      A
C291  N99   1.370 .      A
N98   C292  1.345 .      A
C292  C293  1.370 .      A
C292  C297  1.363 .      A
C293  C294  1.387 .      A
C294  C295  1.393 .      A
C295  C296  1.387 .      A
C296  C297  1.374 .      A
C297  N99   1.345 .      A
C300  N101  1.361 .      A
C300  N102  1.371 .      A
N101  C301  1.341 .      A
C301  C302  1.373 .      A
C301  C306  1.361 .      A
C302  C303  1.382 .      A
C303  C304  1.390 .      A
C304  C305  1.386 .      A
C305  C306  1.374 .      A
C306  N102  1.353 .      A
C309  N104  1.368 .      A
C309  N105  1.382 .      A
N104  C310  1.346 .      A
C310  C311  1.372 .      A
C310  C315  1.370 .      A
C311  C312  1.386 .      A
C312  C313  1.392 .      A
C313  C314  1.387 .      A
C314  C315  1.373 .      A
C315  N105  1.348 .      A
C318  N107  1.370 .      A
C318  N108  1.370 .      A
N107  C319  1.343 .      A
C319  C320  1.367 .      A
C319  C324  1.355 .      A
C320  C321  1.385 .      A
C321  C322  1.391 .      A
C322  C323  1.385 .      A
C323  C324  1.374 .      A
C324  N108  1.343 .      A
C327  N110  1.374 .      A
C327  N111  1.385 .      A
N110  C328  1.342 .      A
C328  C329  1.362 .      A
C328  C333  1.360 .      A
C329  C330  1.386 .      A
C330  C331  1.390 .      A
C331  C332  1.383 .      A
C332  C333  1.372 .      A
C333  N111  1.344 .      A
C336  N113  1.367 .      A
C336  N114  1.366 .      A
N113  C337  1.353 .      A
C337  C338  1.361 1_655  A
C337  C342  1.335 .      A
C338  C337  1.361 1_455  A
C338  C339  1.384 .      A
C339  C340  1.383 .      A
C340  C341  1.376 .      A
C341  C342  1.354 1_455  A
C342  C341  1.354 1_655  A
C342  N114  1.320 .      A
C345  N116  1.376 .      A
C345  N117  1.378 .      A
N116  C346  1.347 .      A
C346  C347  1.374 .      A
C346  C351  1.353 .      A
C347  C348  1.383 .      A
C348  C349  1.386 .      A
C349  C350  1.381 .      A
C350  C351  1.383 .      A
C351  N117  1.346 .      A
C354  N119  1.373 .      A
C354  N120  1.376 .      A
N119  C355  1.345 .      A
C355  C356  1.371 .      A
C355  C360  1.352 1_455  A
C356  C357  1.386 1_455  A
C357  C356  1.386 1_655  A
C357  C358  1.392 .      A
C358  C359  1.386 .      A
C359  C360  1.371 .      A
C360  C355  1.352 1_655  A
C360  N120  1.342 1_655  A
N120  C360  1.342 1_455  A
C363  N122  1.377 .      A
C363  N123  1.371 .      A
N122  C364  1.357 .      A
C364  C365  1.381 .      A
C364  C369  1.361 .      A
C365  C366  1.386 .      A
C366  C367  1.388 .      A
C367  C368  1.382 .      A
C368  C369  1.371 .      A
C369  N123  1.337 .      A
C372  N125  1.371 .      A
C372  N126  1.377 .      A
N125  C373  1.349 .      A
C373  C374  1.365 .      A
C373  C378  1.353 .      A
C374  C375  1.382 .      A
C375  C376  1.384 .      A
C376  C377  1.381 .      A
C377  C378  1.380 .      A
C378  N126  1.347 .      A
C381  N128  1.370 .      A
C381  N129  1.380 .      A
N128  C382  1.344 .      A
C382  C383  1.373 .      A
C382  C387  1.362 .      A
C383  C384  1.384 .      A
C384  C385  1.390 .      A
C385  C386  1.385 .      A
C386  C387  1.369 .      A
C387  N129  1.348 .      A
C390  N131  1.383 .      A
C390  N132  1.382 .      A
N131  C391  1.351 .      A
C391  C392  1.367 .      A
C391  C396  1.362 .      A
C392  C393  1.379 .      A
C393  C394  1.387 .      A
C394  C395  1.380 .      A
C395  C396  1.376 .      A
C396  N132  1.342 .      A
C399  N134  1.364 .      A
C399  N135  1.369 .      A
N134  C400  1.343 .      A
C400  C401  1.373 .      A
C400  C405  1.353 .      A
C401  C402  1.383 .      A
C402  C403  1.393 .      A
C403  C404  1.386 .      A
C404  C405  1.370 .      A
C405  N135  1.343 .      A
C408  N137  1.387 .      A
C408  N138  1.363 .      A
N137  C409  1.345 .      A
C409  C410  1.355 .      A
C409  C414  1.348 .      A
C410  C411  1.384 .      A
C411  C412  1.389 .      A
C412  C413  1.386 .      A
C413  C414  1.369 .      A
C414  N138  1.334 .      A
C417  N140  1.378 .      A
C417  N141  1.358 .      A
N140  C418  1.357 .      A
C418  C419  1.382 .      A
C418  C423  1.367 .      A
C419  C420  1.386 .      A
C420  C421  1.391 .      A
C421  C422  1.384 .      A
C422  C423  1.373 .      A
C423  N141  1.343 .      A
C426  N143  1.371 .      A
C426  N144  1.375 .      A
N143  C427  1.349 .      A
C427  C428  1.373 .      A
C427  C432  1.367 .      A
C428  C429  1.387 .      A
C429  C430  1.392 .      A
C430  C431  1.385 .      A
C431  C432  1.371 .      A
C432  N144  1.343 .      A
C435  N146  1.386 .      A
C435  N147  1.382 .      A
N146  C436  1.343 .      A
C436  C437  1.370 .      A
C436  C441  1.367 .      A
C437  C438  1.383 .      A
C438  C439  1.390 .      A
C439  C440  1.386 .      A
C440  C441  1.370 .      A
C441  N147  1.350 .      A
C444  N149  1.380 .      A
C444  N150  1.378 .      A
N149  C445  1.338 .      A
C445  C446  1.370 .      A
C445  C450  1.360 .      A
C446  C447  1.383 .      A
C447  C448  1.390 .      A
C448  C449  1.386 .      A
C449  C450  1.375 .      A
C450  N150  1.352 .      A
C453  N152  1.381 .      A
C453  N153  1.377 .      A
N152  C454  1.343 .      A
C454  C455  1.363 .      A
C454  C459  1.352 .      A
C455  C456  1.386 .      A
C456  C457  1.390 .      A
C457  C458  1.368 .      A
C458  C459  1.360 .      A
C459  N153  1.329 .      A
C462  N155  1.379 .      A
C462  N156  1.378 .      A
N155  C463  1.341 .      A
C463  C464  1.367 .      A
C463  C468  1.354 .      A
C464  C465  1.382 .      A
C465  C466  1.388 .      A
C466  C467  1.385 .      A
C467  C468  1.368 .      A
C468  N156  1.340 .      A
C471  N158  1.372 .      A
C471  N159  1.373 .      A
N158  C472  1.339 .      A
C472  C473  1.373 .      A
C472  C477  1.359 .      A
C473  C474  1.383 .      A
C474  C475  1.390 .      A
C475  C476  1.380 .      A
C476  C477  1.367 .      A
C477  N159  1.351 .      A
C480  N161  1.375 .      A
C480  N162  1.365 .      A
N161  C481  1.346 .      A
C481  C482  1.372 .      A
C481  C486  1.354 .      A
C482  C483  1.383 .      A
C483  C484  1.393 .      A
C484  C485  1.382 .      A
C485  C486  1.370 .      A
C486  N162  1.340 .      A
C489  N164  1.374 .      A
C489  N165  1.377 .      A
N164  C490  1.336 .      A
C490  C491  1.350 .      A
C490  C495  1.352 .      A
C491  C492  1.380 .      A
C492  C493  1.389 .      A
C493  C494  1.387 .      A
C494  C495  1.366 .      A
C495  N165  1.341 .      A
C498  N167  1.381 .      A
C498  N168  1.385 .      A
N167  C499  1.338 .      A
C499  C500  1.369 .      A
C499  C504  1.359 .      A
C500  C501  1.382 .      A
C501  C502  1.390 .      A
C502  C503  1.385 .      A
C503  C504  1.366 .      A
C504  N168  1.344 .      A
