data_str_m1_o12004_RRO
_audit_creation_date              2015-10-01T06:32:32-0700
_symmetry_space_group_name_H-M    P1
_symmetry_Int_Tables_number       1
_space_group_crystal_system       triclinic
loop_
_symmetry_equiv_pos_as_xyz
  x,y,z
_cell_length_a                    15.1772007
_cell_length_b                    17.8122236
_cell_length_c                    33.6150873
_cell_angle_alpha                 91.3928064
_cell_angle_beta                  88.7592502
_cell_angle_gamma                 89.2372024
_cell_volume                      9081.8067559

loop_
_atom_site_label
_atom_site_type_symbol
_atom_site_description
_atom_site_fract_x
_atom_site_fract_y
_atom_site_fract_z
_atom_type_partial_charge
Zn1   Zn    Zn3+2 0.941548 0.920653 0.600113 0.000000
Zn2   Zn    Zn3+2 0.362008 0.204126 0.702578 0.000000
Zn3   Zn    Zn3+2 0.189373 0.938276 0.335157 0.000000
Zn4   Zn    Zn3+2 0.554276 0.097117 0.280367 0.000000
Zn5   Zn    Zn3+2 0.314959 0.388288 0.535085 0.000000
Zn6   Zn    Zn3+2 0.534659 0.963949 0.579256 0.000000
Zn7   Zn    Zn3+2 0.020777 0.155083 0.471557 0.000000
Zn8   Zn    Zn3+2 0.251740 0.747213 0.499593 0.000000
Zn9   Zn    Zn3+2 0.627988 0.218450 0.452485 0.000000
Zn10  Zn    Zn3+2 0.100565 0.934214 0.942665 0.000000
Zn11  Zn    Zn3+2 0.808388 0.750304 0.033621 0.000000
Zn12  Zn    Zn3+2 0.495636 0.962357 0.974043 0.000000
Zn13  Zn    Zn3+2 0.999335 0.047768 0.769074 0.000000
Zn14  Zn    Zn3+2 0.043323 0.178702 0.084097 0.000000
Zn15  Zn    Zn3+2 0.652552 0.194629 0.848231 0.000000
Zn16  Zn    Zn3+2 0.452524 0.206719 0.111498 0.000000
Zn17  Zn    Zn3+2 0.896833 0.928575 0.194617 0.000000
Zn18  Zn    Zn3+2 0.737773 0.393202 0.010149 0.000000
C1    C     C_3   0.718726 0.687578 0.589204 0.000000
N1    N     N_3   0.730033 0.762637 0.606075 0.000000
C2    C     C_3   0.701175 0.817482 0.577462 0.000000
C3    C     C_R   0.720362 0.895288 0.592400 0.000000
N2    N     N_R   0.802127 0.925866 0.601621 0.000000
C4    C     C_R   0.775666 0.987989 0.623082 0.000000
C5    C     C_R   0.822741 0.050090 0.633051 0.000000
C6    C     C_R   0.781318 0.108343 0.654184 0.000000
C7    C     C_R   0.698127 0.099755 0.669248 0.000000
C8    C     C_R   0.648676 0.042724 0.654315 0.000000
C9    C     C_R   0.687731 0.992071 0.627760 0.000000
N3    N     N_R   0.650321 0.939472 0.605214 0.000000
H1    H     H_    0.739020 0.645675 0.611215 0.000000
H2    H     H_    0.648601 0.678859 0.582217 0.000000
H3    H     H_    0.760318 0.679544 0.561877 0.000000
H4    H     H_    0.796942 0.769684 0.610993 0.000000
H5    H     H_    0.723932 0.803523 0.547007 0.000000
H6    H     H_    0.629542 0.814338 0.574769 0.000000
H7    H     H_    0.885628 0.057865 0.620588 0.000000
H8    H     H_    0.813241 0.160588 0.660051 0.000000
H9    H     H_    0.670278 0.140622 0.690280 0.000000
H10   H     H_    0.583832 0.038160 0.665637 0.000000
C10   C     C_3   0.771220 0.942799 0.505899 0.000000
N4    N     N_3   0.854350 0.956142 0.524554 0.000000
C11   C     C_3   0.865488 0.036308 0.530284 0.000000
C12   C     C_R   0.955254 0.048368 0.542282 0.000000
N5    N     N_R   0.985858 0.007724 0.572628 0.000000
C13   C     C_R   0.067619 0.030354 0.576685 0.000000
C14   C     C_R   0.126642 0.003008 0.603031 0.000000
C15   C     C_R   0.209574 0.030493 0.602863 0.000000
C16   C     C_R   0.231726 0.082026 0.575062 0.000000
C17   C     C_R   0.172441 0.105940 0.547320 0.000000
C18   C     C_R   0.087415 0.081517 0.548967 0.000000
N6    N     N_R   0.017469 0.093464 0.524628 0.000000
H11   H     H_    0.761302 0.882148 0.501330 0.000000
H12   H     H_    0.719858 0.967608 0.525593 0.000000
H13   H     H_    0.768602 0.967413 0.476485 0.000000
H14   H     H_    0.905763 0.933059 0.507358 0.000000
H15   H     H_    0.854754 0.068355 0.504061 0.000000
H16   H     H_    0.819871 0.056797 0.554073 0.000000
H17   H     H_    0.108124 0.964852 0.625202 0.000000
H18   H     H_    0.256539 0.012146 0.624329 0.000000
H19   H     H_    0.296728 0.104921 0.575539 0.000000
H20   H     H_    0.193548 0.146620 0.527956 0.000000
C19   C     C_3   0.187644 0.741630 0.656880 0.000000
N7    N     N_3   0.159988 0.739025 0.615723 0.000000
C20   C     C_3   0.162897 0.814777 0.600728 0.000000
C21   C     C_R   0.107179 0.819223 0.565019 0.000000
N8    N     N_R   0.017667 0.834800 0.569612 0.000000
C22   C     C_R   0.986452 0.801845 0.536886 0.000000
C23   C     C_R   0.901031 0.790779 0.529530 0.000000
C24   C     C_R   0.877939 0.756280 0.494181 0.000000
C25   C     C_R   0.942585 0.741268 0.465438 0.000000
C26   C     C_R   0.029812 0.755606 0.473468 0.000000
C27   C     C_R   0.051525 0.776829 0.511644 0.000000
N9    N     N_R   0.131398 0.785403 0.528346 0.000000
H21   H     H_    0.250058 0.772765 0.659428 0.000000
H22   H     H_    0.137265 0.770429 0.675918 0.000000
H23   H     H_    0.196495 0.683628 0.667494 0.000000
H24   H     H_    0.094587 0.721661 0.615676 0.000000
H25   H     H_    0.134701 0.851510 0.624355 0.000000
H26   H     H_    0.231162 0.831699 0.593723 0.000000
H27   H     H_    0.856868 0.808599 0.552398 0.000000
H28   H     H_    0.809609 0.745789 0.487877 0.000000
H29   H     H_    0.924451 0.721001 0.436231 0.000000
H30   H     H_    0.076206 0.757543 0.449079 0.000000
C28   C     C_3   0.100924 0.229000 0.610805 0.000000
N10   N     N_3   0.172109 0.277644 0.621661 0.000000
C29   C     C_3   0.254096 0.241327 0.608913 0.000000
C30   C     C_R   0.323681 0.292264 0.619459 0.000000
N11   N     N_R   0.335987 0.357306 0.597531 0.000000
C31   C     C_R   0.363034 0.404802 0.626301 0.000000
C32   C     C_R   0.395869 0.474942 0.621486 0.000000
C33   C     C_R   0.425302 0.512558 0.654966 0.000000
C34   C     C_R   0.407576 0.485894 0.692564 0.000000
C35   C     C_R   0.373623 0.415079 0.696923 0.000000
C36   C     C_R   0.362324 0.371729 0.662894 0.000000
N12   N     N_R   0.345894 0.297123 0.659434 0.000000
H31   H     H_    0.038098 0.258892 0.617775 0.000000
H32   H     H_    0.102037 0.218876 0.578755 0.000000
H33   H     H_    0.107770 0.174894 0.625760 0.000000
H34   H     H_    0.171439 0.282647 0.652643 0.000000
H35   H     H_    0.263486 0.189791 0.626054 0.000000
H36   H     H_    0.256175 0.232443 0.576365 0.000000
H37   H     H_    0.405174 0.496776 0.592265 0.000000
H38   H     H_    0.461947 0.563301 0.652044 0.000000
H39   H     H_    0.426272 0.518345 0.718557 0.000000
H40   H     H_    0.366929 0.392900 0.726354 0.000000
C37   C     C_3   0.592887 0.255035 0.640602 0.000000
N13   N     N_3   0.514805 0.211857 0.650346 0.000000
C38   C     C_3   0.492279 0.162384 0.616944 0.000000
C39   C     C_R   0.436870 0.102135 0.630540 0.000000
N14   N     N_R   0.458325 0.028396 0.619616 0.000000
C40   C     C_R   0.435789 0.991670 0.652293 0.000000
C41   C     C_R   0.472451 0.924895 0.662002 0.000000
C42   C     C_R   0.472770 0.903422 0.701066 0.000000
C43   C     C_R   0.443200 0.953929 0.730149 0.000000
C44   C     C_R   0.414041 0.023996 0.719111 0.000000
C45   C     C_R   0.405247 0.040053 0.680781 0.000000
N15   N     N_R   0.399031 0.110130 0.667662 0.000000
H41   H     H_    0.638292 0.223851 0.620469 0.000000
H42   H     H_    0.573033 0.309648 0.628410 0.000000
H43   H     H_    0.630742 0.265772 0.667868 0.000000
H44   H     H_    0.532981 0.178928 0.674059 0.000000
H45   H     H_    0.459424 0.192611 0.593025 0.000000
H46   H     H_    0.550278 0.130374 0.607705 0.000000
H47   H     H_    0.514359 0.898758 0.640490 0.000000
H48   H     H_    0.503802 0.851132 0.709113 0.000000
H49   H     H_    0.447446 0.940189 0.761154 0.000000
H50   H     H_    0.396038 0.068584 0.738820 0.000000
C46   C     C_3   0.138764 0.283504 0.376512 0.000000
N16   N     N_3   0.100731 0.216281 0.393119 0.000000
C47   C     C_3   0.140668 0.151530 0.372389 0.000000
C48   C     C_R   0.105093 0.080537 0.388600 0.000000
N17   N     N_R   0.047497 0.079896 0.421134 0.000000
C49   C     C_R   0.014300 0.009809 0.416945 0.000000
C50   C     C_R   0.947138 0.978427 0.437030 0.000000
C51   C     C_R   0.916756 0.908390 0.425270 0.000000
C52   C     C_R   0.958040 0.868549 0.394387 0.000000
C53   C     C_R   0.029321 0.899080 0.375330 0.000000
C54   C     C_R   0.053655 0.970558 0.386674 0.000000
N18   N     N_R   0.116280 0.010902 0.369601 0.000000
H51   H     H_    0.155229 0.274870 0.344435 0.000000
H52   H     H_    0.090005 0.330126 0.379623 0.000000
H53   H     H_    0.199302 0.298408 0.392623 0.000000
H54   H     H_    0.033941 0.217033 0.386274 0.000000
H55   H     H_    0.119854 0.154326 0.341683 0.000000
H56   H     H_    0.213540 0.152822 0.373412 0.000000
H57   H     H_    0.916417 0.011086 0.459157 0.000000
H58   H     H_    0.859998 0.884482 0.439636 0.000000
H59   H     H_    0.934278 0.814199 0.384971 0.000000
H60   H     H_    0.061631 0.867930 0.351317 0.000000
C55   C     C_3   0.128210 0.954869 0.495738 0.000000
N19   N     N_3   0.151014 0.895044 0.468559 0.000000
C56   C     C_3   0.218159 0.918677 0.441150 0.000000
C57   C     C_R   0.238072 0.852033 0.417431 0.000000
N20   N     N_R   0.254790 0.783572 0.435614 0.000000
C58   C     C_R   0.258395 0.737329 0.402890 0.000000
C59   C     C_R   0.281607 0.662483 0.400658 0.000000
C60   C     C_R   0.270960 0.623969 0.364813 0.000000
C61   C     C_R   0.239388 0.660467 0.331906 0.000000
C62   C     C_R   0.221992 0.736851 0.333748 0.000000
C63   C     C_R   0.235322 0.774808 0.369023 0.000000
N21   N     N_R   0.223689 0.849034 0.376614 0.000000
H61   H     H_    0.168008 0.949951 0.522573 0.000000
H62   H     H_    0.139017 0.008864 0.481466 0.000000
H63   H     H_    0.058216 0.948408 0.503832 0.000000
H64   H     H_    0.095666 0.885276 0.451778 0.000000
H65   H     H_    0.196720 0.964381 0.422984 0.000000
H66   H     H_    0.276385 0.939949 0.455283 0.000000
H67   H     H_    0.306325 0.633931 0.426058 0.000000
H68   H     H_    0.285211 0.564453 0.362562 0.000000
H69   H     H_    0.229183 0.629077 0.304502 0.000000
H70   H     H_    0.195858 0.764788 0.308619 0.000000
C64   C     C_3   0.412724 0.285913 0.350612 0.000000
N22   N     N_3   0.434048 0.246468 0.386445 0.000000
C65   C     C_3   0.467139 0.170725 0.376330 0.000000
C66   C     C_R   0.562001 0.173642 0.366306 0.000000
N23   N     N_R   0.619262 0.208445 0.391537 0.000000
C67   C     C_R   0.686850 0.225285 0.366730 0.000000
C68   C     C_R   0.752698 0.276773 0.372489 0.000000
C69   C     C_R   0.809546 0.292290 0.341434 0.000000
C70   C     C_R   0.800145 0.256381 0.305138 0.000000
C71   C     C_R   0.733517 0.205278 0.299887 0.000000
C72   C     C_R   0.675343 0.193060 0.330423 0.000000
N24   N     N_R   0.596976 0.158335 0.328800 0.000000
H71   H     H_    0.398588 0.345597 0.358118 0.000000
H72   H     H_    0.467707 0.282016 0.328660 0.000000
H73   H     H_    0.350979 0.263450 0.338734 0.000000
H74   H     H_    0.373117 0.242311 0.400666 0.000000
H75   H     H_    0.460447 0.133489 0.401703 0.000000
H76   H     H_    0.430207 0.147531 0.351725 0.000000
H77   H     H_    0.755126 0.311712 0.398352 0.000000
H78   H     H_    0.859537 0.334396 0.345160 0.000000
H79   H     H_    0.843614 0.270228 0.280659 0.000000
H80   H     H_    0.724175 0.179314 0.272059 0.000000
C73   C     C_3   0.440790 0.791414 0.312401 0.000000
N25   N     N_3   0.392956 0.856369 0.329338 0.000000
C74   C     C_3   0.446383 0.921602 0.322529 0.000000
C75   C     C_R   0.392761 0.988051 0.312179 0.000000
N26   N     N_R   0.301325 0.991490 0.314500 0.000000
C76   C     C_R   0.284520 0.057535 0.297882 0.000000
C77   C     C_R   0.204332 0.085047 0.287294 0.000000
C78   C     C_R   0.200132 0.156570 0.272332 0.000000
C79   C     C_R   0.275373 0.199382 0.270464 0.000000
C80   C     C_R   0.356384 0.168169 0.278707 0.000000
C81   C     C_R   0.359699 0.094572 0.289719 0.000000
N27   N     N_R   0.431327 0.051707 0.296865 0.000000
H81   H     H_    0.409458 0.739307 0.322591 0.000000
H82   H     H_    0.439488 0.792105 0.279420 0.000000
H83   H     H_    0.509801 0.791323 0.322641 0.000000
H84   H     H_    0.392485 0.849787 0.360083 0.000000
H85   H     H_    0.480603 0.935484 0.350189 0.000000
H86   H     H_    0.492985 0.909564 0.297378 0.000000
H87   H     H_    0.145919 0.053364 0.292346 0.000000
H88   H     H_    0.137197 0.181198 0.265105 0.000000
H89   H     H_    0.270967 0.257700 0.263181 0.000000
H90   H     H_    0.413709 0.202399 0.278134 0.000000
C82   C     C_3   0.638803 0.433409 0.547744 0.000000
N28   N     N_3   0.628601 0.352291 0.545402 0.000000
C83   C     C_3   0.535071 0.336238 0.547235 0.000000
C84   C     C_R   0.498996 0.327208 0.507020 0.000000
N29   N     N_R   0.427901 0.372283 0.499652 0.000000
C85   C     C_R   0.444288 0.393353 0.461917 0.000000
C86   C     C_R   0.404715 0.449671 0.441121 0.000000
C87   C     C_R   0.443206 0.470822 0.405557 0.000000
C88   C     C_R   0.519090 0.435206 0.390977 0.000000
C89   C     C_R   0.555873 0.376874 0.411440 0.000000
C90   C     C_R   0.517122 0.356682 0.446767 0.000000
N30   N     N_R   0.549715 0.308960 0.473390 0.000000
H91   H     H_    0.709502 0.446984 0.543943 0.000000
H92   H     H_    0.601149 0.460444 0.523952 0.000000
H93   H     H_    0.616160 0.455606 0.577419 0.000000
H94   H     H_    0.655444 0.332112 0.571335 0.000000
H95   H     H_    0.519925 0.287752 0.564967 0.000000
H96   H     H_    0.499723 0.384242 0.562021 0.000000
H97   H     H_    0.349962 0.481485 0.452751 0.000000
H98   H     H_    0.415789 0.517178 0.389662 0.000000
H99   H     H_    0.550053 0.453547 0.363695 0.000000
H100  H     H_    0.616977 0.352843 0.401307 0.000000
C91   C     C_3   0.963411 0.432583 0.551037 0.000000
N31   N     N_3   0.039865 0.409721 0.526531 0.000000
C92   C     C_3   0.063417 0.333644 0.536832 0.000000
C93   C     C_R   0.132407 0.297983 0.509227 0.000000
N32   N     N_R   0.117558 0.236216 0.483790 0.000000
C94   C     C_R   0.199430 0.219717 0.470020 0.000000
C95   C     C_R   0.226533 0.153083 0.452862 0.000000
C96   C     C_R   0.314226 0.139479 0.446127 0.000000
C97   C     C_R   0.373455 0.181520 0.467371 0.000000
C98   C     C_R   0.341532 0.235693 0.493297 0.000000
C99   C     C_R   0.259160 0.263107 0.488383 0.000000
N33   N     N_R   0.220980 0.314934 0.512489 0.000000
H101  H     H_    0.945098 0.491406 0.544469 0.000000
H102  H     H_    0.906624 0.395994 0.544746 0.000000
H103  H     H_    0.979492 0.429474 0.582988 0.000000
H104  H     H_    0.090476 0.442991 0.537131 0.000000
H105  H     H_    0.092082 0.339744 0.566296 0.000000
H106  H     H_    0.004268 0.297856 0.537894 0.000000
H107  H     H_    0.183043 0.108147 0.449609 0.000000
H108  H     H_    0.334969 0.088351 0.430479 0.000000
H109  H     H_    0.441461 0.164307 0.468547 0.000000
H110  H     H_    0.374851 0.248463 0.520351 0.000000
C100  C     C_3   0.530607 0.648525 0.500285 0.000000
N34   N     N_3   0.436786 0.636375 0.495981 0.000000
C101  C     C_3   0.408908 0.580846 0.524492 0.000000
C102  C     C_R   0.311099 0.571705 0.522796 0.000000
N35   N     N_R   0.258243 0.626570 0.505639 0.000000
C103  C     C_R   0.196185 0.584189 0.488631 0.000000
C104  C     C_R   0.143173 0.607084 0.459116 0.000000
C105  C     C_R   0.103696 0.555367 0.434659 0.000000
C106  C     C_R   0.125383 0.480718 0.437981 0.000000
C107  C     C_R   0.180653 0.458036 0.467466 0.000000
C108  C     C_R   0.209551 0.509925 0.495318 0.000000
N36   N     N_R   0.276671 0.499715 0.520510 0.000000
H111  H     H_    0.554134 0.685995 0.476542 0.000000
H112  H     H_    0.542951 0.675582 0.529594 0.000000
H113  H     H_    0.567168 0.594294 0.497472 0.000000
H114  H     H_    0.428564 0.613003 0.467579 0.000000
H115  H     H_    0.440729 0.526233 0.516381 0.000000
H116  H     H_    0.431108 0.596573 0.554452 0.000000
H117  H     H_    0.147087 0.662940 0.450484 0.000000
H118  H     H_    0.065539 0.573732 0.409819 0.000000
H119  H     H_    0.104140 0.440892 0.415665 0.000000
H120  H     H_    0.210233 0.403805 0.463826 0.000000
C109  C     C_3   0.782226 0.212395 0.557647 0.000000
N37   N     N_3   0.718222 0.182865 0.529709 0.000000
C110  C     C_3   0.644320 0.150008 0.549682 0.000000
C111  C     C_R   0.594183 0.102885 0.521406 0.000000
N38   N     N_R   0.570015 0.030178 0.530472 0.000000
C112  C     C_R   0.571992 0.996292 0.494570 0.000000
C113  C     C_R   0.573628 0.920145 0.487625 0.000000
C114  C     C_R   0.580694 0.894283 0.449081 0.000000
C115  C     C_R   0.589129 0.944834 0.418994 0.000000
C116  C     C_R   0.594430 0.021447 0.426492 0.000000
C117  C     C_R   0.586300 0.046785 0.465273 0.000000
N39   N     N_R   0.598517 0.116667 0.481135 0.000000
H121  H     H_    0.766911 0.196752 0.588494 0.000000
H122  H     H_    0.848884 0.190873 0.549137 0.000000
H123  H     H_    0.784550 0.274255 0.555997 0.000000
H124  H     H_    0.746958 0.137881 0.514585 0.000000
H125  H     H_    0.668668 0.113239 0.573213 0.000000
H126  H     H_    0.601987 0.195672 0.559971 0.000000
H127  H     H_    0.575275 0.881290 0.511517 0.000000
H128  H     H_    0.581839 0.834617 0.442357 0.000000
H129  H     H_    0.595421 0.922530 0.389590 0.000000
H130  H     H_    0.608116 0.057837 0.402436 0.000000
C118  C     C_3   0.375526 0.042583 0.511434 0.000000
N40   N     N_3   0.397486 0.980222 0.535292 0.000000
C119  C     C_3   0.373264 0.915249 0.512643 0.000000
C120  C     C_R   0.404603 0.852644 0.533344 0.000000
N41   N     N_R   0.463096 0.861785 0.563986 0.000000
C121  C     C_R   0.449941 0.796864 0.583853 0.000000
C122  C     C_R   0.490350 0.769147 0.617105 0.000000
C123  C     C_R   0.450264 0.711976 0.637197 0.000000
C124  C     C_R   0.373851 0.680614 0.623131 0.000000
C125  C     C_R   0.341123 0.701709 0.587236 0.000000
C126  C     C_R   0.382853 0.757136 0.567164 0.000000
N42   N     N_R   0.355120 0.789026 0.533882 0.000000
H131  H     H_    0.396248 0.094461 0.527125 0.000000
H132  H     H_    0.410510 0.036458 0.482495 0.000000
H133  H     H_    0.304420 0.042010 0.505605 0.000000
H134  H     H_    0.357437 0.981836 0.560759 0.000000
H135  H     H_    0.301597 0.909971 0.514086 0.000000
H136  H     H_    0.401481 0.913830 0.482050 0.000000
H137  H     H_    0.551211 0.789719 0.628580 0.000000
H138  H     H_    0.477650 0.693321 0.664733 0.000000
H139  H     H_    0.339122 0.639461 0.640165 0.000000
H140  H     H_    0.281875 0.677228 0.576324 0.000000
C127  C     C_3   0.814184 0.042392 0.372134 0.000000
N43   N     N_3   0.854987 0.101185 0.395915 0.000000
C128  C     C_3   0.797232 0.115405 0.430136 0.000000
C129  C     C_R   0.820086 0.184559 0.452686 0.000000
N44   N     N_R   0.903182 0.209135 0.461286 0.000000
C130  C     C_R   0.888561 0.283808 0.467219 0.000000
C131  C     C_R   0.946579 0.340416 0.459544 0.000000
C132  C     C_R   0.913781 0.413523 0.458786 0.000000
C133  C     C_R   0.825160 0.429322 0.465449 0.000000
C134  C     C_R   0.766821 0.371474 0.469589 0.000000
C135  C     C_R   0.800324 0.299518 0.468734 0.000000
N45   N     N_R   0.755677 0.237290 0.459812 0.000000
H141  H     H_    0.772659 0.067355 0.349170 0.000000
H142  H     H_    0.865945 0.006667 0.357891 0.000000
H143  H     H_    0.773207 0.005909 0.391026 0.000000
H144  H     H_    0.857534 0.149446 0.379075 0.000000
H145  H     H_    0.730153 0.123042 0.419768 0.000000
H146  H     H_    0.794120 0.067517 0.448976 0.000000
H147  H     H_    0.014167 0.328663 0.451087 0.000000
H148  H     H_    0.956903 0.459315 0.452575 0.000000
H149  H     H_    0.800997 0.486589 0.464395 0.000000
H150  H     H_    0.697094 0.382677 0.469494 0.000000
C136  C     C_3   0.796353 0.843524 0.900534 0.000000
N46   N     N_3   0.873078 0.882718 0.915478 0.000000
C137  C     C_3   0.871775 0.892627 0.958178 0.000000
C138  C     C_R   0.938821 0.843565 0.976156 0.000000
N47   N     N_R   0.026448 0.846955 0.964897 0.000000
C139  C     C_R   0.056850 0.778775 0.974813 0.000000
C140  C     C_R   0.136296 0.745993 0.963759 0.000000
C141  C     C_R   0.149446 0.671188 0.972032 0.000000
C142  C     C_R   0.083256 0.630737 0.990353 0.000000
C143  C     C_R   0.003724 0.664943 0.001748 0.000000
C144  C     C_R   0.992327 0.739561 0.993918 0.000000
N48   N     N_R   0.917250 0.780837 0.997710 0.000000
H151  H     H_    0.777898 0.867449 0.871754 0.000000
H152  H     H_    0.815456 0.784623 0.894967 0.000000
H153  H     H_    0.737069 0.846733 0.920185 0.000000
H154  H     H_    0.872805 0.935577 0.903696 0.000000
H155  H     H_    0.885392 0.952113 0.965600 0.000000
H156  H     H_    0.808534 0.875100 0.968545 0.000000
H157  H     H_    0.184882 0.775356 0.946661 0.000000
H158  H     H_    0.210307 0.643197 0.962659 0.000000
H159  H     H_    0.093346 0.571330 0.994398 0.000000
H160  H     H_    0.950547 0.632500 0.013653 0.000000
C145  C     C_3   0.303269 0.769619 0.048433 0.000000
N49   N     N_3   0.331680 0.807389 0.012612 0.000000
C146  C     C_3   0.282025 0.877446 0.010036 0.000000
C147  C     C_R   0.299625 0.910295 0.970642 0.000000
N50   N     N_R   0.384318 0.911578 0.955562 0.000000
C148  C     C_R   0.373267 0.899075 0.916540 0.000000
C149  C     C_R   0.438150 0.886356 0.888024 0.000000
C150  C     C_R   0.412479 0.863574 0.850477 0.000000
C151  C     C_R   0.323671 0.856822 0.842166 0.000000
C152  C     C_R   0.259389 0.874259 0.870926 0.000000
C153  C     C_R   0.285857 0.896133 0.908268 0.000000
N51   N     N_R   0.236198 0.908847 0.941814 0.000000
H161  H     H_    0.346682 0.720069 0.052818 0.000000
H162  H     H_    0.307658 0.808282 0.074640 0.000000
H163  H     H_    0.234554 0.750339 0.045402 0.000000
H164  H     H_    0.316339 0.772973 0.988259 0.000000
H165  H     H_    0.211307 0.864845 0.011661 0.000000
H166  H     H_    0.301501 0.916740 0.034164 0.000000
H167  H     H_    0.507059 0.890088 0.895039 0.000000
H168  H     H_    0.461755 0.850347 0.827589 0.000000
H169  H     H_    0.304456 0.837661 0.812892 0.000000
H170  H     H_    0.191898 0.864753 0.864335 0.000000
C154  C     C_3   0.180403 0.187278 0.840629 0.000000
N52   N     N_3   0.110021 0.135059 0.848724 0.000000
C155  C     C_3   0.146993 0.060188 0.851970 0.000000
C156  C     C_R   0.074831 0.004923 0.853919 0.000000
N53   N     N_R   0.068187 0.951854 0.883341 0.000000
C157  C     C_R   0.020193 0.899069 0.865168 0.000000
C158  C     C_R   0.018176 0.823553 0.872956 0.000000
C159  C     C_R   0.964604 0.778561 0.850115 0.000000
C160  C     C_R   0.911320 0.810629 0.821985 0.000000
C161  C     C_R   0.920365 0.885630 0.812897 0.000000
C162  C     C_R   0.983982 0.925975 0.831843 0.000000
N54   N     N_R   0.020601 0.992033 0.822121 0.000000
H171  H     H_    0.219319 0.168865 0.814118 0.000000
H172  H     H_    0.152748 0.244341 0.836642 0.000000
H173  H     H_    0.223656 0.189986 0.866170 0.000000
H174  H     H_    0.063527 0.135095 0.826619 0.000000
H175  H     H_    0.188590 0.046337 0.825442 0.000000
H176  H     H_    0.186934 0.056678 0.879077 0.000000
H177  H     H_    0.059734 0.799147 0.894727 0.000000
H178  H     H_    0.961219 0.719050 0.855444 0.000000
H179  H     H_    0.866287 0.775989 0.805428 0.000000
H180  H     H_    0.886166 0.907643 0.788490 0.000000
C163  C     C_3   0.090831 0.869361 0.077432 0.000000
N55   N     N_3   0.105074 0.948181 0.069622 0.000000
C164  C     C_3   0.031099 0.975562 0.047817 0.000000
C165  C     C_R   0.056746 0.038127 0.021520 0.000000
N56   N     N_R   0.061927 0.111951 0.035089 0.000000
C166  C     C_R   0.078723 0.148798 0.001855 0.000000
C167  C     C_R   0.093878 0.224333 0.998784 0.000000
C168  C     C_R   0.099790 0.253103 0.961365 0.000000
C169  C     C_R   0.081754 0.207061 0.929075 0.000000
C170  C     C_R   0.070453 0.130344 0.933303 0.000000
C171  C     C_R   0.078409 0.101299 0.969828 0.000000
N57   N     N_R   0.070404 0.029039 0.980694 0.000000
H181  H     H_    0.144808 0.848144 0.095817 0.000000
H182  H     H_    0.026648 0.863057 0.093213 0.000000
H183  H     H_    0.090819 0.835723 0.049450 0.000000
H184  H     H_    0.161573 0.953771 0.052399 0.000000
H185  H     H_    0.003839 0.930059 0.029660 0.000000
H186  H     H_    0.980883 0.994824 0.069767 0.000000
H187  H     H_    0.102145 0.260239 0.024529 0.000000
H188  H     H_    0.109828 0.312494 0.957611 0.000000
H189  H     H_    0.072769 0.232718 0.900968 0.000000
H190  H     H_    0.041946 0.096260 0.910770 0.000000
C172  C     C_3   0.664277 0.752920 0.171033 0.000000
N58   N     N_3   0.680646 0.831254 0.162893 0.000000
C173  C     C_3   0.715969 0.837793 0.122368 0.000000
C174  C     C_R   0.814414 0.828032 0.119929 0.000000
N59   N     N_R   0.866347 0.836156 0.153691 0.000000
C175  C     C_R   0.915162 0.772453 0.151174 0.000000
C176  C     C_R   0.959216 0.739078 0.181445 0.000000
C177  C     C_R   0.998891 0.669844 0.173707 0.000000
C178  C     C_R   0.990415 0.634038 0.136895 0.000000
C179  C     C_R   0.940738 0.666343 0.107529 0.000000
C180  C     C_R   0.903442 0.735549 0.115497 0.000000
N60   N     N_R   0.843297 0.771542 0.093774 0.000000
H191  H     H_    0.721794 0.717360 0.161552 0.000000
H192  H     H_    0.652460 0.746858 0.203462 0.000000
H193  H     H_    0.604552 0.734741 0.155242 0.000000
H194  H     H_    0.723244 0.852487 0.183992 0.000000
H195  H     H_    0.687316 0.792766 0.103553 0.000000
H196  H     H_    0.693952 0.890791 0.109578 0.000000
H197  H     H_    0.960191 0.764333 0.210885 0.000000
H198  H     H_    0.034463 0.642323 0.196885 0.000000
H199  H     H_    0.019505 0.578920 0.132113 0.000000
H200  H     H_    0.926729 0.636267 0.080390 0.000000
C181  C     C_3   0.633122 0.547770 0.129076 0.000000
N61   N     N_3   0.656180 0.535372 0.087292 0.000000
C182  C     C_3   0.744621 0.563021 0.080059 0.000000
C183  C     C_R   0.758155 0.570806 0.036494 0.000000
N62   N     N_R   0.744624 0.512335 0.009131 0.000000
C184  C     C_R   0.746424 0.549143 0.974484 0.000000
C185  C     C_R   0.721126 0.523624 0.937710 0.000000
C186  C     C_R   0.722790 0.571964 0.906405 0.000000
C187  C     C_R   0.747029 0.645634 0.912315 0.000000
C188  C     C_R   0.768849 0.672064 0.949923 0.000000
C189  C     C_R   0.766782 0.622692 0.980530 0.000000
N63   N     N_R   0.775757 0.639276 0.019436 0.000000
H201  H     H_    0.573002 0.515761 0.136327 0.000000
H202  H     H_    0.687879 0.528885 0.147877 0.000000
H203  H     H_    0.618983 0.608091 0.134924 0.000000
H204  H     H_    0.612866 0.567980 0.071002 0.000000
H205  H     H_    0.751580 0.618823 0.094871 0.000000
H206  H     H_    0.793941 0.523414 0.091767 0.000000
H207  H     H_    0.692341 0.470528 0.933341 0.000000
H208  H     H_    0.701385 0.553003 0.877438 0.000000
H209  H     H_    0.743491 0.682456 0.887455 0.000000
H210  H     H_    0.782559 0.730309 0.955638 0.000000
C190  C     C_3   0.519184 0.676171 0.937855 0.000000
N64   N     N_3   0.575305 0.739849 0.946307 0.000000
C191  C     C_3   0.578012 0.751215 0.989209 0.000000
C192  C     C_R   0.627658 0.820606 0.999088 0.000000
N65   N     N_R   0.705775 0.820044 0.019793 0.000000
C193  C     C_R   0.719203 0.893381 0.026746 0.000000
C194  C     C_R   0.795234 0.925734 0.040011 0.000000
C195  C     C_R   0.807038 0.000710 0.032224 0.000000
C196  C     C_R   0.741997 0.042012 0.014784 0.000000
C197  C     C_R   0.665829 0.009128 0.003532 0.000000
C198  C     C_R   0.657111 0.934758 0.008766 0.000000
N66   N     N_R   0.596526 0.892170 0.991429 0.000000
H211  H     H_    0.542941 0.626160 0.953681 0.000000
H212  H     H_    0.450259 0.689750 0.947362 0.000000
H213  H     H_    0.521069 0.663574 0.905372 0.000000
H214  H     H_    0.545070 0.787009 0.934612 0.000000
H215  H     H_    0.510116 0.756770 0.001726 0.000000
H216  H     H_    0.610586 0.702534 0.002826 0.000000
H217  H     H_    0.849030 0.892803 0.050930 0.000000
H218  H     H_    0.867058 0.028343 0.038859 0.000000
H219  H     H_    0.751494 0.099733 0.008505 0.000000
H220  H     H_    0.619428 0.039274 0.986782 0.000000
C199  C     C_3   0.812008 0.063412 0.887879 0.000000
N67   N     N_3   0.753963 0.039051 0.919875 0.000000
C200  C     C_3   0.676845 0.003044 0.904159 0.000000
C201  C     C_R   0.599639 0.054919 0.906754 0.000000
N68   N     N_R   0.526469 0.036254 0.929065 0.000000
C202  C     C_R   0.468030 0.089506 0.919191 0.000000
C203  C     C_R   0.380764 0.095024 0.929655 0.000000
C204  C     C_R   0.336141 0.160792 0.921649 0.000000
C205  C     C_R   0.377560 0.217006 0.901000 0.000000
C206  C     C_R   0.462378 0.205968 0.886455 0.000000
C207  C     C_R   0.506650 0.141871 0.896513 0.000000
N69   N     N_R   0.589792 0.121372 0.886278 0.000000
H221  H     H_    0.880926 0.062659 0.897900 0.000000
H222  H     H_    0.812265 0.024367 0.861945 0.000000
H223  H     H_    0.794162 0.121625 0.880768 0.000000
H224  H     H_    0.729780 0.086983 0.934819 0.000000
H225  H     H_    0.687751 0.979097 0.874106 0.000000
H226  H     H_    0.660240 0.955414 0.923122 0.000000
H227  H     H_    0.347999 0.049565 0.943275 0.000000
H228  H     H_    0.268052 0.168146 0.930773 0.000000
H229  H     H_    0.342044 0.268180 0.894669 0.000000
H230  H     H_    0.493247 0.248591 0.869332 0.000000
C208  C     C_3   0.609578 0.219778 0.985662 0.000000
N70   N     N_3   0.588917 0.163220 0.013432 0.000000
C209  C     C_3   0.494809 0.158299 0.014846 0.000000
C210  C     C_R   0.473816 0.095185 0.039563 0.000000
N71   N     N_R   0.473736 0.021806 0.025776 0.000000
C211  C     C_R   0.473695 0.983705 0.059503 0.000000
C212  C     C_R   0.477524 0.907211 0.062948 0.000000
C213  C     C_R   0.495220 0.878712 0.099610 0.000000
C214  C     C_R   0.517273 0.927437 0.130246 0.000000
C215  C     C_R   0.513484 0.004246 0.125361 0.000000
C216  C     C_R   0.479911 0.031527 0.091313 0.000000
N72   N     N_R   0.473957 0.103912 0.080082 0.000000
H231  H     H_    0.620600 0.192632 0.956112 0.000000
H232  H     H_    0.554859 0.260821 0.985610 0.000000
H233  H     H_    0.668817 0.248862 0.995167 0.000000
H234  H     H_    0.608726 0.180964 0.041270 0.000000
H235  H     H_    0.465465 0.209513 0.028285 0.000000
H236  H     H_    0.468848 0.151404 0.985370 0.000000
H237  H     H_    0.468148 0.870322 0.037793 0.000000
H238  H     H_    0.498925 0.818691 0.103466 0.000000
H239  H     H_    0.539229 0.905327 0.157905 0.000000
H240  H     H_    0.544854 0.041683 0.145862 0.000000
C217  C     C_3   0.976816 0.197388 0.684678 0.000000
N73   N     N_3   0.970673 0.123176 0.701120 0.000000
C218  C     C_3   0.015547 0.070245 0.674206 0.000000
C219  C     C_R   0.989348 0.992640 0.684246 0.000000
N74   N     N_R   0.996753 0.969607 0.722394 0.000000
C220  C     C_R   0.991169 0.893605 0.717997 0.000000
C221  C     C_R   0.016177 0.837724 0.743054 0.000000
C222  C     C_R   0.000555 0.763711 0.731982 0.000000
C223  C     C_R   0.966579 0.746061 0.694999 0.000000
C224  C     C_R   0.955232 0.801969 0.667754 0.000000
C225  C     C_R   0.970497 0.874581 0.680051 0.000000
N75   N     N_R   0.970520 0.935244 0.657508 0.000000
H241  H     H_    0.941885 0.238704 0.703918 0.000000
H242  H     H_    0.046167 0.214416 0.683731 0.000000
H243  H     H_    0.947274 0.198465 0.655017 0.000000
H244  H     H_    0.905307 0.107842 0.702942 0.000000
H245  H     H_    0.003821 0.084591 0.643521 0.000000
H246  H     H_    0.087186 0.074873 0.677902 0.000000
H247  H     H_    0.051622 0.849836 0.769736 0.000000
H248  H     H_    0.017434 0.719165 0.751841 0.000000
H249  H     H_    0.955696 0.688097 0.686421 0.000000
H250  H     H_    0.936619 0.788638 0.637665 0.000000
C226  C     C_3   0.204794 0.905460 0.723666 0.000000
N76   N     N_3   0.163594 0.973356 0.740965 0.000000
C227  C     C_3   0.223376 0.032825 0.732034 0.000000
C228  C     C_R   0.186966 0.109592 0.737839 0.000000
N77   N     N_R   0.104069 0.123266 0.754633 0.000000
C229  C     C_R   0.102487 0.199144 0.757039 0.000000
C230  C     C_R   0.038498 0.244985 0.774152 0.000000
C231  C     C_R   0.051527 0.321910 0.774363 0.000000
C232  C     C_R   0.127297 0.351295 0.757455 0.000000
C233  C     C_R   0.191961 0.303957 0.741175 0.000000
C234  C     C_R   0.178672 0.228361 0.741725 0.000000
N78   N     N_R   0.235526 0.173893 0.729101 0.000000
H251  H     H_    0.189749 0.856529 0.742096 0.000000
H252  H     H_    0.181675 0.896578 0.692927 0.000000
H253  H     H_    0.277133 0.910101 0.722882 0.000000
H254  H     H_    0.163162 0.967156 0.771697 0.000000
H255  H     H_    0.273165 0.028074 0.754583 0.000000
H256  H     H_    0.244497 0.026312 0.700542 0.000000
H257  H     H_    0.982547 0.221160 0.788875 0.000000
H258  H     H_    0.003088 0.359639 0.788229 0.000000
H259  H     H_    0.136594 0.411369 0.757755 0.000000
H260  H     H_    0.251275 0.325314 0.728660 0.000000
C235  C     C_3   0.833248 0.344801 0.745958 0.000000
N79   N     N_3   0.841780 0.291738 0.777987 0.000000
C236  C     C_3   0.804327 0.220381 0.765552 0.000000
C237  C     C_R   0.823565 0.156301 0.792699 0.000000
N80   N     N_R   0.867748 0.094863 0.774706 0.000000
C238  C     C_R   0.803165 0.043678 0.773990 0.000000
C239  C     C_R   0.792620 0.985742 0.746667 0.000000
C240  C     C_R   0.719517 0.940966 0.750156 0.000000
C241  C     C_R   0.656676 0.956713 0.779565 0.000000
C242  C     C_R   0.662677 0.021147 0.802920 0.000000
C243  C     C_R   0.734969 0.065809 0.798334 0.000000
N81   N     N_R   0.748362 0.135534 0.813430 0.000000
H261  H     H_    0.779213 0.328536 0.725966 0.000000
H262  H     H_    0.819198 0.401487 0.759051 0.000000
H263  H     H_    0.895783 0.348129 0.728670 0.000000
H264  H     H_    0.801171 0.313479 0.800834 0.000000
H265  H     H_    0.731920 0.227101 0.764898 0.000000
H266  H     H_    0.825601 0.204452 0.735087 0.000000
H267  H     H_    0.836939 0.976116 0.722022 0.000000
H268  H     H_    0.711445 0.893649 0.729874 0.000000
H269  H     H_    0.600817 0.920359 0.783124 0.000000
H270  H     H_    0.612784 0.033315 0.824889 0.000000
C244  C     C_3   0.238125 0.037576 0.156775 0.000000
N82   N     N_3   0.152152 0.027834 0.140425 0.000000
C245  C     C_3   0.088766 0.057281 0.169522 0.000000
C246  C     C_R   0.001662 0.060767 0.151106 0.000000
N83   N     N_R   0.979411 0.113054 0.123474 0.000000
C247  C     C_R   0.895285 0.096804 0.116928 0.000000
C248  C     C_R   0.832188 0.142982 0.103269 0.000000
C249  C     C_R   0.749167 0.114969 0.098522 0.000000
C250  C     C_R   0.731225 0.043226 0.109923 0.000000
C251  C     C_R   0.790473 0.005882 0.132760 0.000000
C252  C     C_R   0.871704 0.034794 0.135910 0.000000
N84   N     N_R   0.934650 0.012154 0.159844 0.000000
H271  H     H_    0.287064 0.006468 0.137543 0.000000
H272  H     H_    0.254015 0.097825 0.158001 0.000000
H273  H     H_    0.238226 0.015255 0.187154 0.000000
H274  H     H_    0.142779 0.970141 0.139593 0.000000
H275  H     H_    0.085796 0.019012 0.194703 0.000000
H276  H     H_    0.107341 0.114028 0.180240 0.000000
H277  H     H_    0.845339 0.200862 0.100875 0.000000
H278  H     H_    0.697705 0.148286 0.086498 0.000000
H279  H     H_    0.668360 0.020196 0.104327 0.000000
H280  H     H_    0.770901 0.960941 0.151018 0.000000
C253  C     C_3   0.866466 0.173565 0.953822 0.000000
N85   N     N_3   0.909893 0.218682 0.982945 0.000000
C254  C     C_3   0.862999 0.213144 0.020175 0.000000
C255  C     C_R   0.888381 0.277336 0.044661 0.000000
N86   N     N_R   0.964175 0.273052 0.066764 0.000000
C256  C     C_R   0.984322 0.346031 0.070993 0.000000
C257  C     C_R   0.062632 0.374264 0.083878 0.000000
C258  C     C_R   0.077667 0.449664 0.080405 0.000000
C259  C     C_R   0.017246 0.494364 0.061728 0.000000
C260  C     C_R   0.940428 0.464862 0.046914 0.000000
C261  C     C_R   0.922455 0.390834 0.053419 0.000000
N87   N     N_R   0.856773 0.349368 0.037731 0.000000
H281  H     H_    0.899793 0.180961 0.924763 0.000000
H282  H     H_    0.872176 0.114213 0.962510 0.000000
H283  H     H_    0.796912 0.191772 0.951920 0.000000
H284  H     H_    0.909060 0.274040 0.974834 0.000000
H285  H     H_    0.791726 0.215997 0.016757 0.000000
H286  H     H_    0.884418 0.160257 0.033324 0.000000
H287  H     H_    0.114401 0.338901 0.093616 0.000000
H288  H     H_    0.139233 0.473029 0.090062 0.000000
H289  H     H_    0.033078 0.552137 0.057320 0.000000
H290  H     H_    0.901263 0.497869 0.027857 0.000000
C262  C     C_3   0.262393 0.067041 0.010453 0.000000
N88   N     N_3   0.242579 0.091042 0.050744 0.000000
C263  C     C_3   0.269385 0.168039 0.053583 0.000000
C264  C     C_R   0.249920 0.196329 0.093155 0.000000
N89   N     N_R   0.165027 0.207663 0.107279 0.000000
C265  C     C_R   0.178217 0.245870 0.141612 0.000000
C266  C     C_R   0.114841 0.277282 0.166835 0.000000
C267  C     C_R   0.142636 0.324278 0.197281 0.000000
C268  C     C_R   0.231792 0.338449 0.201745 0.000000
C269  C     C_R   0.294957 0.303177 0.177147 0.000000
C270  C     C_R   0.266562 0.256869 0.147026 0.000000
N90   N     N_R   0.314928 0.223317 0.117164 0.000000
H291  H     H_    0.220408 0.020676 0.002232 0.000000
H292  H     H_    0.252687 0.113356 0.990005 0.000000
H293  H     H_    0.329592 0.046706 0.008054 0.000000
H294  H     H_    0.282673 0.059868 0.069199 0.000000
H295  H     H_    0.339073 0.172940 0.048357 0.000000
H296  H     H_    0.236866 0.204355 0.032465 0.000000
H297  H     H_    0.045533 0.268438 0.161993 0.000000
H298  H     H_    0.094575 0.351663 0.217123 0.000000
H299  H     H_    0.252216 0.376912 0.225041 0.000000
H300  H     H_    0.363368 0.315344 0.180484 0.000000
C271  C     C_3   0.479923 0.426772 0.887724 0.000000
N91   N     N_3   0.560811 0.382227 0.884229 0.000000
C272  C     C_3   0.576953 0.349056 0.922516 0.000000
C273  C     C_R   0.668424 0.317418 0.923095 0.000000
N92   N     N_R   0.706220 0.279792 0.889815 0.000000
C274  C     C_R   0.791604 0.301027 0.893532 0.000000
C275  C     C_R   0.863631 0.283518 0.869837 0.000000
C276  C     C_R   0.941144 0.321706 0.876087 0.000000
C277  C     C_R   0.947872 0.373393 0.907292 0.000000
C278  C     C_R   0.878282 0.384048 0.933943 0.000000
C279  C     C_R   0.802694 0.344494 0.927201 0.000000
N93   N     N_R   0.728839 0.348218 0.949556 0.000000
H301  H     H_    0.461045 0.445276 0.857782 0.000000
H302  H     H_    0.426065 0.392806 0.900469 0.000000
H303  H     H_    0.490321 0.477134 0.907029 0.000000
H304  H     H_    0.611777 0.419375 0.878361 0.000000
H305  H     H_    0.571540 0.393395 0.945629 0.000000
H306  H     H_    0.526992 0.307222 0.929060 0.000000
H307  H     H_    0.861673 0.240550 0.847639 0.000000
H308  H     H_    0.997539 0.310524 0.856695 0.000000
H309  H     H_    0.008761 0.402978 0.911672 0.000000
H310  H     H_    0.883499 0.421705 0.959415 0.000000
C280  C     C_3   0.372904 0.039746 0.828272 0.000000
N94   N     N_3   0.382802 0.108730 0.806446 0.000000
C281  C     C_3   0.475643 0.116510 0.797007 0.000000
C282  C     C_R   0.496654 0.191479 0.783402 0.000000
N95   N     N_R   0.464511 0.226884 0.749524 0.000000
C283  C     C_R   0.515665 0.289521 0.750662 0.000000
C284  C     C_R   0.530947 0.339883 0.721519 0.000000
C285  C     C_R   0.585703 0.400066 0.728623 0.000000
C286  C     C_R   0.628481 0.407508 0.764361 0.000000
C287  C     C_R   0.623088 0.350890 0.791473 0.000000
C288  C     C_R   0.567940 0.292371 0.783453 0.000000
N96   N     N_R   0.561239 0.229652 0.803970 0.000000
H311  H     H_    0.337895 0.997952 0.810011 0.000000
H312  H     H_    0.437567 0.015214 0.835799 0.000000
H313  H     H_    0.334266 0.051349 0.855884 0.000000
H314  H     H_    0.365047 0.153403 0.825541 0.000000
H315  H     H_    0.511516 0.113036 0.824081 0.000000
H316  H     H_    0.503526 0.072433 0.776924 0.000000
H317  H     H_    0.504269 0.331347 0.693000 0.000000
H318  H     H_    0.596254 0.440988 0.705843 0.000000
H319  H     H_    0.670480 0.455012 0.769825 0.000000
H320  H     H_    0.661333 0.352490 0.818092 0.000000
C289  C     C_3   0.771656 0.361623 0.148037 0.000000
N97   N     N_3   0.705660 0.371031 0.117949 0.000000
C290  C     C_3   0.679867 0.298177 0.101674 0.000000
C291  C     C_R   0.609341 0.311440 0.073069 0.000000
N98   N     N_R   0.521131 0.294520 0.080525 0.000000
C292  C     C_R   0.480370 0.345611 0.057786 0.000000
C293  C     C_R   0.391566 0.360270 0.055284 0.000000
C294  C     C_R   0.364799 0.418272 0.031434 0.000000
C295  C     C_R   0.426271 0.460901 0.011105 0.000000
C296  C     C_R   0.515457 0.445186 0.013698 0.000000
C297  C     C_R   0.540620 0.385882 0.036349 0.000000
N99   N     N_R   0.623377 0.362234 0.043241 0.000000
H321  H     H_    0.802232 0.416643 0.154523 0.000000
H322  H     H_    0.740050 0.342000 0.175762 0.000000
H323  H     H_    0.823877 0.321968 0.136993 0.000000
H324  H     H_    0.736607 0.399438 0.094957 0.000000
H325  H     H_    0.735553 0.272963 0.084815 0.000000
H326  H     H_    0.656609 0.261283 0.125521 0.000000
H327  H     H_    0.343582 0.329524 0.071889 0.000000
H328  H     H_    0.295375 0.431472 0.029231 0.000000
H329  H     H_    0.404276 0.506995 0.993310 0.000000
H330  H     H_    0.563576 0.479284 0.998743 0.000000
C298  C     C_3   0.400230 0.955854 0.213703 0.000000
N100  N     N_3   0.459141 0.019086 0.217663 0.000000
C299  C     C_3   0.424534 0.083730 0.196898 0.000000
C300  C     C_R   0.489812 0.145185 0.197700 0.000000
N101  N     N_R   0.529662 0.165032 0.232585 0.000000
C301  C     C_R   0.550954 0.237430 0.226677 0.000000
C302  C     C_R   0.577341 0.290112 0.254310 0.000000
C303  C     C_R   0.586336 0.363568 0.242786 0.000000
C304  C     C_R   0.565794 0.383892 0.204569 0.000000
C305  C     C_R   0.536449 0.330869 0.177413 0.000000
C306  C     C_R   0.530752 0.257454 0.189022 0.000000
N102  N     N_R   0.494393 0.199415 0.169070 0.000000
H331  H     H_    0.432436 0.905090 0.225536 0.000000
H332  H     H_    0.338713 0.967938 0.230885 0.000000
H333  H     H_    0.384048 0.944857 0.182274 0.000000
H334  H     H_    0.521710 0.003715 0.206865 0.000000
H335  H     H_    0.405610 0.070738 0.166452 0.000000
H336  H     H_    0.362363 0.103276 0.211110 0.000000
H337  H     H_    0.584835 0.277093 0.284850 0.000000
H338  H     H_    0.605926 0.406033 0.264224 0.000000
H339  H     H_    0.569652 0.442066 0.196499 0.000000
H340  H     H_    0.513850 0.348451 0.149011 0.000000
C307  C     C_3   0.947565 0.124017 0.289716 0.000000
N103  N     N_3   0.967332 0.057966 0.264972 0.000000
C308  C     C_3   0.970213 0.993451 0.290418 0.000000
C309  C     C_R   0.025755 0.934234 0.270888 0.000000
N104  N     N_R   0.006712 0.908417 0.232841 0.000000
C310  C     C_R   0.083407 0.873197 0.222044 0.000000
C311  C     C_R   0.108818 0.846904 0.184843 0.000000
C312  C     C_R   0.192533 0.815813 0.179624 0.000000
C313  C     C_R   0.251106 0.815992 0.210715 0.000000
C314  C     C_R   0.227057 0.848241 0.247222 0.000000
C315  C     C_R   0.142311 0.875022 0.252434 0.000000
N105  N     N_R   0.108599 0.912726 0.284539 0.000000
H341  H     H_    0.949562 0.174215 0.270944 0.000000
H342  H     H_    0.881872 0.117869 0.303770 0.000000
H343  H     H_    0.996623 0.131304 0.313011 0.000000
H344  H     H_    0.029933 0.065283 0.252692 0.000000
H345  H     H_    0.998168 0.009794 0.318855 0.000000
H346  H     H_    0.903139 0.972222 0.295195 0.000000
H347  H     H_    0.065322 0.851642 0.160240 0.000000
H348  H     H_    0.213493 0.792733 0.150901 0.000000
H349  H     H_    0.316925 0.793140 0.205937 0.000000
H350  H     H_    0.273900 0.852562 0.270767 0.000000
C316  C     C_3   0.806173 0.201191 0.192490 0.000000
N106  N     N_3   0.811224 0.122993 0.203113 0.000000
C317  C     C_3   0.722506 0.094625 0.206152 0.000000
C318  C     C_R   0.720805 0.026713 0.230533 0.000000
N107  N     N_R   0.782323 0.967430 0.227363 0.000000
C319  C     C_R   0.756513 0.924964 0.257694 0.000000
C320  C     C_R   0.795303 0.859141 0.269092 0.000000
C321  C     C_R   0.764331 0.827807 0.303749 0.000000
C322  C     C_R   0.698915 0.864374 0.326609 0.000000
C323  C     C_R   0.661285 0.931227 0.314227 0.000000
C324  C     C_R   0.687292 0.957832 0.278481 0.000000
N108  N     N_R   0.659813 0.021629 0.261523 0.000000
H351  H     H_    0.871451 0.219040 0.181029 0.000000
H352  H     H_    0.755688 0.208270 0.169717 0.000000
H353  H     H_    0.787686 0.236888 0.218693 0.000000
H354  H     H_    0.836559 0.121669 0.231424 0.000000
H355  H     H_    0.680258 0.137371 0.219852 0.000000
H356  H     H_    0.691383 0.085063 0.177697 0.000000
H357  H     H_    0.848929 0.833231 0.251964 0.000000
H358  H     H_    0.793357 0.776109 0.313866 0.000000
H359  H     H_    0.678656 0.840178 0.354401 0.000000
H360  H     H_    0.615548 0.964582 0.331951 0.000000

loop_
_geom_bond_atom_site_label_1
_geom_bond_atom_site_label_2
_geom_bond_distance
_geom_bond_site_symmetry_2
_ccdc_geom_bond_type
Zn1   N2    2.116 .      S
Zn1   N5    1.945 1_565  S
Zn1   N8    2.133 1_655  S
Zn1   N75   2.000 .      S
Zn2   N12   2.242 .      S
Zn2   N15   2.085 .      S
Zn2   N78   2.179 .      S
Zn2   N95   2.273 .      S
Zn3   N18   2.019 1_565  S
Zn3   N21   2.204 .      S
Zn3   N26   2.072 .      S
Zn3   N105  2.162 .      S
Zn4   N24   2.059 .      S
Zn4   N27   2.112 .      S
Zn4   N101  2.072 .      S
Zn4   N108  2.152 .      S
Zn5   N11   2.212 .      S
Zn5   N29   2.079 .      S
Zn5   N33   2.090 .      S
Zn5   N36   2.132 .      S
Zn6   N3    2.024 .      S
Zn6   N14   2.079 1_565  S
Zn6   N38   2.108 1_565  S
Zn6   N41   2.188 .      S
Zn7   N6    2.117 .      S
Zn7   N17   2.162 .      S
Zn7   N32   2.114 .      S
Zn7   N44   2.056 1_455  S
Zn8   N9    2.143 .      S
Zn8   N20   2.261 .      S
Zn8   N35   2.165 .      S
Zn8   N42   2.101 .      S
Zn9   N23   2.059 .      S
Zn9   N30   2.089 .      S
Zn9   N39   2.122 .      S
Zn9   N45   1.991 .      S
Zn10  N47   2.075 .      S
Zn10  N51   2.101 .      S
Zn10  N53   2.094 .      S
Zn10  N57   2.132 1_565  S
Zn11  N48   2.110 1_554  S
Zn11  N60   2.128 .      S
Zn11  N63   2.091 .      S
Zn11  N65   2.048 .      S
Zn12  N50   2.029 .      S
Zn12  N66   2.067 .      S
Zn12  N68   2.078 1_565  S
Zn12  N71   2.033 1_566  S
Zn13  N54   2.091 1_645  S
Zn13  N74   2.074 1_545  S
Zn13  N77   2.151 1_655  S
Zn13  N80   2.159 .      S
Zn14  N56   2.021 .      S
Zn14  N83   2.027 1_455  S
Zn14  N86   2.152 1_455  S
Zn14  N89   2.086 .      S
Zn15  N69   2.075 .      S
Zn15  N81   2.102 .      S
Zn15  N92   2.213 .      S
Zn15  N96   2.153 .      S
Zn16  N72   2.109 .      S
Zn16  N90   2.109 .      S
Zn16  N98   2.166 .      S
Zn16  N102  2.057 .      S
Zn17  N59   2.180 .      S
Zn17  N84   1.998 1_565  S
Zn17  N104  2.159 1_655  S
Zn17  N107  2.135 .      S
Zn18  N62   2.127 .      S
Zn18  N87   2.191 .      S
Zn18  N93   2.178 1_554  S
Zn18  N99   2.128 .      S
C1    N1    1.453 .      S
C1    H1    1.109 .      S
C1    H2    1.107 .      S
C1    H3    1.109 .      S
N1    C2    1.457 .      S
N1    H4    1.041 .      S
C2    C3    1.497 .      S
C2    H5    1.095 .      S
C2    H6    1.095 .      S
C5    H7    1.046 .      S
C6    H8    1.071 .      S
C7    H9    1.078 .      S
C8    H10   1.052 .      S
C10   N4    1.441 .      S
C10   H11   1.100 .      S
C10   H12   1.093 .      S
C10   H13   1.093 .      S
N4    C11   1.449 1_565  S
N4    H14   1.036 .      S
C11   N4    1.449 1_545  S
C11   C12   1.446 .      S
C11   H15   1.076 .      S
C11   H16   1.099 .      S
N5    Zn1   1.945 1_545  S
C14   H17   1.057 1_545  S
C15   H18   1.078 .      S
C16   H19   1.073 .      S
C17   H20   1.035 .      S
H17   C14   1.057 1_565  S
C19   N7    1.454 .      S
C19   H21   1.108 .      S
C19   H22   1.100 .      S
C19   H23   1.109 .      S
N7    C20   1.453 .      S
N7    H24   1.044 .      S
C20   C21   1.486 .      S
C20   H25   1.093 .      S
C20   H26   1.105 .      S
N8    Zn1   2.133 1_455  S
C23   H27   1.049 .      S
C24   H28   1.081 .      S
C25   H29   1.080 .      S
C26   H30   1.071 .      S
C28   N10   1.441 .      S
C28   H31   1.104 .      S
C28   H32   1.088 .      S
C28   H33   1.102 .      S
N10   C29   1.447 .      S
N10   H34   1.043 .      S
C29   C30   1.446 .      S
C29   H35   1.105 .      S
C29   H36   1.101 .      S
C32   H37   1.072 .      S
C33   H38   1.073 .      S
C34   H39   1.081 .      S
C35   H40   1.077 .      S
C37   N13   1.457 .      S
C37   H41   1.092 .      S
C37   H42   1.105 .      S
C37   H43   1.106 .      S
N13   C38   1.460 .      S
N13   H44   1.041 .      S
C38   C39   1.449 .      S
C38   H45   1.103 .      S
C38   H46   1.078 .      S
N14   Zn6   2.079 1_545  S
C41   H47   1.049 .      S
C42   H48   1.081 .      S
C43   H49   1.079 .      S
C44   H50   1.051 .      S
C46   N16   1.454 .      S
C46   H51   1.108 .      S
C46   H52   1.106 .      S
C46   H53   1.109 .      S
N16   C47   1.452 .      S
N16   H54   1.044 .      S
C47   C48   1.492 .      S
C47   H55   1.088 .      S
C47   H56   1.108 .      S
C50   H57   1.032 1_565  S
C51   H58   1.076 .      S
C52   H59   1.080 .      S
C53   H60   1.074 .      S
N18   Zn3   2.019 1_545  S
H57   C50   1.032 1_545  S
C55   N19   1.421 .      S
C55   H61   1.101 .      S
C55   H62   1.098 1_565  S
C55   H63   1.099 .      S
N19   C56   1.433 .      S
N19   H64   1.036 .      S
C56   C57   1.439 .      S
C56   H65   1.080 .      S
C56   H66   1.081 .      S
C59   H67   1.076 .      S
C60   H68   1.080 .      S
C61   H69   1.081 .      S
C62   H70   1.072 .      S
H62   C55   1.098 1_545  S
C64   N22   1.450 .      S
C64   H71   1.104 .      S
C64   H72   1.102 .      S
C64   H73   1.103 .      S
N22   C65   1.463 .      S
N22   H74   1.036 .      S
C65   C66   1.473 .      S
C65   H75   1.097 .      S
C65   H76   1.086 .      S
C68   H77   1.058 .      S
C69   H78   1.081 .      S
C70   H79   1.079 .      S
C71   H80   1.047 .      S
C73   N25   1.455 .      S
C73   H81   1.107 .      S
C73   H82   1.110 .      S
C73   H83   1.110 .      S
N25   C74   1.446 .      S
N25   H84   1.043 .      S
C74   C75   1.480 .      S
C74   H85   1.099 .      S
C74   H86   1.106 .      S
C77   H87   1.070 .      S
C78   H88   1.081 .      S
C79   H89   1.075 .      S
C80   H90   1.069 .      S
C82   N28   1.456 .      S
C82   H91   1.108 .      S
C82   H92   1.109 .      S
C82   H93   1.110 .      S
N28   C83   1.452 .      S
N28   H94   1.040 .      S
C83   C84   1.475 .      S
C83   H95   1.086 .      S
C83   H96   1.105 .      S
C86   H97   1.062 .      S
C87   H98   1.078 .      S
C88   H99   1.081 .      S
C89   H100  1.062 .      S
C91   N31   1.456 1_655  S
C91   H101  1.109 .      S
C91   H102  1.108 .      S
C91   H103  1.109 .      S
N31   C91   1.456 1_455  S
N31   C92   1.449 .      S
N31   H104  1.040 .      S
C92   C93   1.507 .      S
C92   H105  1.094 .      S
C92   H106  1.108 .      S
C95   H107  1.049 .      S
C96   H108  1.080 .      S
C97   H109  1.075 .      S
C98   H110  1.071 .      S
C100  N34   1.453 .      S
C100  H111  1.109 .      S
C100  H112  1.107 .      S
C100  H113  1.109 .      S
N34   C101  1.454 .      S
N34   H114  1.043 .      S
C101  C102  1.498 .      S
C101  H115  1.106 .      S
C101  H116  1.100 .      S
C104  H117  1.045 .      S
C105  H118  1.081 .      S
C106  H119  1.077 .      S
C107  H120  1.063 .      S
C109  N37   1.460 .      S
C109  H121  1.101 .      S
C109  H122  1.106 .      S
C109  H123  1.106 .      S
N37   C110  1.434 .      S
N37   H124  1.026 .      S
C110  C111  1.482 .      S
C110  H125  1.106 .      S
C110  H126  1.076 .      S
N38   Zn6   2.108 1_545  S
C113  H127  1.073 .      S
C114  H128  1.081 .      S
C115  H129  1.058 .      S
C116  H130  1.067 .      S
C118  N40   1.426 1_545  S
C118  H131  1.106 .      S
C118  H132  1.100 .      S
C118  H133  1.101 .      S
N40   C118  1.426 1_565  S
N40   C119  1.426 .      S
N40   H134  1.039 .      S
C119  C120  1.411 .      S
C119  H135  1.093 .      S
C119  H136  1.105 .      S
C122  H137  1.074 .      S
C123  H138  1.081 .      S
C124  H139  1.077 .      S
C125  H140  1.072 .      S
C127  N43   1.455 .      S
C127  H141  1.105 .      S
C127  H142  1.099 .      S
C127  H143  1.107 .      S
N43   C128  1.446 .      S
N43   H144  1.041 .      S
C128  C129  1.480 .      S
C128  H145  1.091 .      S
C128  H146  1.076 .      S
N44   Zn7   2.056 1_655  S
C131  H147  1.075 1_655  S
C132  H148  1.074 .      S
C133  H149  1.081 .      S
C134  H150  1.074 .      S
H147  C131  1.075 1_455  S
C136  N46   1.458 .      S
C136  H151  1.107 .      S
C136  H152  1.095 .      S
C136  H153  1.105 .      S
N46   C137  1.442 .      S
N46   H154  1.030 .      S
C137  C138  1.481 .      S
C137  H155  1.106 .      S
C137  H156  1.067 .      S
C140  H157  1.074 .      S
C141  H158  1.081 .      S
C142  H159  1.079 .      S
C143  H160  1.075 1_455  S
N48   Zn11  2.110 1_556  S
H160  C143  1.075 1_655  S
C145  N49   1.454 .      S
C145  H161  1.109 .      S
C145  H162  1.109 .      S
C145  H163  1.108 .      S
N49   C146  1.455 .      S
N49   H164  1.043 1_554  S
C146  C147  1.481 1_554  S
C146  H165  1.100 .      S
C146  H166  1.106 .      S
C147  C146  1.481 1_556  S
C149  H167  1.080 .      S
C150  H168  1.081 .      S
C151  H169  1.081 .      S
C152  H170  1.068 .      S
H164  N49   1.043 1_556  S
C154  N52   1.451 .      S
C154  H171  1.099 .      S
C154  H172  1.107 .      S
C154  H173  1.093 .      S
N52   C155  1.447 .      S
N52   H174  1.036 .      S
C155  C156  1.484 .      S
C155  H175  1.102 .      S
C155  H176  1.108 .      S
C158  H177  1.073 .      S
C159  H178  1.081 .      S
C160  H179  1.081 .      S
C161  H180  1.061 .      S
N54   Zn13  2.091 1_465  S
C163  N55   1.453 .      S
C163  H181  1.105 .      S
C163  H182  1.107 .      S
C163  H183  1.103 .      S
N55   C164  1.440 .      S
N55   H184  1.032 .      S
C164  C165  1.490 1_565  S
C164  H185  1.094 .      S
C164  H186  1.095 1_455  S
C165  C164  1.490 1_545  S
C167  H187  1.074 1_556  S
C168  H188  1.081 .      S
C169  H189  1.070 .      S
C170  H190  1.062 .      S
N57   Zn10  2.132 1_545  S
H186  C164  1.095 1_655  S
H187  C167  1.074 1_554  S
C172  N58   1.452 .      S
C172  H191  1.108 .      S
C172  H192  1.109 .      S
C172  H193  1.108 .      S
N58   C173  1.461 .      S
N58   H194  1.038 .      S
C173  C174  1.502 .      S
C173  H195  1.109 .      S
C173  H196  1.098 .      S
C176  H197  1.078 .      S
C177  H198  1.081 1_655  S
C178  H199  1.078 1_655  S
C179  H200  1.073 .      S
H198  C177  1.081 1_455  S
H199  C178  1.078 1_455  S
C181  N61   1.451 .      S
C181  H201  1.108 .      S
C181  H202  1.109 .      S
C181  H203  1.105 .      S
N61   C182  1.454 .      S
N61   H204  1.044 .      S
C182  C183  1.484 .      S
C182  H205  1.108 .      S
C182  H206  1.107 .      S
C185  H207  1.055 .      S
C186  H208  1.081 .      S
C187  H209  1.077 .      S
C188  H210  1.074 .      S
C190  N64   1.454 .      S
C190  H211  1.109 .      S
C190  H212  1.109 .      S
C190  H213  1.109 .      S
N64   C191  1.453 .      S
N64   H214  1.041 .      S
C191  C192  1.490 .      S
C191  H215  1.107 1_556  S
C191  H216  1.106 1_556  S
C194  H217  1.075 .      S
C195  H218  1.066 .      S
C196  H219  1.066 .      S
C197  H220  1.060 1_554  S
H215  C191  1.107 1_554  S
H216  C191  1.106 1_554  S
H220  C197  1.060 1_556  S
C199  N67   1.454 .      S
C199  H221  1.106 .      S
C199  H222  1.102 .      S
C199  H223  1.101 .      S
N67   C200  1.446 .      S
N67   H224  1.039 .      S
C200  C201  1.482 .      S
C200  H225  1.095 1_545  S
C200  H226  1.102 1_545  S
N68   Zn12  2.078 1_545  S
C203  H227  1.064 .      S
C204  H228  1.077 .      S
C205  H229  1.081 .      S
C206  H230  1.071 .      S
H225  C200  1.095 1_565  S
H226  C200  1.102 1_565  S
C208  N70   1.423 1_556  S
C208  H231  1.103 .      S
C208  H232  1.099 .      S
C208  H233  1.093 .      S
N70   C208  1.423 1_554  S
N70   C209  1.432 .      S
N70   H234  1.033 .      S
C209  C210  1.449 .      S
C209  H235  1.093 .      S
C209  H236  1.079 1_554  S
N71   Zn12  2.033 1_544  S
C212  H237  1.071 .      S
C213  H238  1.081 .      S
C214  H239  1.076 .      S
C215  H240  1.071 .      S
H236  C209  1.079 1_556  S
C217  N73   1.449 .      S
C217  H241  1.092 .      S
C217  H242  1.099 1_655  S
C217  H243  1.103 .      S
N73   C218  1.444 1_655  S
N73   H244  1.033 .      S
C218  N73   1.444 1_455  S
C218  C219  1.488 1_445  S
C218  H245  1.086 .      S
C218  H246  1.101 .      S
C219  C218  1.488 1_665  S
N74   Zn13  2.074 1_565  S
C221  H247  1.075 .      S
C222  H248  1.081 .      S
C223  H249  1.081 .      S
C224  H250  1.078 .      S
H242  C217  1.099 1_455  S
C226  N76   1.457 .      S
C226  H251  1.105 .      S
C226  H252  1.107 .      S
C226  H253  1.102 .      S
N76   C227  1.437 1_565  S
N76   H254  1.041 .      S
C227  N76   1.437 1_545  S
C227  C228  1.475 .      S
C227  H255  1.086 .      S
C227  H256  1.102 .      S
N77   Zn13  2.151 1_455  S
C230  H257  1.071 1_455  S
C231  H258  1.080 .      S
C232  H259  1.081 .      S
C233  H260  1.064 .      S
H257  C230  1.071 1_655  S
C235  N79   1.457 .      S
C235  H261  1.109 .      S
C235  H262  1.108 .      S
C235  H263  1.105 .      S
N79   C236  1.455 .      S
N79   H264  1.038 .      S
C236  C237  1.508 .      S
C236  H265  1.105 .      S
C236  H266  1.097 .      S
C239  H267  1.065 .      S
C240  H268  1.081 .      S
C241  H269  1.080 .      S
C242  H270  1.063 .      S
C244  N82   1.438 .      S
C244  H271  1.108 .      S
C244  H272  1.103 .      S
C244  H273  1.105 .      S
N82   C245  1.442 .      S
N82   H274  1.039 1_545  S
C245  C246  1.473 .      S
C245  H275  1.100 .      S
C245  H276  1.107 .      S
N83   Zn14  2.027 1_655  S
C248  H277  1.057 .      S
C249  H278  1.067 .      S
C250  H279  1.062 .      S
C251  H280  1.062 1_545  S
N84   Zn17  1.998 1_545  S
H274  N82   1.039 1_565  S
H280  C251  1.062 1_565  S
C253  N85   1.429 .      S
C253  H281  1.102 .      S
C253  H282  1.106 .      S
C253  H283  1.104 .      S
N85   C254  1.432 1_556  S
N85   H284  1.029 .      S
C254  N85   1.432 1_554  S
C254  C255  1.454 .      S
C254  H285  1.091 .      S
C254  H286  1.099 .      S
N86   Zn14  2.152 1_655  S
C257  H287  1.063 .      S
C258  H288  1.081 .      S
C259  H289  1.073 .      S
C260  H290  1.065 .      S
C262  N88   1.435 .      S
C262  H291  1.084 .      S
C262  H292  1.097 1_554  S
C262  H293  1.078 .      S
N88   C263  1.437 .      S
N88   H294  1.043 .      S
C263  C264  1.434 .      S
C263  H295  1.073 .      S
C263  H296  1.093 .      S
C266  H297  1.081 .      S
C267  H298  1.081 .      S
C268  H299  1.081 .      S
C269  H300  1.071 .      S
H292  C262  1.097 1_556  S
C271  N91   1.454 .      S
C271  H301  1.109 .      S
C271  H302  1.108 .      S
C271  H303  1.109 .      S
N91   C272  1.453 .      S
N91   H304  1.043 .      S
C272  C273  1.492 .      S
C272  H305  1.095 .      S
C272  H306  1.093 .      S
C275  H307  1.057 .      S
C276  H308  1.078 .      S
C277  H309  1.081 1_655  S
C278  H310  1.080 .      S
N93   Zn18  2.178 1_556  S
H309  C277  1.081 1_455  S
C280  N94   1.454 .      S
C280  H311  1.103 1_545  S
C280  H312  1.106 .      S
C280  H313  1.101 .      S
N94   C281  1.447 .      S
N94   H314  1.039 .      S
C281  C282  1.459 .      S
C281  H315  1.073 .      S
C281  H316  1.097 .      S
C284  H317  1.057 .      S
C285  H318  1.081 .      S
C286  H319  1.081 .      S
C287  H320  1.077 .      S
H311  C280  1.103 1_565  S
C289  N97   1.450 .      S
C289  H321  1.109 .      S
C289  H322  1.105 .      S
C289  H323  1.107 .      S
N97   C290  1.458 .      S
N97   H324  1.041 .      S
C290  C291  1.475 .      S
C290  H325  1.093 .      S
C290  H326  1.104 .      S
C293  H327  1.072 .      S
C294  H328  1.081 .      S
C295  H329  1.081 1_554  S
C296  H330  1.080 1_554  S
H329  C295  1.081 1_556  S
H330  C296  1.080 1_556  S
C298  N100  1.453 1_565  S
C298  H331  1.109 .      S
C298  H332  1.103 .      S
C298  H333  1.103 .      S
N100  C298  1.453 1_545  S
N100  C299  1.459 .      S
N100  H334  1.040 .      S
C299  C300  1.486 .      S
C299  H335  1.089 .      S
C299  H336  1.097 .      S
C302  H337  1.066 .      S
C303  H338  1.081 .      S
C304  H339  1.080 .      S
C305  H340  1.074 .      S
C307  N103  1.449 .      S
C307  H341  1.107 .      S
C307  H342  1.102 .      S
C307  H343  1.099 .      S
N103  C308  1.450 1_545  S
N103  H344  1.039 1_655  S
C308  N103  1.450 1_565  S
C308  C309  1.474 1_655  S
C308  H345  1.089 1_565  S
C308  H346  1.101 .      S
C309  C308  1.474 1_455  S
N104  Zn17  2.159 1_455  S
C311  H347  1.074 .      S
C312  H348  1.080 .      S
C313  H349  1.081 .      S
C314  H350  1.077 .      S
H344  N103  1.039 1_455  S
H345  C308  1.089 1_545  S
C316  N106  1.448 .      S
C316  H351  1.109 .      S
C316  H352  1.103 .      S
C316  H353  1.103 .      S
N106  C317  1.447 .      S
N106  H354  1.035 .      S
C317  C318  1.478 .      S
C317  H355  1.077 .      S
C317  H356  1.087 .      S
C320  H357  1.079 .      S
C321  H358  1.081 .      S
C322  H359  1.079 .      S
C323  H360  1.069 .      S
C3    N2    1.400 .      A
C3    N3    1.370 .      A
N2    C4    1.358 .      A
C4    C5    1.364 1_565  A
C4    C9    1.341 .      A
C5    C4    1.364 1_545  A
C5    C6    1.380 .      A
C6    C7    1.362 .      A
C7    C8    1.363 .      A
C8    C9    1.373 1_545  A
C9    C8    1.373 1_565  A
C9    N3    1.331 .      A
C12   N5    1.352 .      A
C12   N6    1.381 1_655  A
N5    C13   1.319 1_655  A
C13   N5    1.319 1_455  A
C13   C14   1.367 .      A
C13   C18   1.351 .      A
C14   C15   1.357 .      A
C15   C16   1.366 .      A
C16   C17   1.381 .      A
C17   C18   1.368 .      A
C18   N6    1.372 .      A
N6    C12   1.381 1_455  A
C21   N8    1.388 .      A
C21   N9    1.399 .      A
N8    C22   1.333 1_455  A
C22   N8    1.333 1_655  A
C22   C23   1.341 .      A
C22   C27   1.352 1_655  A
C23   C24   1.379 .      A
C24   C25   1.381 .      A
C25   C26   1.383 1_655  A
C26   C25   1.383 1_455  A
C26   C27   1.377 .      A
C27   C22   1.352 1_455  A
C27   N9    1.356 .      A
C30   N11   1.401 .      A
C30   N12   1.393 .      A
N11   C31   1.344 .      A
C31   C32   1.363 .      A
C31   C36   1.377 .      A
C32   C33   1.381 .      A
C33   C34   1.383 .      A
C34   C35   1.379 .      A
C35   C36   1.380 .      A
C36   N12   1.358 .      A
C39   N14   1.388 .      A
C39   N15   1.366 .      A
N14   C40   1.333 1_545  A
C40   N14   1.333 1_565  A
C40   C41   1.356 .      A
C40   C45   1.343 1_565  A
C41   C42   1.377 .      A
C42   C43   1.376 .      A
C43   C44   1.381 1_565  A
C44   C43   1.381 1_545  A
C44   C45   1.336 .      A
C45   C40   1.343 1_545  A
C45   N15   1.337 .      A
C48   N17   1.386 .      A
C48   N18   1.388 .      A
N17   C49   1.358 .      A
C49   C50   1.346 1_445  A
C49   C54   1.345 1_545  A
C50   C49   1.346 1_665  A
C50   C51   1.387 .      A
C51   C52   1.378 .      A
C52   C53   1.371 1_655  A
C53   C52   1.371 1_455  A
C53   C54   1.378 .      A
C54   C49   1.345 1_565  A
C54   N18   1.328 1_565  A
N18   C54   1.328 1_545  A
C57   N20   1.400 .      A
C57   N21   1.394 .      A
N20   C58   1.358 .      A
C58   C59   1.374 .      A
C58   C63   1.383 .      A
C59   C60   1.386 .      A
C60   C61   1.388 .      A
C61   C62   1.382 .      A
C62   C63   1.371 .      A
C63   N21   1.349 .      A
C66   N23   1.371 .      A
C66   N24   1.377 .      A
N23   C67   1.349 .      A
C67   C68   1.379 .      A
C67   C72   1.352 .      A
C68   C69   1.375 .      A
C69   C70   1.375 .      A
C70   C71   1.381 .      A
C71   C72   1.363 .      A
C72   N24   1.349 .      A
C75   N26   1.389 .      A
C75   N27   1.388 1_565  A
N26   C76   1.338 1_565  A
C76   N26   1.338 1_545  A
C76   C77   1.364 .      A
C76   C81   1.352 .      A
C77   C78   1.382 .      A
C78   C79   1.383 .      A
C79   C80   1.379 .      A
C80   C81   1.371 .      A
C81   N27   1.349 .      A
N27   C75   1.388 1_545  A
C84   N29   1.367 .      A
C84   N30   1.383 .      A
N29   C85   1.350 .      A
C85   C86   1.375 .      A
C85   C90   1.359 .      A
C86   C87   1.382 .      A
C87   C88   1.382 .      A
C88   C89   1.379 .      A
C89   C90   1.372 .      A
C90   N30   1.347 .      A
C93   N32   1.401 .      A
C93   N33   1.388 .      A
N32   C94   1.343 .      A
C94   C95   1.362 .      A
C94   C99   1.349 .      A
C95   C96   1.363 .      A
C96   C97   1.378 .      A
C97   C98   1.362 .      A
C98   C99   1.351 .      A
C99   N33   1.332 .      A
C102  N35   1.399 .      A
C102  N36   1.392 .      A
N35   C103  1.344 .      A
C103  C104  1.358 .      A
C103  C108  1.360 .      A
C104  C105  1.372 .      A
C105  C106  1.373 .      A
C106  C107  1.377 .      A
C107  C108  1.382 .      A
C108  N36   1.352 .      A
C111  N38   1.390 .      A
C111  N39   1.382 .      A
N38   C112  1.336 1_545  A
C112  N38   1.336 1_565  A
C112  C113  1.370 .      A
C112  C117  1.366 1_565  A
C113  C114  1.366 .      A
C114  C115  1.375 .      A
C115  C116  1.385 1_565  A
C116  C115  1.385 1_545  A
C116  C117  1.372 .      A
C117  C112  1.366 1_545  A
C117  N39   1.359 .      A
C120  N41   1.382 .      A
C120  N42   1.368 .      A
N41   C121  1.364 .      A
C121  C122  1.385 .      A
C121  C126  1.370 .      A
C122  C123  1.377 .      A
C123  C124  1.382 .      A
C124  C125  1.374 .      A
C125  C126  1.364 .      A
C126  N42   1.340 .      A
C129  N44   1.375 .      A
C129  N45   1.360 .      A
N44   C130  1.355 .      A
C130  C131  1.373 .      A
C130  C135  1.364 .      A
C131  C132  1.389 .      A
C132  C133  1.383 .      A
C133  C134  1.375 .      A
C134  C135  1.372 .      A
C135  N45   1.338 .      A
C138  N47   1.377 1_655  A
C138  N48   1.385 .      A
N47   C138  1.377 1_455  A
N47   C139  1.345 .      A
C139  C140  1.373 .      A
C139  C144  1.368 1_455  A
C140  C141  1.381 .      A
C141  C142  1.386 .      A
C142  C143  1.387 1_556  A
C143  C142  1.387 1_554  A
C143  C144  1.371 1_454  A
C144  C139  1.368 1_655  A
C144  C143  1.371 1_656  A
C144  N48   1.350 .      A
C147  N50   1.372 .      A
C147  N51   1.381 .      A
N50   C148  1.340 .      A
C148  C149  1.372 .      A
C148  C153  1.363 .      A
C149  C150  1.382 .      A
C150  C151  1.389 .      A
C151  C152  1.385 .      A
C152  C153  1.375 .      A
C153  N51   1.355 .      A
C156  N53   1.388 1_545  A
C156  N54   1.380 1_545  A
N53   C156  1.388 1_565  A
N53   C157  1.341 .      A
C157  C158  1.377 .      A
C157  C162  1.354 1_455  A
C158  C159  1.381 1_455  A
C159  C158  1.381 1_655  A
C159  C160  1.386 .      A
C160  C161  1.386 .      A
C161  C162  1.370 .      A
C162  C157  1.354 1_655  A
C162  N54   1.352 1_655  A
N54   C156  1.380 1_565  A
N54   C162  1.352 1_455  A
C165  N56   1.385 .      A
C165  N57   1.389 1_554  A
N56   C166  1.331 .      A
C166  C167  1.374 1_554  A
C166  C171  1.353 1_554  A
C167  C166  1.374 1_556  A
C167  C168  1.371 .      A
C168  C169  1.379 .      A
C169  C170  1.390 .      A
C170  C171  1.351 .      A
C171  C166  1.353 1_556  A
C171  N57   1.353 .      A
N57   C165  1.389 1_556  A
C174  N59   1.401 .      A
C174  N60   1.381 .      A
N59   C175  1.347 .      A
C175  C176  1.373 .      A
C175  C180  1.370 .      A
C176  C177  1.382 .      A
C177  C178  1.388 .      A
C178  C179  1.386 .      A
C179  C180  1.368 .      A
C180  N60   1.347 .      A
C183  N62   1.393 .      A
C183  N63   1.387 .      A
N62   C184  1.350 1_554  A
C184  N62   1.350 1_556  A
C184  C185  1.371 .      A
C184  C189  1.361 .      A
C185  C186  1.376 .      A
C186  C187  1.378 .      A
C187  C188  1.387 .      A
C188  C189  1.370 .      A
C189  N63   1.344 1_556  A
N63   C189  1.344 1_554  A
C192  N65   1.388 1_556  A
C192  N66   1.386 .      A
N65   C192  1.388 1_554  A
N65   C193  1.340 .      A
C193  C194  1.375 .      A
C193  C198  1.351 .      A
C194  C195  1.380 1_565  A
C195  C194  1.380 1_545  A
C195  C196  1.373 .      A
C196  C197  1.360 .      A
C197  C198  1.348 1_545  A
C198  C197  1.348 1_565  A
C198  N66   1.334 1_554  A
N66   C198  1.334 1_556  A
C201  N68   1.376 .      A
C201  N69   1.392 .      A
N68   C202  1.342 .      A
C202  C203  1.365 .      A
C202  C207  1.351 .      A
C203  C204  1.380 .      A
C204  C205  1.382 .      A
C205  C206  1.377 .      A
C206  C207  1.370 .      A
C207  N69   1.344 .      A
C210  N71   1.376 .      A
C210  N72   1.367 .      A
N71   C211  1.335 1_545  A
C211  N71   1.335 1_565  A
C211  C212  1.371 .      A
C211  C216  1.356 1_565  A
C212  C213  1.375 .      A
C213  C214  1.380 .      A
C214  C215  1.383 1_565  A
C215  C214  1.383 1_545  A
C215  C216  1.361 .      A
C216  C211  1.356 1_545  A
C216  N72   1.355 .      A
C219  N74   1.362 .      A
C219  N75   1.382 .      A
N74   C220  1.362 .      A
C220  C221  1.374 1_655  A
C220  C225  1.356 .      A
C221  C220  1.374 1_455  A
C221  C222  1.386 .      A
C222  C223  1.387 1_455  A
C223  C222  1.387 1_655  A
C223  C224  1.381 .      A
C224  C225  1.372 .      A
C225  N75   1.335 .      A
C228  N77   1.384 .      A
C228  N78   1.404 .      A
N77   C229  1.352 .      A
C229  C230  1.368 .      A
C229  C234  1.370 .      A
C230  C231  1.387 .      A
C231  C232  1.386 .      A
C232  C233  1.381 .      A
C233  C234  1.365 .      A
C234  N78   1.345 .      A
C237  N80   1.394 .      A
C237  N81   1.384 .      A
N80   C238  1.348 .      A
C238  C239  1.378 1_545  A
C238  C243  1.354 .      A
C239  C238  1.378 1_565  A
C239  C240  1.380 .      A
C240  C241  1.380 .      A
C241  C242  1.380 1_565  A
C242  C241  1.380 1_545  A
C242  C243  1.372 .      A
C243  N81   1.350 .      A
C246  N83   1.375 1_455  A
C246  N84   1.376 1_455  A
N83   C246  1.375 1_655  A
N83   C247  1.335 .      A
C247  C248  1.349 .      A
C247  C252  1.338 .      A
C248  C249  1.372 .      A
C249  C250  1.372 .      A
C250  C251  1.371 .      A
C251  C252  1.348 .      A
C252  N84   1.327 .      A
N84   C246  1.376 1_655  A
C255  N86   1.385 .      A
C255  N87   1.391 .      A
N86   C256  1.344 .      A
C256  C257  1.371 1_655  A
C256  C261  1.376 .      A
C257  C256  1.371 1_455  A
C257  C258  1.373 .      A
C258  C259  1.378 .      A
C259  C260  1.383 1_455  A
C260  C259  1.383 1_655  A
C260  C261  1.372 .      A
C261  N87   1.357 .      A
C264  N89   1.374 .      A
C264  N90   1.373 .      A
N89   C265  1.346 .      A
C265  C266  1.373 .      A
C265  C270  1.373 .      A
C266  C267  1.383 .      A
C267  C268  1.390 .      A
C268  C269  1.386 .      A
C269  C270  1.371 .      A
C270  N90   1.353 .      A
C273  N92   1.398 .      A
C273  N93   1.399 .      A
N92   C274  1.362 .      A
C274  C275  1.367 .      A
C274  C279  1.370 .      A
C275  C276  1.384 .      A
C276  C277  1.385 .      A
C277  C278  1.378 .      A
C278  C279  1.374 .      A
C279  N93   1.336 .      A
C282  N95   1.408 .      A
C282  N96   1.388 .      A
N95   C283  1.368 .      A
C283  C284  1.363 .      A
C283  C288  1.372 .      A
C284  C285  1.384 .      A
C285  C286  1.382 .      A
C286  C287  1.378 .      A
C287  C288  1.371 .      A
C288  N96   1.331 .      A
C291  N98   1.395 .      A
C291  N99   1.382 .      A
N98   C292  1.354 .      A
C292  C293  1.374 .      A
C292  C297  1.373 .      A
C293  C294  1.385 .      A
C294  C295  1.389 .      A
C295  C296  1.384 .      A
C296  C297  1.372 .      A
C297  N99   1.346 .      A
C300  N101  1.372 .      A
C300  N102  1.381 .      A
N101  C301  1.352 .      A
C301  C302  1.374 .      A
C301  C306  1.364 .      A
C302  C303  1.381 .      A
C303  C304  1.384 .      A
C304  C305  1.382 .      A
C305  C306  1.377 .      A
C306  N102  1.349 .      A
C309  N104  1.386 .      A
C309  N105  1.400 .      A
N104  C310  1.353 .      A
C310  C311  1.370 .      A
C310  C315  1.372 .      A
C311  C312  1.385 .      A
C312  C313  1.387 .      A
C313  C314  1.382 .      A
C314  C315  1.372 .      A
C315  N105  1.345 .      A
C318  N107  1.401 1_545  A
C318  N108  1.384 .      A
N107  C318  1.401 1_565  A
N107  C319  1.339 .      A
C319  C320  1.372 .      A
C319  C324  1.366 .      A
C320  C321  1.380 .      A
C321  C322  1.388 .      A
C322  C323  1.391 .      A
C323  C324  1.355 .      A
C324  N108  1.349 1_565  A
N108  C324  1.349 1_545  A
