data_str_m1_o12004_SOF
_audit_creation_date              2015-10-01T06:33:20-0700
_symmetry_space_group_name_H-M    P1
_symmetry_Int_Tables_number       1
_space_group_crystal_system       triclinic
loop_
_symmetry_equiv_pos_as_xyz
  x,y,z
_cell_length_a                    24.9230546
_cell_length_b                    24.4018740
_cell_length_c                    21.4178571
_cell_angle_alpha                 89.6614685
_cell_angle_beta                  108.854649
_cell_angle_gamma                 61.9537010
_cell_volume                      10683.1067953

loop_
_atom_site_label
_atom_site_type_symbol
_atom_site_description
_atom_site_fract_x
_atom_site_fract_y
_atom_site_fract_z
_atom_type_partial_charge
Zn1   Zn    Zn3+2 0.960332 0.772879 0.598232 0.000000
Zn2   Zn    Zn3+2 0.741728 0.395909 0.265633 0.000000
Zn3   Zn    Zn3+2 0.662238 0.987728 0.480837 0.000000
Zn4   Zn    Zn3+2 0.642096 0.715418 0.967897 0.000000
Zn5   Zn    Zn3+2 0.256417 0.093939 0.022533 0.000000
Zn6   Zn    Zn3+2 0.051011 0.313146 0.381852 0.000000
Zn7   Zn    Zn3+2 0.052427 0.346421 0.087125 0.000000
Zn8   Zn    Zn3+2 0.643658 0.040775 0.757455 0.000000
Zn9   Zn    Zn3+2 0.444711 0.996474 0.838129 0.000000
Zn10  Zn    Zn3+2 0.427470 0.941825 0.322098 0.000000
Zn11  Zn    Zn3+2 0.634447 0.693918 0.257152 0.000000
Zn12  Zn    Zn3+2 0.271954 0.027875 0.532135 0.000000
Zn13  Zn    Zn3+2 0.026109 0.037899 0.864832 0.000000
Zn14  Zn    Zn3+2 0.047874 0.981410 0.585998 0.000000
Zn15  Zn    Zn3+2 0.948966 0.825412 0.892938 0.000000
Zn16  Zn    Zn3+2 0.948021 0.634969 0.084038 0.000000
Zn17  Zn    Zn3+2 0.746967 0.192014 0.447761 0.000000
Zn18  Zn    Zn3+2 0.741728 0.416704 0.959663 0.000000
Zn19  Zn    Zn3+2 0.729237 0.243128 0.734624 0.000000
Zn20  Zn    Zn3+2 0.948558 0.598194 0.385576 0.000000
C1    C     C_3   0.908261 0.940429 0.638793 0.000000
N1    N     N_3   0.893501 0.896524 0.604211 0.000000
C2    C     C_3   0.833609 0.928738 0.545514 0.000000
C3    C     C_R   0.811905 0.883957 0.533533 0.000000
N2    N     N_R   0.858074 0.821136 0.552267 0.000000
C4    C     C_R   0.820936 0.793655 0.541154 0.000000
C5    C     C_R   0.842334 0.730709 0.559991 0.000000
C6    C     C_R   0.796392 0.713706 0.558025 0.000000
C7    C     C_R   0.731026 0.759450 0.537937 0.000000
C8    C     C_R   0.710134 0.822110 0.515898 0.000000
C9    C     C_R   0.755923 0.838807 0.518937 0.000000
N3    N     N_R   0.747844 0.897795 0.512188 0.000000
H1    H     H_    0.942427 0.914941 0.687239 0.000000
H2    H     H_    0.940248 0.950360 0.623167 0.000000
H3    H     H_    0.864342 0.981968 0.640171 0.000000
H4    H     H_    0.885629 0.873929 0.638903 0.000000
H5    H     H_    0.796172 0.973998 0.551468 0.000000
H6    H     H_    0.844078 0.933000 0.500717 0.000000
H7    H     H_    0.893513 0.695829 0.580476 0.000000
H8    H     H_    0.811814 0.665031 0.575246 0.000000
H9    H     H_    0.696387 0.746093 0.541318 0.000000
H10   H     H_    0.660081 0.856862 0.500504 0.000000
C10   C     C_3   0.715546 0.574480 0.472169 0.000000
N4    N     N_3   0.701246 0.591553 0.401179 0.000000
C11   C     C_3   0.722878 0.533401 0.375331 0.000000
C12   C     C_R   0.684994 0.544076 0.302156 0.000000
N5    N     N_R   0.632853 0.604504 0.271732 0.000000
C13   C     C_R   0.586490 0.590808 0.236770 0.000000
C14   C     C_R   0.520334 0.628089 0.220848 0.000000
C15   C     C_R   0.480334 0.602690 0.195639 0.000000
C16   C     C_R   0.507320 0.539302 0.191696 0.000000
C17   C     C_R   0.574426 0.500904 0.214207 0.000000
C18   C     C_R   0.613374 0.527131 0.236299 0.000000
N6    N     N_R   0.678356 0.495403 0.272606 0.000000
H11   H     H_    0.675687 0.569144 0.478516 0.000000
H12   H     H_    0.762933 0.529929 0.495049 0.000000
H13   H     H_    0.720092 0.611920 0.498429 0.000000
H14   H     H_    0.732234 0.608492 0.400024 0.000000
H15   H     H_    0.775279 0.513082 0.385390 0.000000
H16   H     H_    0.711501 0.503238 0.401066 0.000000
H17   H     H_    0.500732 0.672717 0.236365 0.000000
H18   H     H_    0.428228 0.631250 0.183520 0.000000
H19   H     H_    0.476054 0.518887 0.175417 0.000000
H20   H     H_    0.595466 0.451188 0.219865 0.000000
C19   C     C_3   0.924334 0.208899 0.205030 0.000000
N7    N     N_3   0.910839 0.239869 0.260306 0.000000
C20   C     C_3   0.905377 0.301474 0.249803 0.000000
C21   C     C_R   0.901124 0.330297 0.309929 0.000000
N8    N     N_R   0.842509 0.363029 0.320294 0.000000
C22   C     C_R   0.863660 0.372358 0.383466 0.000000
C23   C     C_R   0.827967 0.395899 0.422789 0.000000
C24   C     C_R   0.859820 0.393890 0.489643 0.000000
C25   C     C_R   0.927520 0.363118 0.516497 0.000000
C26   C     C_R   0.962790 0.337444 0.475531 0.000000
C27   C     C_R   0.929538 0.347689 0.408432 0.000000
N9    N     N_R   0.955552 0.324296 0.362221 0.000000
H21   H     H_    0.938132 0.158678 0.216277 0.000000
H22   H     H_    0.881209 0.232685 0.157968 0.000000
H23   H     H_    0.964569 0.211369 0.197112 0.000000
H24   H     H_    0.950770 0.212984 0.304547 0.000000
H25   H     H_    0.948173 0.297205 0.241184 0.000000
H26   H     H_    0.861482 0.332471 0.205456 0.000000
H27   H     H_    0.777049 0.410183 0.402346 0.000000
H28   H     H_    0.832508 0.410585 0.522262 0.000000
H29   H     H_    0.952503 0.354657 0.570196 0.000000
H30   H     H_    0.014445 0.304294 0.495622 0.000000
C28   C     C_3   0.483068 0.960798 0.549288 0.000000
N10   N     N_3   0.481089 0.980996 0.484536 0.000000
C29   C     C_3   0.543711 0.939627 0.479717 0.000000
C30   C     C_R   0.543807 0.961883 0.414561 0.000000
N11   N     N_R   0.493971 0.974283 0.354304 0.000000
C31   C     C_R   0.500980 0.011207 0.314222 0.000000
C32   C     C_R   0.456118 0.050315 0.254568 0.000000
C33   C     C_R   0.470996 0.086712 0.221470 0.000000
C34   C     C_R   0.523510 0.094011 0.254729 0.000000
C35   C     C_R   0.561503 0.063013 0.319835 0.000000
C36   C     C_R   0.553656 0.017502 0.346938 0.000000
N12   N     N_R   0.583904 0.985342 0.410630 0.000000
H31   H     H_    0.436520 0.993771 0.555075 0.000000
H32   H     H_    0.488941 0.912840 0.551878 0.000000
H33   H     H_    0.523753 0.961346 0.589967 0.000000
H34   H     H_    0.475122 0.026019 0.483716 0.000000
H35   H     H_    0.582694 0.940883 0.521805 0.000000
H36   H     H_    0.551689 0.891051 0.483596 0.000000
H37   H     H_    0.408194 0.057048 0.236546 0.000000
H38   H     H_    0.437491 0.115792 0.173025 0.000000
H39   H     H_    0.530546 0.128822 0.232485 0.000000
H40   H     H_    0.591186 0.079777 0.349112 0.000000
C37   C     C_3   0.749373 0.027274 0.690366 0.000000
N13   N     N_3   0.762458 0.978434 0.650468 0.000000
C38   C     C_3   0.721474 0.952352 0.649731 0.000000
C39   C     C_R   0.654042 0.001063 0.620316 0.000000
N14   N     N_R   0.615529 0.035597 0.655124 0.000000
C40   C     C_R   0.558461 0.074748 0.604102 0.000000
C41   C     C_R   0.501786 0.122832 0.607078 0.000000
C42   C     C_R   0.453681 0.163483 0.547553 0.000000
C43   C     C_R   0.460677 0.153568 0.486472 0.000000
C44   C     C_R   0.517009 0.103728 0.484140 0.000000
C45   C     C_R   0.565289 0.065723 0.543668 0.000000
N15   N     N_R   0.625717 0.019183 0.552738 0.000000
H41   H     H_    0.725306 0.073474 0.657784 0.000000
H42   H     H_    0.719654 0.027415 0.717600 0.000000
H43   H     H_    0.793996 0.017760 0.730754 0.000000
H44   H     H_    0.809343 0.941788 0.676185 0.000000
H45   H     H_    0.728593 0.916621 0.617849 0.000000
H46   H     H_    0.732624 0.931460 0.699539 0.000000
H47   H     H_    0.495657 0.130757 0.654001 0.000000
H48   H     H_    0.411318 0.205313 0.548403 0.000000
H49   H     H_    0.422556 0.185754 0.440700 0.000000
H50   H     H_    0.522664 0.096013 0.436887 0.000000
C46   C     C_3   0.434792 0.800599 0.970730 0.000000
N16   N     N_3   0.455692 0.815208 0.920111 0.000000
C47   C     C_3   0.483774 0.855062 0.943404 0.000000
C48   C     C_R   0.525414 0.851252 0.906081 0.000000
N17   N     N_R   0.568307 0.793797 0.896256 0.000000
C49   C     C_R   0.565314 0.808243 0.834166 0.000000
C50   C     C_R   0.578550 0.768575 0.789371 0.000000
C51   C     C_R   0.569990 0.794017 0.726971 0.000000
C52   C     C_R   0.546229 0.858213 0.710186 0.000000
C53   C     C_R   0.523451 0.898668 0.751994 0.000000
C54   C     C_R   0.530534 0.871977 0.812697 0.000000
N18   N     N_R   0.504282 0.901130 0.857218 0.000000
H51   H     H_    0.391044 0.795891 0.945792 0.000000
H52   H     H_    0.474308 0.755460 0.004612 0.000000
H53   H     H_    0.423209 0.838236 0.000936 0.000000
H54   H     H_    0.414731 0.840561 0.876224 0.000000
H55   H     H_    0.444438 0.904511 0.932036 0.000000
H56   H     H_    0.511751 0.839809 0.997229 0.000000
H57   H     H_    0.589598 0.720383 0.799660 0.000000
H58   H     H_    0.581810 0.763845 0.691093 0.000000
H59   H     H_    0.542938 0.876620 0.662842 0.000000
H60   H     H_    0.500375 0.949132 0.736605 0.000000
C55   C     C_3   0.719480 0.613966 0.103543 0.000000
N19   N     N_3   0.667731 0.598626 0.096735 0.000000
C56   C     C_3   0.605940 0.651333 0.091405 0.000000
C57   C     C_R   0.611870 0.707160 0.100462 0.000000
N20   N     N_R   0.618728 0.727798 0.160438 0.000000
C58   C     C_R   0.624772 0.778113 0.147385 0.000000
C59   C     C_R   0.626856 0.820900 0.187772 0.000000
C60   C     C_R   0.628493 0.872113 0.162021 0.000000
C61   C     C_R   0.627751 0.879356 0.097237 0.000000
C62   C     C_R   0.628030 0.834190 0.058306 0.000000
C63   C     C_R   0.626271 0.783970 0.084731 0.000000
N21   N     N_R   0.621494 0.737371 0.054293 0.000000
H61   H     H_    0.726332 0.643792 0.139886 0.000000
H62   H     H_    0.766991 0.571073 0.125492 0.000000
H63   H     H_    0.713955 0.634352 0.055000 0.000000
H64   H     H_    0.653650 0.589924 0.049069 0.000000
H65   H     H_    0.569250 0.659618 0.041138 0.000000
H66   H     H_    0.589950 0.640290 0.129607 0.000000
H67   H     H_    0.624371 0.816251 0.236694 0.000000
H68   H     H_    0.628322 0.907869 0.191562 0.000000
H69   H     H_    0.628395 0.919880 0.077642 0.000000
H70   H     H_    0.629593 0.838566 0.008932 0.000000
C64   C     C_3   0.268045 0.247820 0.373450 0.000000
N22   N     N_3   0.200480 0.289239 0.329510 0.000000
C65   C     C_3   0.172842 0.253807 0.290079 0.000000
C66   C     C_R   0.101805 0.298178 0.256964 0.000000
N23   N     N_R   0.065071 0.323909 0.296170 0.000000
C67   C     C_R   0.014852 0.375036 0.255497 0.000000
C68   C     C_R   0.959894 0.409576 0.267180 0.000000
C69   C     C_R   0.905442 0.424260 0.213707 0.000000
C70   C     C_R   0.911285 0.418747 0.153752 0.000000
C71   C     C_R   0.963338 0.412607 0.142933 0.000000
C72   C     C_R   0.017434 0.377811 0.194449 0.000000
N24   N     N_R   0.069574 0.328943 0.189951 0.000000
H71   H     H_    0.283150 0.273733 0.411246 0.000000
H72   H     H_    0.273438 0.205581 0.400319 0.000000
H73   H     H_    0.299848 0.234373 0.343857 0.000000
H74   H     H_    0.199474 0.321519 0.296361 0.000000
H75   H     H_    0.195674 0.234627 0.253214 0.000000
H76   H     H_    0.179808 0.214640 0.323682 0.000000
H77   H     H_    0.960878 0.408820 0.317027 0.000000
H78   H     H_    0.862736 0.427417 0.217915 0.000000
H79   H     H_    0.882634 0.404816 0.119879 0.000000
H80   H     H_    0.961840 0.420246 0.093915 0.000000
C73   C     C_3   0.066777 0.322652 0.855247 0.000000
N25   N     N_3   0.120408 0.273999 0.912100 0.000000
C74   C     C_3   0.094792 0.255457 0.955488 0.000000
C75   C     C_R   0.142552 0.234554 0.024929 0.000000
N26   N     N_R   0.207591 0.186678 0.044253 0.000000
C76   C     C_R   0.235766 0.204158 0.099982 0.000000
C77   C     C_R   0.299599 0.175053 0.143209 0.000000
C78   C     C_R   0.317645 0.206534 0.192523 0.000000
C79   C     C_R   0.272072 0.264659 0.199181 0.000000
C80   C     C_R   0.207034 0.290177 0.159539 0.000000
C81   C     C_R   0.190595 0.257717 0.112209 0.000000
N27   N     N_R   0.130580 0.275652 0.069021 0.000000
H81   H     H_    0.084622 0.324448 0.814535 0.000000
H82   H     H_    0.026442 0.311992 0.836151 0.000000
H83   H     H_    0.049138 0.369401 0.869863 0.000000
H84   H     H_    0.148907 0.292571 0.939184 0.000000
H85   H     H_    0.050401 0.297143 0.955917 0.000000
H86   H     H_    0.083235 0.218395 0.938859 0.000000
H87   H     H_    0.334543 0.129709 0.138280 0.000000
H88   H     H_    0.367515 0.186345 0.226803 0.000000
H89   H     H_    0.287199 0.288884 0.237075 0.000000
H90   H     H_    0.170348 0.334148 0.165670 0.000000
C82   C     C_3   0.711806 0.870162 0.945583 0.000000
N28   N     N_3   0.649861 0.900688 0.889088 0.000000
C83   C     C_3   0.621667 0.967693 0.888816 0.000000
C84   C     C_R   0.563746 0.007334 0.826600 0.000000
N29   N     N_R   0.571207 0.049504 0.791609 0.000000
C85   C     C_R   0.521603 0.105801 0.791438 0.000000
C86   C     C_R   0.510092 0.165059 0.770900 0.000000
C87   C     C_R   0.463193 0.216452 0.785754 0.000000
C88   C     C_R   0.429281 0.207734 0.821187 0.000000
C89   C     C_R   0.439615 0.147999 0.838920 0.000000
C90   C     C_R   0.484289 0.097599 0.820572 0.000000
N30   N     N_R   0.504241 0.035429 0.834962 0.000000
H91   H     H_    0.735021 0.818465 0.948518 0.000000
H92   H     H_    0.745389 0.885721 0.939853 0.000000
H93   H     H_    0.702738 0.882699 0.992162 0.000000
H94   H     H_    0.620592 0.886991 0.901854 0.000000
H95   H     H_    0.606404 0.977937 0.932500 0.000000
H96   H     H_    0.658593 0.982184 0.893814 0.000000
H97   H     H_    0.537101 0.171710 0.744466 0.000000
H98   H     H_    0.453869 0.263448 0.770828 0.000000
H99   H     H_    0.393424 0.248024 0.833682 0.000000
H100  H     H_    0.411235 0.142580 0.864461 0.000000
C91   C     C_3   0.293551 0.948268 0.946240 0.000000
N31   N     N_3   0.324715 0.948722 0.899952 0.000000
C92   C     C_3   0.300687 0.013985 0.872964 0.000000
C93   C     C_R   0.340625 0.038277 0.917918 0.000000
N32   N     N_R   0.325693 0.071073 0.969415 0.000000
C94   C     C_R   0.373535 0.086176 0.989349 0.000000
C95   C     C_R   0.377460 0.128794 0.029098 0.000000
C96   C     C_R   0.431320 0.136942 0.044068 0.000000
C97   C     C_R   0.480768 0.101324 0.020645 0.000000
C98   C     C_R   0.473470 0.062259 0.976213 0.000000
C99   C     C_R   0.416773 0.059527 0.957312 0.000000
N33   N     N_R   0.396210 0.031352 0.908733 0.000000
H101  H     H_    0.312957 0.899265 0.970562 0.000000
H102  H     H_    0.302475 0.975240 0.985707 0.000000
H103  H     H_    0.240786 0.968903 0.917635 0.000000
H104  H     H_    0.308562 0.929101 0.859942 0.000000
H105  H     H_    0.305372 0.016300 0.823407 0.000000
H106  H     H_    0.248863 0.042734 0.865137 0.000000
H107  H     H_    0.337266 0.158846 0.043238 0.000000
H108  H     H_    0.435201 0.170910 0.074726 0.000000
H109  H     H_    0.523658 0.106481 0.034532 0.000000
H110  H     H_    0.510546 0.036177 0.956021 0.000000
C100  C     C_3   0.470477 0.925170 0.079946 0.000000
N34   N     N_3   0.409936 0.949885 0.091055 0.000000
C101  C     C_3   0.417190 0.980215 0.148313 0.000000
C102  C     C_R   0.357762 0.003547 0.164024 0.000000
N35   N     N_R   0.296875 0.042442 0.116452 0.000000
C103  C     C_R   0.257480 0.047550 0.149296 0.000000
C104  C     C_R   0.190519 0.082145 0.126102 0.000000
C105  C     C_R   0.159970 0.072521 0.165088 0.000000
C106  C     C_R   0.196377 0.026608 0.222871 0.000000
C107  C     C_R   0.263684 0.996943 0.248232 0.000000
C108  C     C_R   0.293003 0.011769 0.212041 0.000000
N36   N     N_R   0.357395 0.987626 0.225933 0.000000
H111  H     H_    0.459795 0.940671 0.027014 0.000000
H112  H     H_    0.500586 0.944217 0.110347 0.000000
H113  H     H_    0.496610 0.873090 0.093513 0.000000
H114  H     H_    0.405473 0.911538 0.104376 0.000000
H115  H     H_    0.460308 0.946056 0.192326 0.000000
H116  H     H_    0.421579 0.021244 0.134429 0.000000
H117  H     H_    0.162287 0.113207 0.077823 0.000000
H118  H     H_    0.107359 0.096326 0.147573 0.000000
H119  H     H_    0.172035 0.013081 0.247545 0.000000
H120  H     H_    0.291391 0.961168 0.293012 0.000000
C109  C     C_3   0.590450 0.736842 0.449922 0.000000
N37   N     N_3   0.632496 0.744659 0.421074 0.000000
C110  C     C_3   0.596408 0.806381 0.377715 0.000000
C111  C     C_R   0.544707 0.808970 0.318344 0.000000
N38   N     N_R   0.557199 0.767964 0.274106 0.000000
C112  C     C_R   0.496480 0.787958 0.228972 0.000000
C113  C     C_R   0.478815 0.768570 0.169310 0.000000
C114  C     C_R   0.413099 0.791478 0.133370 0.000000
C115  C     C_R   0.366744 0.833219 0.157238 0.000000
C116  C     C_R   0.385397 0.855526 0.214894 0.000000
C117  C     C_R   0.450721 0.834693 0.247857 0.000000
N39   N     N_R   0.479312 0.852315 0.302435 0.000000
H121  H     H_    0.620572 0.696004 0.492238 0.000000
H122  H     H_    0.565169 0.779096 0.470401 0.000000
H123  H     H_    0.554753 0.727578 0.411886 0.000000
H124  H     H_    0.645446 0.710728 0.391465 0.000000
H125  H     H_    0.574031 0.843207 0.404433 0.000000
H126  H     H_    0.629011 0.815714 0.360963 0.000000
H127  H     H_    0.514416 0.733083 0.152776 0.000000
H128  H     H_    0.397957 0.774740 0.087949 0.000000
H129  H     H_    0.315875 0.848338 0.130370 0.000000
H130  H     H_    0.349904 0.885220 0.235190 0.000000
C118  C     C_3   0.328516 0.854722 0.690369 0.000000
N40   N     N_3   0.312543 0.920492 0.682503 0.000000
C119  C     C_3   0.373318 0.921754 0.707188 0.000000
C120  C     C_R   0.361607 0.986934 0.690774 0.000000
N41   N     N_R   0.339382 0.018580 0.625753 0.000000
C121  C     C_R   0.351359 0.066471 0.636613 0.000000
C122  C     C_R   0.345083 0.110353 0.590890 0.000000
C123  C     C_R   0.347830 0.162245 0.613000 0.000000
C124  C     C_R   0.347934 0.172518 0.676522 0.000000
C125  C     C_R   0.355809 0.125898 0.721082 0.000000
C126  C     C_R   0.368655 0.069446 0.702331 0.000000
N42   N     N_R   0.381111 0.017684 0.739569 0.000000
H131  H     H_    0.282688 0.852588 0.672624 0.000000
H132  H     H_    0.357822 0.829162 0.660035 0.000000
H133  H     H_    0.356548 0.831576 0.744011 0.000000
H134  H     H_    0.287398 0.941450 0.714122 0.000000
H135  H     H_    0.395734 0.905917 0.762430 0.000000
H136  H     H_    0.407222 0.889671 0.684016 0.000000
H137  H     H_    0.336577 0.106117 0.539543 0.000000
H138  H     H_    0.339576 0.199134 0.577469 0.000000
H139  H     H_    0.339831 0.217516 0.690226 0.000000
H140  H     H_    0.347771 0.134180 0.767305 0.000000
C127  C     C_3   0.316152 0.105102 0.302912 0.000000
N43   N     N_3   0.278681 0.102646 0.341137 0.000000
C128  C     C_3   0.324005 0.068693 0.408114 0.000000
C129  C     C_R   0.340002 0.001268 0.419992 0.000000
N44   N     N_R   0.325337 0.980921 0.469851 0.000000
C130  C     C_R   0.359453 0.917833 0.476435 0.000000
C131  C     C_R   0.369837 0.873744 0.525391 0.000000
C132  C     C_R   0.408382 0.810589 0.524867 0.000000
C133  C     C_R   0.435622 0.793192 0.476009 0.000000
C134  C     C_R   0.427019 0.838654 0.428870 0.000000
C135  C     C_R   0.390043 0.901034 0.431135 0.000000
N45   N     N_R   0.380310 0.952352 0.394239 0.000000
H141  H     H_    0.284382 0.122302 0.249139 0.000000
H142  H     H_    0.334856 0.137572 0.319873 0.000000
H143  H     H_    0.358574 0.057739 0.311321 0.000000
H144  H     H_    0.253705 0.079195 0.320290 0.000000
H145  H     H_    0.368178 0.072838 0.419846 0.000000
H146  H     H_    0.299530 0.092254 0.442100 0.000000
H147  H     H_    0.348655 0.888139 0.563172 0.000000
H148  H     H_    0.416871 0.774571 0.562342 0.000000
H149  H     H_    0.464955 0.743660 0.475630 0.000000
H150  H     H_    0.449020 0.824954 0.391973 0.000000
C136  C     C_3   0.246390 0.826400 0.488848 0.000000
N46   N     N_3   0.237187 0.888853 0.497700 0.000000
C137  C     C_3   0.171675 0.927514 0.497155 0.000000
C138  C     C_R   0.169076 0.974349 0.542011 0.000000
N47   N     N_R   0.129694 0.990202 0.580326 0.000000
C139  C     C_R   0.147674 0.028438 0.616417 0.000000
C140  C     C_R   0.141856 0.046076 0.675531 0.000000
C141  C     C_R   0.167330 0.082270 0.706232 0.000000
C142  C     C_R   0.195507 0.104676 0.676221 0.000000
C143  C     C_R   0.205701 0.082962 0.620239 0.000000
C144  C     C_R   0.187207 0.040256 0.595326 0.000000
N48   N     N_R   0.205903 0.004832 0.550753 0.000000
H151  H     H_    0.290660 0.799440 0.476510 0.000000
H152  H     H_    0.253024 0.800512 0.535968 0.000000
H153  H     H_    0.203548 0.830734 0.446885 0.000000
H154  H     H_    0.238409 0.908173 0.454940 0.000000
H155  H     H_    0.137821 0.951933 0.444920 0.000000
H156  H     H_    0.157613 0.896612 0.517246 0.000000
H157  H     H_    0.123093 0.029889 0.702916 0.000000
H158  H     H_    0.165481 0.092191 0.754326 0.000000
H159  H     H_    0.213440 0.135276 0.698715 0.000000
H160  H     H_    0.229870 0.098338 0.599020 0.000000
C145  C     C_3   0.209889 0.299807 0.571644 0.000000
N49   N     N_3   0.189848 0.271839 0.514983 0.000000
C146  C     C_3   0.186244 0.217689 0.538029 0.000000
C147  C     C_R   0.173710 0.185615 0.480878 0.000000
N50   N     N_R   0.120876 0.220209 0.422643 0.000000
C148  C     C_R   0.119876 0.174810 0.387438 0.000000
C149  C     C_R   0.080068 0.181146 0.323176 0.000000
C150  C     C_R   0.085615 0.126576 0.299689 0.000000
C151  C     C_R   0.127537 0.068135 0.341244 0.000000
C152  C     C_R   0.171468 0.062532 0.402627 0.000000
C153  C     C_R   0.167695 0.116813 0.423435 0.000000
N51   N     N_R   0.204950 0.120534 0.482323 0.000000
H161  H     H_    0.258683 0.293393 0.579423 0.000000
H162  H     H_    0.176040 0.351442 0.560220 0.000000
H163  H     H_    0.210037 0.279056 0.617930 0.000000
H164  H     H_    0.225683 0.255477 0.493903 0.000000
H165  H     H_    0.229898 0.186052 0.581044 0.000000
H166  H     H_    0.144914 0.232972 0.554890 0.000000
H167  H     H_    0.047138 0.226572 0.291513 0.000000
H168  H     H_    0.057403 0.128270 0.248989 0.000000
H169  H     H_    0.127719 0.026363 0.324702 0.000000
H170  H     H_    0.206139 0.016504 0.433018 0.000000
C154  C     C_3   0.816282 0.107095 0.674248 0.000000
N52   N     N_3   0.865964 0.056366 0.729361 0.000000
C155  C     C_3   0.861706 0.076214 0.791681 0.000000
C156  C     C_R   0.875354 0.128281 0.800354 0.000000
N53   N     N_R   0.936416 0.119108 0.836501 0.000000
C157  C     C_R   0.924129 0.179095 0.838310 0.000000
C158  C     C_R   0.963077 0.200843 0.876817 0.000000
C159  C     C_R   0.940826 0.265003 0.863582 0.000000
C160  C     C_R   0.881181 0.305534 0.813875 0.000000
C161  C     C_R   0.839589 0.283738 0.782680 0.000000
C162  C     C_R   0.861404 0.220633 0.798885 0.000000
N54   N     N_R   0.827722 0.190539 0.777117 0.000000
H171  H     H_    0.838989 0.132660 0.663592 0.000000
H172  H     H_    0.801291 0.087834 0.629649 0.000000
H173  H     H_    0.773006 0.137876 0.686516 0.000000
H174  H     H_    0.910052 0.049106 0.728693 0.000000
H175  H     H_    0.812874 0.090942 0.793089 0.000000
H176  H     H_    0.899835 0.036522 0.833067 0.000000
H177  H     H_    0.008600 0.169801 0.917098 0.000000
H178  H     H_    0.969487 0.284318 0.891941 0.000000
H179  H     H_    0.866092 0.354677 0.801252 0.000000
H180  H     H_    0.792680 0.315150 0.744732 0.000000
C163  C     C_3   0.177914 0.927000 0.103966 0.000000
N55   N     N_3   0.141540 0.980255 0.048038 0.000000
C164  C     C_3   0.186911 0.981865 0.020772 0.000000
C165  C     C_R   0.154828 0.041058 0.969984 0.000000
N56   N     N_R   0.185894 0.075433 0.969278 0.000000
C166  C     C_R   0.152997 0.110760 0.908145 0.000000
C167  C     C_R   0.167440 0.150418 0.880234 0.000000
C168  C     C_R   0.125350 0.186113 0.817347 0.000000
C169  C     C_R   0.069320 0.183048 0.786087 0.000000
C170  C     C_R   0.059348 0.138672 0.813577 0.000000
C171  C     C_R   0.102576 0.101981 0.874887 0.000000
N57   N     N_R   0.100301 0.058570 0.912228 0.000000
H181  H     H_    0.145210 0.927496 0.128968 0.000000
H182  H     H_    0.197481 0.882106 0.085180 0.000000
H183  H     H_    0.218442 0.930192 0.141613 0.000000
H184  H     H_    0.121010 0.021784 0.065949 0.000000
H185  H     H_    0.229684 0.978737 0.061075 0.000000
H186  H     H_    0.205586 0.939815 0.997789 0.000000
H187  H     H_    0.208907 0.155715 0.907133 0.000000
H188  H     H_    0.134774 0.218140 0.793721 0.000000
H189  H     H_    0.034392 0.214631 0.739124 0.000000
H190  H     H_    0.016775 0.135600 0.789415 0.000000
C172  C     C_3   0.915355 0.906844 0.787181 0.000000
N58   N     N_3   0.984698 0.871748 0.797761 0.000000
C173  C     C_3   0.011780 0.910911 0.819968 0.000000
C174  C     C_R   0.011822 0.918920 0.887083 0.000000
N59   N     N_R   0.021655 0.965679 0.914706 0.000000
C175  C     C_R   0.018439 0.957063 0.975242 0.000000
C176  C     C_R   0.013312 0.997162 0.020345 0.000000
C177  C     C_R   0.010707 0.978932 0.080138 0.000000
C178  C     C_R   0.014601 0.921138 0.093819 0.000000
C179  C     C_R   0.014697 0.883717 0.045429 0.000000
C180  C     C_R   0.011127 0.905321 0.984128 0.000000
N60   N     N_R   0.000089 0.882831 0.926219 0.000000
H191  H     H_    0.891596 0.949561 0.750981 0.000000
H192  H     H_    0.891781 0.878807 0.768616 0.000000
H193  H     H_    0.904914 0.924698 0.830467 0.000000
H194  H     H_    0.011286 0.835083 0.837894 0.000000
H195  H     H_    0.062919 0.886355 0.823522 0.000000
H196  H     H_    0.983194 0.956271 0.785501 0.000000
H197  H     H_    0.011044 0.041658 0.009427 0.000000
H198  H     H_    0.008080 0.008777 0.117429 0.000000
H199  H     H_    0.015939 0.905963 0.142085 0.000000
H200  H     H_    0.018923 0.838441 0.056422 0.000000
C181  C     C_3   0.156127 0.781932 0.783747 0.000000
N61   N     N_3   0.131543 0.802312 0.711427 0.000000
C182  C     C_3   0.060969 0.843256 0.687475 0.000000
C183  C     C_R   0.034343 0.857368 0.613470 0.000000
N62   N     N_R   0.047171 0.893675 0.576116 0.000000
C184  C     C_R   0.039977 0.870993 0.518753 0.000000
C185  C     C_R   0.047568 0.888608 0.462776 0.000000
C186  C     C_R   0.049290 0.851642 0.414136 0.000000
C187  C     C_R   0.045516 0.797556 0.424015 0.000000
C188  C     C_R   0.032557 0.783992 0.478575 0.000000
C189  C     C_R   0.022882 0.825520 0.521775 0.000000
N63   N     N_R   0.011121 0.820562 0.578420 0.000000
H201  H     H_    0.162827 0.817435 0.810055 0.000000
H202  H     H_    0.120001 0.778037 0.799155 0.000000
H203  H     H_    0.203542 0.737094 0.800139 0.000000
H204  H     H_    0.141115 0.762284 0.689563 0.000000
H205  H     H_    0.038426 0.818945 0.702369 0.000000
H206  H     H_    0.047789 0.886575 0.708004 0.000000
H207  H     H_    0.052948 0.929240 0.457145 0.000000
H208  H     H_    0.057225 0.862919 0.370208 0.000000
H209  H     H_    0.051863 0.766297 0.388342 0.000000
H210  H     H_    0.035557 0.739597 0.489656 0.000000
C190  C     C_3   0.960505 0.189111 0.631933 0.000000
N64   N     N_3   0.001223 0.121727 0.654988 0.000000
C191  C     C_3   0.968590 0.095598 0.679639 0.000000
C192  C     C_R   0.017357 0.028762 0.713290 0.000000
N65   N     N_R   0.053523 0.987307 0.680681 0.000000
C193  C     C_R   0.108597 0.945403 0.731426 0.000000
C194  C     C_R   0.167382 0.903148 0.726844 0.000000
C195  C     C_R   0.221651 0.873255 0.785973 0.000000
C196  C     C_R   0.215296 0.883823 0.847580 0.000000
C197  C     C_R   0.155430 0.926938 0.850498 0.000000
C198  C     C_R   0.103743 0.959058 0.791180 0.000000
N66   N     N_R   0.045377 0.009885 0.782114 0.000000
H211  H     H_    0.990285 0.208654 0.623508 0.000000
H212  H     H_    0.922212 0.197693 0.584073 0.000000
H213  H     H_    0.939724 0.212032 0.669396 0.000000
H214  H     H_    0.039626 0.116818 0.696226 0.000000
H215  H     H_    0.946983 0.123111 0.714136 0.000000
H216  H     H_    0.928788 0.097789 0.637829 0.000000
H217  H     H_    0.171539 0.894608 0.678787 0.000000
H218  H     H_    0.268556 0.839307 0.784597 0.000000
H219  H     H_    0.257025 0.857034 0.893374 0.000000
H220  H     H_    0.149368 0.935536 0.897498 0.000000
C199  C     C_3   0.873455 0.003676 0.435228 0.000000
N67   N     N_3   0.891067 0.995377 0.507713 0.000000
C200  C     C_3   0.868194 0.053142 0.535342 0.000000
C201  C     C_R   0.893456 0.089936 0.517545 0.000000
N68   N     N_R   0.957102 0.059733 0.518855 0.000000
C202  C     C_R   0.947048 0.083639 0.456708 0.000000
C203  C     C_R   0.990628 0.062192 0.424799 0.000000
C204  C     C_R   0.966627 0.081364 0.356002 0.000000
C205  C     C_R   0.900003 0.120218 0.320907 0.000000
C206  C     C_R   0.856915 0.143683 0.354230 0.000000
C207  C     C_R   0.882001 0.127162 0.423066 0.000000
N69   N     N_R   0.848250 0.137212 0.464271 0.000000
H221  H     H_    0.917432 0.989866 0.422988 0.000000
H222  H     H_    0.853710 0.972857 0.414578 0.000000
H223  H     H_    0.836937 0.052004 0.410939 0.000000
H224  H     H_    0.940922 0.972383 0.526914 0.000000
H225  H     H_    0.814781 0.080102 0.515873 0.000000
H226  H     H_    0.884582 0.045572 0.589682 0.000000
H227  H     H_    0.041373 0.029288 0.451912 0.000000
H228  H     H_    0.999529 0.063812 0.329038 0.000000
H229  H     H_    0.881514 0.132043 0.266922 0.000000
H230  H     H_    0.805451 0.174120 0.326471 0.000000
C208  C     C_3   0.815438 0.806151 0.694633 0.000000
N70   N     N_3   0.853516 0.742167 0.731186 0.000000
C209  C     C_3   0.921460 0.716977 0.740861 0.000000
C210  C     C_R   0.944832 0.764025 0.746863 0.000000
N71   N     N_R   0.976638 0.764596 0.814217 0.000000
C211  C     C_R   0.039710 0.729342 0.819282 0.000000
C212  C     C_R   0.095088 0.706391 0.876218 0.000000
C213  C     C_R   0.154580 0.665732 0.871108 0.000000
C214  C     C_R   0.158282 0.654300 0.808690 0.000000
C215  C     C_R   0.103140 0.686240 0.750529 0.000000
C216  C     C_R   0.043682 0.722006 0.757074 0.000000
N72   N     N_R   0.983440 0.751891 0.708013 0.000000
H231  H     H_    0.821255 0.837933 0.728704 0.000000
H232  H     H_    0.832592 0.811869 0.655893 0.000000
H233  H     H_    0.763514 0.818387 0.672169 0.000000
H234  H     H_    0.837114 0.714933 0.702277 0.000000
H235  H     H_    0.951288 0.680326 0.787372 0.000000
H236  H     H_    0.931127 0.692903 0.698900 0.000000
H237  H     H_    0.092377 0.718769 0.923548 0.000000
H238  H     H_    0.198715 0.644401 0.915647 0.000000
H239  H     H_    0.205321 0.624126 0.805163 0.000000
H240  H     H_    0.107079 0.682030 0.701858 0.000000
C217  C     C_3   0.841969 0.053937 0.944997 0.000000
N73   N     N_3   0.843741 0.012271 0.896643 0.000000
C218  C     C_3   0.796235 0.993635 0.893480 0.000000
C219  C     C_R   0.794121 0.948795 0.847293 0.000000
N74   N     N_R   0.732307 0.959206 0.811104 0.000000
C220  C     C_R   0.741832 0.900558 0.811091 0.000000
C221  C     C_R   0.695700 0.884103 0.779440 0.000000
C222  C     C_R   0.716405 0.820578 0.783953 0.000000
C223  C     C_R   0.781454 0.776335 0.818893 0.000000
C224  C     C_R   0.827875 0.793838 0.848272 0.000000
C225  C     C_R   0.806722 0.857099 0.841497 0.000000
N75   N     N_R   0.843160 0.885374 0.860541 0.000000
H241  H     H_    0.875185 0.071912 0.944648 0.000000
H242  H     H_    0.791812 0.094567 0.931358 0.000000
H243  H     H_    0.858714 0.027522 0.996074 0.000000
H244  H     H_    0.889077 0.972182 0.916420 0.000000
H245  H     H_    0.801754 0.975876 0.943810 0.000000
H246  H     H_    0.748026 0.034902 0.874027 0.000000
H247  H     H_    0.645268 0.919461 0.751814 0.000000
H248  H     H_    0.682580 0.804911 0.758729 0.000000
H249  H     H_    0.796976 0.727858 0.816692 0.000000
H250  H     H_    0.879050 0.758813 0.871224 0.000000
C226  C     C_3   0.885247 0.562182 0.114271 0.000000
N76   N     N_3   0.913374 0.535185 0.184179 0.000000
C227  C     C_3   0.896368 0.585444 0.221520 0.000000
C228  C     C_R   0.940173 0.612622 0.235444 0.000000
N77   N     N_R   0.966420 0.617564 0.301009 0.000000
C229  C     C_R   0.010045 0.634228 0.298551 0.000000
C230  C     C_R   0.054978 0.639726 0.351660 0.000000
C231  C     C_R   0.098618 0.653350 0.338365 0.000000
C232  C     C_R   0.096015 0.661874 0.273091 0.000000
C233  C     C_R   0.050834 0.655336 0.220441 0.000000
C234  C     C_R   0.008579 0.640711 0.234297 0.000000
N78   N     N_R   0.963766 0.628490 0.191183 0.000000
H251  H     H_    0.832366 0.592189 0.097885 0.000000
H252  H     H_    0.906998 0.588760 0.108555 0.000000
H253  H     H_    0.898968 0.526712 0.082882 0.000000
H254  H     H_    0.963550 0.512019 0.197993 0.000000
H255  H     H_    0.843789 0.620705 0.200722 0.000000
H256  H     H_    0.908259 0.562500 0.271573 0.000000
H257  H     H_    0.057692 0.632051 0.402454 0.000000
H258  H     H_    0.135086 0.657326 0.379113 0.000000
H259  H     H_    0.130241 0.672786 0.263424 0.000000
H260  H     H_    0.049644 0.660931 0.170439 0.000000
C235  C     C_3   0.782654 0.797478 0.168349 0.000000
N79   N     N_3   0.764264 0.788559 0.099126 0.000000
C236  C     C_3   0.786684 0.722004 0.100857 0.000000
C237  C     C_R   0.787055 0.705173 0.034734 0.000000
N80   N     N_R   0.733838 0.708491 0.982867 0.000000
C238  C     C_R   0.759721 0.687501 0.935659 0.000000
C239  C     C_R   0.732788 0.670036 0.878440 0.000000
C240  C     C_R   0.771591 0.634748 0.843962 0.000000
C241  C     C_R   0.837346 0.616260 0.868317 0.000000
C242  C     C_R   0.863300 0.633721 0.926640 0.000000
C243  C     C_R   0.824597 0.667916 0.959896 0.000000
N81   N     N_R   0.845047 0.676510 0.023301 0.000000
H261  H     H_    0.761767 0.848673 0.169485 0.000000
H262  H     H_    0.763484 0.776881 0.195490 0.000000
H263  H     H_    0.836435 0.773753 0.193878 0.000000
H264  H     H_    0.788822 0.800622 0.075930 0.000000
H265  H     H_    0.837519 0.696424 0.135623 0.000000
H266  H     H_    0.756468 0.708873 0.117621 0.000000
H267  H     H_    0.685813 0.675268 0.866685 0.000000
H268  H     H_    0.751175 0.619500 0.799669 0.000000
H269  H     H_    0.868086 0.588973 0.841586 0.000000
H270  H     H_    0.912340 0.621538 0.946952 0.000000
C244  C     C_3   0.158665 0.567894 0.057101 0.000000
N82   N     N_3   0.095314 0.609683 0.061190 0.000000
C245  C     C_3   0.060806 0.664510 0.007497 0.000000
C246  C     C_R   0.992168 0.707574 0.003052 0.000000
N83   N     N_R   0.969300 0.698318 0.050919 0.000000
C247  C     C_R   0.932983 0.757468 0.058452 0.000000
C248  C     C_R   0.907053 0.776139 0.107067 0.000000
C249  C     C_R   0.877299 0.839702 0.110314 0.000000
C250  C     C_R   0.872178 0.883031 0.063724 0.000000
C251  C     C_R   0.897784 0.862621 0.014575 0.000000
C252  C     C_R   0.928932 0.799611 0.013925 0.000000
N84   N     N_R   0.963653 0.770456 0.975911 0.000000
H271  H     H_    0.187009 0.526749 0.099144 0.000000
H272  H     H_    0.152432 0.550646 0.008972 0.000000
H273  H     H_    0.186162 0.593434 0.061079 0.000000
H274  H     H_    0.105715 0.625576 0.106146 0.000000
H275  H     H_    0.086598 0.691916 0.019510 0.000000
H276  H     H_    0.061172 0.649994 0.958774 0.000000
H277  H     H_    0.910967 0.742634 0.143008 0.000000
H278  H     H_    0.858195 0.855678 0.149408 0.000000
H279  H     H_    0.849905 0.932523 0.067072 0.000000
H280  H     H_    0.899671 0.894078 0.981821 0.000000
C253  C     C_3   0.173351 0.473204 0.238937 0.000000
N85   N     N_3   0.130976 0.477121 0.171931 0.000000
C254  C     C_3   0.073875 0.476608 0.175738 0.000000
C255  C     C_R   0.028671 0.485524 0.105777 0.000000
N86   N     N_R   0.004630 0.542243 0.064699 0.000000
C256  C     C_R   0.025942 0.521435 0.013533 0.000000
C257  C     C_R   0.026527 0.554046 0.961111 0.000000
C258  C     C_R   0.058005 0.520797 0.919823 0.000000
C259  C     C_R   0.090909 0.455437 0.932359 0.000000
C260  C     C_R   0.089311 0.423156 0.984146 0.000000
C261  C     C_R   0.053624 0.457414 0.021144 0.000000
N87   N     N_R   0.048703 0.434062 0.074328 0.000000
H281  H     H_    0.220269 0.465821 0.237289 0.000000
H282  H     H_    0.149986 0.517932 0.256735 0.000000
H283  H     H_    0.183462 0.432876 0.273818 0.000000
H284  H     H_    0.157178 0.436792 0.154679 0.000000
H285  H     H_    0.089741 0.431063 0.205675 0.000000
H286  H     H_    0.050136 0.515561 0.200245 0.000000
H287  H     H_    0.002970 0.604367 0.950784 0.000000
H288  H     H_    0.058714 0.546111 0.878779 0.000000
H289  H     H_    0.117589 0.429754 0.901509 0.000000
H290  H     H_    0.115523 0.372397 0.995532 0.000000
C262  C     C_3   0.774800 0.351171 0.609498 0.000000
N88   N     N_3   0.792854 0.300061 0.572434 0.000000
C263  C     C_3   0.807391 0.241980 0.610930 0.000000
C264  C     C_R   0.747907 0.237091 0.592001 0.000000
N89   N     N_R   0.717855 0.238374 0.525071 0.000000
C265  C     C_R   0.654493 0.275817 0.516215 0.000000
C266  C     C_R   0.602469 0.304146 0.456154 0.000000
C267  C     C_R   0.541259 0.344017 0.457775 0.000000
C268  C     C_R   0.533384 0.354781 0.518654 0.000000
C269  C     C_R   0.586635 0.326577 0.578773 0.000000
C270  C     C_R   0.647333 0.287851 0.576412 0.000000
N90   N     N_R   0.706354 0.260569 0.627445 0.000000
H291  H     H_    0.755380 0.396346 0.575964 0.000000
H292  H     H_    0.736451 0.354522 0.626804 0.000000
H293  H     H_    0.818599 0.343266 0.652547 0.000000
H294  H     H_    0.835610 0.293234 0.567395 0.000000
H295  H     H_    0.840829 0.201338 0.595247 0.000000
H296  H     H_    0.828119 0.240086 0.665106 0.000000
H297  H     H_    0.608981 0.296278 0.409046 0.000000
H298  H     H_    0.499272 0.366988 0.411311 0.000000
H299  H     H_    0.485273 0.386232 0.519062 0.000000
H300  H     H_    0.580338 0.336855 0.625663 0.000000
C271  C     C_3   0.917819 0.234836 0.463624 0.000000
N91   N     N_3   0.856231 0.268062 0.406589 0.000000
C272  C     C_3   0.800602 0.284364 0.425872 0.000000
C273  C     C_R   0.743469 0.295031 0.366734 0.000000
N92   N     N_R   0.717726 0.334723 0.305482 0.000000
C274  C     C_R   0.670300 0.321983 0.269232 0.000000
C275  C     C_R   0.633069 0.340853 0.201562 0.000000
C276  C     C_R   0.588604 0.320465 0.174885 0.000000
C277  C     C_R   0.582904 0.280435 0.215243 0.000000
C278  C     C_R   0.623015 0.259001 0.282315 0.000000
C279  C     C_R   0.666999 0.279602 0.307572 0.000000
N93   N     N_R   0.713586 0.260762 0.369127 0.000000
H301  H     H_    0.958944 0.224781 0.447357 0.000000
H302  H     H_    0.916742 0.263349 0.503120 0.000000
H303  H     H_    0.926364 0.190182 0.486058 0.000000
H304  H     H_    0.856076 0.244108 0.366860 0.000000
H305  H     H_    0.812375 0.246567 0.464509 0.000000
H306  H     H_    0.787224 0.326296 0.449084 0.000000
H307  H     H_    0.637891 0.370685 0.169432 0.000000
H308  H     H_    0.558278 0.335653 0.122037 0.000000
H309  H     H_    0.548080 0.264725 0.193803 0.000000
H310  H     H_    0.620234 0.226365 0.313287 0.000000
C280  C     C_3   0.562178 0.196662 0.421392 0.000000
N94   N     N_3   0.598332 0.188697 0.492607 0.000000
C281  C     C_3   0.663854 0.133069 0.518412 0.000000
C282  C     C_R   0.687235 0.104962 0.465221 0.000000
N95   N     N_R   0.686794 0.051009 0.446837 0.000000
C283  C     C_R   0.706251 0.045818 0.394188 0.000000
C284  C     C_R   0.710226 0.002488 0.353198 0.000000
C285  C     C_R   0.720754 0.011196 0.295148 0.000000
C286  C     C_R   0.728265 0.061992 0.280195 0.000000
C287  C     C_R   0.725263 0.104666 0.323013 0.000000
C288  C     C_R   0.714772 0.095137 0.380350 0.000000
N96   N     N_R   0.708155 0.131379 0.427605 0.000000
H311  H     H_    0.510788 0.234539 0.409037 0.000000
H312  H     H_    0.582072 0.211803 0.390127 0.000000
H313  H     H_    0.561292 0.153454 0.409311 0.000000
H314  H     H_    0.572196 0.181755 0.517952 0.000000
H315  H     H_    0.698726 0.145604 0.551774 0.000000
H316  H     H_    0.662806 0.097119 0.548115 0.000000
H317  H     H_    0.701732 0.965045 0.364771 0.000000
H318  H     H_    0.722592 0.978647 0.260839 0.000000
H319  H     H_    0.736385 0.068330 0.234723 0.000000
H320  H     H_    0.731137 0.143885 0.311446 0.000000
C289  C     C_3   0.874740 0.186007 0.989002 0.000000
N97   N     N_3   0.834161 0.252098 0.954962 0.000000
C290  C     C_3   0.778090 0.256051 0.902508 0.000000
C291  C     C_R   0.735482 0.318315 0.854548 0.000000
N98   N     N_R   0.715256 0.378652 0.870689 0.000000
C292  C     C_R   0.677199 0.415800 0.807946 0.000000
C293  C     C_R   0.649744 0.480131 0.787709 0.000000
C294  C     C_R   0.616843 0.507083 0.720223 0.000000
C295  C     C_R   0.614202 0.469912 0.672415 0.000000
C296  C     C_R   0.644865 0.405461 0.692290 0.000000
C297  C     C_R   0.674311 0.379957 0.759510 0.000000
N99   N     N_R   0.710265 0.318384 0.786575 0.000000
H321  H     H_    0.906044 0.181469 0.041026 0.000000
H322  H     H_    0.843907 0.166039 0.992662 0.000000
H323  H     H_    0.905979 0.158173 0.961287 0.000000
H324  H     H_    0.860071 0.262617 0.932041 0.000000
H325  H     H_    0.794688 0.217946 0.874344 0.000000
H326  H     H_    0.750173 0.244945 0.925040 0.000000
H327  H     H_    0.656594 0.510060 0.820852 0.000000
H328  H     H_    0.595744 0.557365 0.704625 0.000000
H329  H     H_    0.590898 0.490951 0.619601 0.000000
H330  H     H_    0.648460 0.375863 0.655743 0.000000
C298  C     C_3   0.530077 0.522636 0.045294 0.000000
N100  N     N_3   0.593580 0.466430 0.078347 0.000000
C299  C     C_3   0.643967 0.482521 0.084018 0.000000
C300  C     C_R   0.708127 0.423218 0.101764 0.000000
N101  N     N_R   0.732918 0.384117 0.163267 0.000000
C301  C     C_R   0.753847 0.326925 0.145108 0.000000
C302  C     C_R   0.769309 0.271328 0.181281 0.000000
C303  C     C_R   0.771127 0.222799 0.147168 0.000000
C304  C     C_R   0.756627 0.231177 0.078418 0.000000
C305  C     C_R   0.743961 0.286729 0.044217 0.000000
C306  C     C_R   0.747440 0.331862 0.078970 0.000000
N102  N     N_R   0.724649 0.391492 0.050593 0.000000
H331  H     H_    0.492051 0.515748 0.054196 0.000000
H332  H     H_    0.529990 0.564471 0.065339 0.000000
H333  H     H_    0.518588 0.530303 0.990603 0.000000
H334  H     H_    0.597512 0.433317 0.046927 0.000000
H335  H     H_    0.630693 0.509718 0.035127 0.000000
H336  H     H_    0.647046 0.510289 0.124181 0.000000
H337  H     H_    0.777790 0.265838 0.234022 0.000000
H338  H     H_    0.780128 0.179571 0.173359 0.000000
H339  H     H_    0.752553 0.195312 0.051152 0.000000
H340  H     H_    0.721241 0.300257 0.990976 0.000000
C307  C     C_3   0.773862 0.481053 0.063247 0.000000
N103  N     N_3   0.804793 0.509911 0.039584 0.000000
C308  C     C_3   0.766716 0.553849 0.976964 0.000000
C309  C     C_R   0.699175 0.567505 0.948036 0.000000
N104  N     N_R   0.683182 0.520346 0.933919 0.000000
C310  C     C_R   0.617139 0.554583 0.912222 0.000000
C311  C     C_R   0.573801 0.532676 0.891099 0.000000
C312  C     C_R   0.507605 0.576702 0.867952 0.000000
C313  C     C_R   0.486279 0.640564 0.868370 0.000000
C314  C     C_R   0.530788 0.661448 0.891993 0.000000
C315  C     C_R   0.595969 0.617642 0.913750 0.000000
N105  N     N_R   0.646876 0.627853 0.939379 0.000000
H341  H     H_    0.787065 0.476830 0.117696 0.000000
H342  H     H_    0.722683 0.505614 0.047573 0.000000
H343  H     H_    0.790658 0.434148 0.052025 0.000000
H344  H     H_    0.845161 0.475512 0.031530 0.000000
H345  H     H_    0.766121 0.596565 0.988910 0.000000
H346  H     H_    0.791447 0.538088 0.941042 0.000000
H347  H     H_    0.590660 0.482960 0.891290 0.000000
H348  H     H_    0.472157 0.561199 0.849863 0.000000
H349  H     H_    0.434442 0.674225 0.850212 0.000000
H350  H     H_    0.514939 0.710658 0.891620 0.000000
C316  C     C_3   0.007398 0.209814 0.048762 0.000000
N106  N     N_3   0.995312 0.243807 0.102588 0.000000
C317  C     C_3   0.926727 0.293041 0.081138 0.000000
C318  C     C_R   0.909561 0.346157 0.029586 0.000000
N107  N     N_R   0.846296 0.383193 0.980865 0.000000
C319  C     C_R   0.859090 0.409450 0.936163 0.000000
C320  C     C_R   0.815708 0.447553 0.875031 0.000000
C321  C     C_R   0.837869 0.471127 0.836397 0.000000
C322  C     C_R   0.902754 0.456145 0.859754 0.000000
C323  C     C_R   0.945331 0.418468 0.922151 0.000000
C324  C     C_R   0.923006 0.394908 0.959363 0.000000
N108  N     N_R   0.957292 0.356481 0.020264 0.000000
H351  H     H_    0.054001 0.202017 0.046319 0.000000
H352  H     H_    0.011026 0.163416 0.058802 0.000000
H353  H     H_    0.967759 0.236622 0.000073 0.000000
H354  H     H_    0.025218 0.263836 0.115952 0.000000
H355  H     H_    0.894888 0.273226 0.060562 0.000000
H356  H     H_    0.916836 0.309289 0.125607 0.000000
H357  H     H_    0.765776 0.459377 0.858145 0.000000
H358  H     H_    0.804650 0.500904 0.787715 0.000000
H359  H     H_    0.920262 0.473754 0.828983 0.000000
H360  H     H_    0.995467 0.404939 0.939650 0.000000
C325  C     C_3   0.502828 0.264206 0.611111 0.000000
N109  N     N_3   0.566189 0.246472 0.661874 0.000000
C326  C     C_3   0.616861 0.184381 0.659199 0.000000
C327  C     C_R   0.666532 0.155614 0.727896 0.000000
N110  N     N_R   0.686091 0.195084 0.760407 0.000000
C328  C     C_R   0.673630 0.192914 0.817044 0.000000
C329  C     C_R   0.652865 0.241163 0.851507 0.000000
C330  C     C_R   0.635213 0.232305 0.904110 0.000000
C331  C     C_R   0.634147 0.177489 0.918500 0.000000
C332  C     C_R   0.644684 0.134203 0.876314 0.000000
C333  C     C_R   0.660666 0.145379 0.823615 0.000000
N111  N     N_R   0.658423 0.118395 0.768874 0.000000
H361  H     H_    0.470901 0.316192 0.602375 0.000000
H362  H     H_    0.507494 0.250817 0.563255 0.000000
H363  H     H_    0.479732 0.242122 0.629829 0.000000
H364  H     H_    0.560498 0.244875 0.707808 0.000000
H365  H     H_    0.595858 0.154312 0.641676 0.000000
H366  H     H_    0.640278 0.190081 0.625988 0.000000
H367  H     H_    0.646301 0.286486 0.836049 0.000000
H368  H     H_    0.620739 0.269015 0.933190 0.000000
H369  H     H_    0.620134 0.170992 0.959536 0.000000
H370  H     H_    0.638127 0.094283 0.883367 0.000000
C334  C     C_3   0.870001 0.853600 0.371598 0.000000
N112  N     N_3   0.888666 0.809001 0.430274 0.000000
C335  C     C_3   0.922026 0.746305 0.416505 0.000000
C336  C     C_R   0.955827 0.694896 0.476929 0.000000
N113  N     N_R   0.979323 0.699188 0.544452 0.000000
C337  C     C_R   0.023815 0.638274 0.573298 0.000000
C338  C     C_R   0.055953 0.611744 0.640101 0.000000
C339  C     C_R   0.104450 0.548823 0.658174 0.000000
C340  C     C_R   0.119401 0.514156 0.609135 0.000000
C341  C     C_R   0.081278 0.540263 0.542004 0.000000
C342  C     C_R   0.029818 0.601201 0.526197 0.000000
N114  N     N_R   0.982947 0.634351 0.465825 0.000000
H371  H     H_    0.826955 0.898312 0.369420 0.000000
H372  H     H_    0.910229 0.862727 0.375128 0.000000
H373  H     H_    0.856908 0.835537 0.324950 0.000000
H374  H     H_    0.845049 0.814963 0.431493 0.000000
H375  H     H_    0.887977 0.736989 0.376964 0.000000
H376  H     H_    0.958150 0.742973 0.395229 0.000000
H377  H     H_    0.040899 0.637677 0.677019 0.000000
H378  H     H_    0.131349 0.526869 0.710667 0.000000
H379  H     H_    0.159119 0.465766 0.623466 0.000000
H380  H     H_    0.092552 0.513523 0.503747 0.000000
C343  C     C_3   0.715210 0.853964 0.332506 0.000000
N115  N     N_3   0.745348 0.792122 0.315431 0.000000
C344  C     C_3   0.769921 0.743267 0.372545 0.000000
C345  C     C_R   0.782631 0.683776 0.347880 0.000000
N116  N     N_R   0.731397 0.675183 0.308050 0.000000
C346  C     C_R   0.765635 0.619668 0.293724 0.000000
C347  C     C_R   0.742263 0.592022 0.247198 0.000000
C348  C     C_R   0.781080 0.529956 0.248773 0.000000
C349  C     C_R   0.838036 0.498588 0.302600 0.000000
C350  C     C_R   0.863426 0.528971 0.343532 0.000000
C351  C     C_R   0.829141 0.592437 0.329872 0.000000
N117  N     N_R   0.845368 0.632933 0.359502 0.000000
H381  H     H_    0.723537 0.885573 0.304557 0.000000
H382  H     H_    0.661859 0.873433 0.317082 0.000000
H383  H     H_    0.736645 0.851381 0.386907 0.000000
H384  H     H_    0.785257 0.786955 0.305011 0.000000
H385  H     H_    0.814969 0.737188 0.411100 0.000000
H386  H     H_    0.733849 0.754897 0.396433 0.000000
H387  H     H_    0.693246 0.616030 0.213669 0.000000
H388  H     H_    0.761863 0.504704 0.216057 0.000000
H389  H     H_    0.863312 0.449837 0.313693 0.000000
H390  H     H_    0.901773 0.502320 0.388973 0.000000
C352  C     C_3   0.173093 0.433378 0.423305 0.000000
N118  N     N_3   0.107503 0.481304 0.379740 0.000000
C353  C     C_3   0.070080 0.450578 0.350263 0.000000
C354  C     C_R   0.035085 0.447986 0.393659 0.000000
N119  N     N_R   0.001008 0.500745 0.417613 0.000000
C355  C     C_R   0.004051 0.475199 0.475219 0.000000
C356  C     C_R   0.974759 0.507302 0.518101 0.000000
C357  C     C_R   0.989853 0.473275 0.578784 0.000000
C358  C     C_R   0.032676 0.408751 0.594211 0.000000
C359  C     C_R   0.055335 0.377051 0.546777 0.000000
C360  C     C_R   0.036648 0.410897 0.484474 0.000000
N120  N     N_R   0.051801 0.391223 0.429735 0.000000
H391  H     H_    0.200455 0.404359 0.392892 0.000000
H392  H     H_    0.199343 0.456915 0.451794 0.000000
H393  H     H_    0.170654 0.402722 0.459315 0.000000
H394  H     H_    0.112112 0.502225 0.340701 0.000000
H395  H     H_    0.034344 0.478417 0.300406 0.000000
H396  H     H_    0.103587 0.402308 0.345957 0.000000
H397  H     H_    0.942649 0.557908 0.505911 0.000000
H398  H     H_    0.969991 0.497181 0.614986 0.000000
H399  H     H_    0.046411 0.382385 0.642790 0.000000
H400  H     H_    0.086698 0.327200 0.559984 0.000000

loop_
_geom_bond_atom_site_label_1
_geom_bond_atom_site_label_2
_geom_bond_distance
_geom_bond_site_symmetry_2
_ccdc_geom_bond_type
Zn1   N2    2.096 .      S
Zn1   N63   2.205 1_655  S
Zn1   N72   2.226 .      S
Zn1   N113  2.088 .      S
Zn2   N6    2.228 .      S
Zn2   N8    2.125 .      S
Zn2   N92   2.114 .      S
Zn2   N101  2.166 .      S
Zn3   N3    2.115 .      S
Zn3   N12   2.070 .      S
Zn3   N15   2.013 1_565  S
Zn3   N95   2.110 1_565  S
Zn4   N17   2.056 .      S
Zn4   N21   2.084 1_556  S
Zn4   N80   2.126 .      S
Zn4   N105  2.185 .      S
Zn5   N26   2.146 .      S
Zn5   N32   2.227 1_554  S
Zn5   N35   2.027 .      S
Zn5   N56   2.013 1_554  S
Zn6   N9    2.157 1_455  S
Zn6   N23   2.014 .      S
Zn6   N50   2.054 .      S
Zn6   N120  2.174 .      S
Zn7   N24   2.103 .      S
Zn7   N27   2.064 .      S
Zn7   N87   2.109 .      S
Zn7   N108  2.233 1_455  S
Zn8   N14   2.099 .      S
Zn8   N29   2.082 .      S
Zn8   N74   2.088 1_545  S
Zn8   N111  2.094 .      S
Zn9   N18   2.033 .      S
Zn9   N30   2.121 1_565  S
Zn9   N33   2.168 1_565  S
Zn9   N42   2.071 1_565  S
Zn10  N11   2.086 .      S
Zn10  N36   2.087 .      S
Zn10  N39   2.080 .      S
Zn10  N45   2.175 .      S
Zn11  N5    2.223 .      S
Zn11  N20   2.068 .      S
Zn11  N38   2.072 .      S
Zn11  N116  2.119 .      S
Zn12  N41   2.087 .      S
Zn12  N44   2.143 1_545  S
Zn12  N48   2.116 .      S
Zn12  N51   2.076 .      S
Zn13  N53   2.058 1_455  S
Zn13  N57   2.091 .      S
Zn13  N59   2.121 1_545  S
Zn13  N66   2.023 .      S
Zn14  N47   2.189 .      S
Zn14  N62   2.160 .      S
Zn14  N65   1.998 .      S
Zn14  N68   2.154 1_465  S
Zn15  N60   2.280 1_655  S
Zn15  N71   2.311 .      S
Zn15  N75   2.180 .      S
Zn15  N84   2.045 .      S
Zn16  N78   2.191 .      S
Zn16  N81   2.165 .      S
Zn16  N83   2.043 .      S
Zn16  N86   2.161 1_655  S
Zn17  N69   2.128 .      S
Zn17  N89   2.139 .      S
Zn17  N93   2.023 .      S
Zn17  N96   2.096 .      S
Zn18  N98   2.171 .      S
Zn18  N102  2.263 1_556  S
Zn18  N104  2.196 .      S
Zn18  N107  2.212 .      S
Zn19  N54   2.020 .      S
Zn19  N90   2.166 .      S
Zn19  N99   2.093 .      S
Zn19  N110  2.097 .      S
Zn20  N77   2.100 .      S
Zn20  N114  2.060 .      S
Zn20  N117  2.159 .      S
Zn20  N119  2.077 1_655  S
C1    N1    1.427 .      S
C1    H1    1.054 .      S
C1    H2    1.077 .      S
C1    H3    1.097 .      S
N1    C2    1.449 .      S
N1    H4    1.042 .      S
C2    C3    1.422 .      S
C2    H5    1.103 .      S
C2    H6    1.089 .      S
C5    H7    1.076 .      S
C6    H8    1.081 .      S
C7    H9    1.078 .      S
C8    H10   1.058 .      S
C10   N4    1.454 .      S
C10   H11   1.109 .      S
C10   H12   1.109 .      S
C10   H13   1.107 .      S
N4    C11   1.447 .      S
N4    H14   1.039 .      S
C11   C12   1.491 .      S
C11   H15   1.098 .      S
C11   H16   1.104 .      S
C14   H17   1.070 .      S
C15   H18   1.081 .      S
C16   H19   1.081 .      S
C17   H20   1.058 .      S
C19   N7    1.454 .      S
C19   H21   1.107 .      S
C19   H22   1.102 .      S
C19   H23   1.098 .      S
N7    C20   1.454 .      S
N7    H24   1.043 .      S
C20   C21   1.481 .      S
C20   H25   1.098 .      S
C20   H26   1.101 .      S
C23   H27   1.071 .      S
C24   H28   1.080 .      S
C25   H29   1.080 .      S
C26   H30   1.075 1_655  S
N9    Zn6   2.157 1_655  S
H30   C26   1.075 1_455  S
C28   N10   1.447 .      S
C28   H31   1.107 .      S
C28   H32   1.108 .      S
C28   H33   1.109 .      S
N10   C29   1.445 .      S
N10   H34   1.036 1_565  S
C29   C30   1.496 .      S
C29   H35   1.104 .      S
C29   H36   1.104 .      S
C32   H37   1.058 .      S
C33   H38   1.073 .      S
C34   H39   1.081 .      S
C35   H40   1.047 .      S
H34   N10   1.036 1_545  S
C37   N13   1.443 1_545  S
C37   H41   1.096 .      S
C37   H42   1.080 .      S
C37   H43   1.083 .      S
N13   C37   1.443 1_565  S
N13   C38   1.432 .      S
N13   H44   1.032 .      S
C38   C39   1.436 1_565  S
C38   H45   1.094 .      S
C38   H46   1.070 .      S
C39   C38   1.436 1_545  S
C41   H47   1.070 .      S
C42   H48   1.075 .      S
C43   H49   1.081 .      S
C44   H50   1.072 .      S
N15   Zn3   2.013 1_545  S
C46   N16   1.452 .      S
C46   H51   1.109 .      S
C46   H52   1.104 1_556  S
C46   H53   1.106 1_556  S
N16   C47   1.451 .      S
N16   H54   1.043 .      S
C47   C48   1.473 .      S
C47   H55   1.098 .      S
C47   H56   1.089 .      S
C50   H57   1.077 .      S
C51   H58   1.081 .      S
C52   H59   1.069 .      S
C53   H60   1.078 .      S
H52   C46   1.104 1_554  S
H53   C46   1.106 1_554  S
C55   N19   1.469 .      S
C55   H61   1.097 .      S
C55   H62   1.090 .      S
C55   H63   1.088 .      S
N19   C56   1.436 .      S
N19   H64   1.025 .      S
C56   C57   1.445 .      S
C56   H65   1.106 .      S
C56   H66   1.100 .      S
C59   H67   1.078 .      S
C60   H68   1.080 .      S
C61   H69   1.081 .      S
C62   H70   1.077 .      S
N21   Zn4   2.084 1_554  S
C64   N22   1.451 .      S
C64   H71   1.109 .      S
C64   H72   1.106 .      S
C64   H73   1.105 .      S
N22   C65   1.459 .      S
N22   H74   1.043 .      S
C65   C66   1.479 .      S
C65   H75   1.100 .      S
C65   H76   1.103 .      S
C68   H77   1.060 .      S
C69   H78   1.064 .      S
C70   H79   1.024 .      S
C71   H80   1.051 .      S
C73   N25   1.455 .      S
C73   H81   1.108 .      S
C73   H82   1.108 .      S
C73   H83   1.102 .      S
N25   C74   1.458 .      S
N25   H84   1.042 .      S
C74   C75   1.471 1_556  S
C74   H85   1.099 .      S
C74   H86   1.100 .      S
C75   C74   1.471 1_554  S
C77   H87   1.072 .      S
C78   H88   1.075 .      S
C79   H89   1.081 .      S
C80   H90   1.078 .      S
C82   N28   1.450 .      S
C82   H91   1.104 .      S
C82   H92   1.107 .      S
C82   H93   1.106 .      S
N28   C83   1.444 .      S
N28   H94   1.037 .      S
C83   C84   1.491 1_565  S
C83   H95   1.107 .      S
C83   H96   1.107 .      S
C84   C83   1.491 1_545  S
C86   H97   1.071 .      S
C87   H98   1.081 .      S
C88   H99   1.081 .      S
C89   H100  1.074 .      S
N30   Zn9   2.121 1_545  S
C91   N31   1.446 .      S
C91   H101  1.105 .      S
C91   H102  1.104 .      S
C91   H103  1.101 .      S
N31   C92   1.448 1_565  S
N31   H104  1.043 .      S
C92   N31   1.448 1_545  S
C92   C93   1.487 .      S
C92   H105  1.109 .      S
C92   H106  1.093 .      S
N32   Zn5   2.227 1_556  S
C95   H107  1.068 .      S
C96   H108  1.081 .      S
C97   H109  1.081 .      S
C98   H110  1.074 .      S
N33   Zn9   2.168 1_545  S
C100  N34   1.440 .      S
C100  H111  1.097 .      S
C100  H112  1.104 .      S
C100  H113  1.104 .      S
N34   C101  1.441 .      S
N34   H114  1.041 .      S
C101  C102  1.471 1_565  S
C101  H115  1.110 .      S
C101  H116  1.106 1_565  S
C102  C101  1.471 1_545  S
C104  H117  1.076 .      S
C105  H118  1.077 .      S
C106  H119  1.072 .      S
C107  H120  1.074 .      S
H116  C101  1.106 1_545  S
C109  N37   1.456 .      S
C109  H121  1.106 .      S
C109  H122  1.107 .      S
C109  H123  1.109 .      S
N37   C110  1.452 .      S
N37   H124  1.039 .      S
C110  C111  1.465 .      S
C110  H125  1.090 .      S
C110  H126  1.097 .      S
C113  H127  1.071 .      S
C114  H128  1.081 .      S
C115  H129  1.077 .      S
C116  H130  1.071 .      S
C118  N40   1.454 .      S
C118  H131  1.108 .      S
C118  H132  1.108 .      S
C118  H133  1.109 .      S
N40   C119  1.450 .      S
N40   H134  1.044 .      S
C119  C120  1.493 .      S
C119  H135  1.107 .      S
C119  H136  1.108 .      S
C122  H137  1.066 .      S
C123  H138  1.072 .      S
C124  H139  1.080 .      S
C125  H140  1.074 .      S
N42   Zn9   2.071 1_545  S
C127  N43   1.446 .      S
C127  H141  1.105 .      S
C127  H142  1.104 .      S
C127  H143  1.101 .      S
N43   C128  1.442 .      S
N43   H144  1.036 .      S
C128  C129  1.498 .      S
C128  H145  1.101 .      S
C128  H146  1.093 .      S
N44   Zn12  2.143 1_565  S
C131  H147  1.078 .      S
C132  H148  1.081 .      S
C133  H149  1.081 .      S
C134  H150  1.071 .      S
C136  N46   1.454 .      S
C136  H151  1.108 .      S
C136  H152  1.110 .      S
C136  H153  1.110 .      S
N46   C137  1.447 .      S
N46   H154  1.043 .      S
C137  C138  1.489 .      S
C137  H155  1.108 .      S
C137  H156  1.104 .      S
C140  H157  1.033 .      S
C141  H158  1.070 .      S
C142  H159  1.081 .      S
C143  H160  1.048 .      S
C145  N49   1.458 .      S
C145  H161  1.105 .      S
C145  H162  1.106 .      S
C145  H163  1.109 .      S
N49   C146  1.460 .      S
N49   H164  1.043 .      S
C146  C147  1.484 .      S
C146  H165  1.087 .      S
C146  H166  1.101 .      S
C149  H167  1.067 .      S
C150  H168  1.074 .      S
C151  H169  1.080 .      S
C152  H170  1.071 .      S
C154  N52   1.434 .      S
C154  H171  1.084 .      S
C154  H172  1.101 .      S
C154  H173  1.105 .      S
N52   C155  1.442 .      S
N52   H174  1.033 .      S
C155  C156  1.460 .      S
C155  H175  1.106 .      S
C155  H176  1.099 .      S
N53   Zn13  2.058 1_655  S
C158  H177  1.076 1_655  S
C159  H178  1.068 .      S
C160  H179  1.077 .      S
C161  H180  1.073 .      S
H177  C158  1.076 1_455  S
C163  N55   1.455 .      S
C163  H181  1.106 .      S
C163  H182  1.109 .      S
C163  H183  1.107 .      S
N55   C164  1.446 .      S
N55   H184  1.039 1_565  S
C164  C165  1.497 1_564  S
C164  H185  1.102 .      S
C164  H186  1.103 1_554  S
C165  C164  1.497 1_546  S
N56   Zn5   2.013 1_556  S
C167  H187  1.076 .      S
C168  H188  1.080 .      S
C169  H189  1.076 .      S
C170  H190  1.058 .      S
H184  N55   1.039 1_545  S
H186  C164  1.103 1_556  S
C172  N58   1.458 .      S
C172  H191  1.073 .      S
C172  H192  1.096 .      S
C172  H193  1.082 .      S
N58   C173  1.414 1_655  S
N58   H194  1.022 1_655  S
C173  N58   1.414 1_455  S
C173  C174  1.452 .      S
C173  H195  1.099 .      S
C173  H196  1.089 1_455  S
N59   Zn13  2.121 1_565  S
C176  H197  1.081 1_565  S
C177  H198  1.081 1_565  S
C178  H199  1.081 .      S
C179  H200  1.076 .      S
N60   Zn15  2.280 1_455  S
H194  N58   1.022 1_455  S
H196  C173  1.089 1_655  S
H197  C176  1.081 1_545  S
H198  C177  1.081 1_545  S
C181  N61   1.454 .      S
C181  H201  1.085 .      S
C181  H202  1.096 .      S
C181  H203  1.108 .      S
N61   C182  1.454 .      S
N61   H204  1.043 .      S
C182  C183  1.473 .      S
C182  H205  1.094 .      S
C182  H206  1.091 .      S
C185  H207  1.072 .      S
C186  H208  1.081 .      S
C187  H209  1.078 .      S
C188  H210  1.070 .      S
N63   Zn1   2.205 1_455  S
C190  N64   1.440 1_655  S
C190  H211  1.109 .      S
C190  H212  1.087 .      S
C190  H213  1.107 .      S
N64   C190  1.440 1_455  S
N64   C191  1.452 1_455  S
N64   H214  1.027 .      S
C191  N64   1.452 1_655  S
C191  C192  1.487 1_655  S
C191  H215  1.100 .      S
C191  H216  1.079 .      S
C192  C191  1.487 1_455  S
C194  H217  1.079 .      S
C195  H218  1.080 .      S
C196  H219  1.079 .      S
C197  H220  1.073 .      S
C199  N67   1.455 1_545  S
C199  H221  1.106 1_545  S
C199  H222  1.102 1_545  S
C199  H223  1.080 .      S
N67   C199  1.455 1_565  S
N67   C200  1.461 1_565  S
N67   H224  1.019 .      S
C200  N67   1.461 1_545  S
C200  C201  1.425 .      S
C200  H225  1.092 .      S
C200  H226  1.084 .      S
N68   Zn14  2.154 1_645  S
C203  H227  1.071 1_655  S
C204  H228  1.081 .      S
C205  H229  1.077 .      S
C206  H230  1.075 .      S
H221  C199  1.106 1_565  S
H222  C199  1.102 1_565  S
H227  C203  1.071 1_455  S
C208  N70   1.436 .      S
C208  H231  1.095 .      S
C208  H232  1.084 .      S
C208  H233  1.108 .      S
N70   C209  1.443 .      S
N70   H234  1.043 .      S
C209  C210  1.502 .      S
C209  H235  1.109 .      S
C209  H236  1.106 .      S
C212  H237  1.073 .      S
C213  H238  1.081 .      S
C214  H239  1.081 .      S
C215  H240  1.079 .      S
C217  N73   1.452 .      S
C217  H241  1.106 .      S
C217  H242  1.107 .      S
C217  H243  1.109 .      S
N73   C218  1.438 1_545  S
N73   H244  1.029 1_545  S
C218  N73   1.438 1_565  S
C218  C219  1.487 .      S
C218  H245  1.101 .      S
C218  H246  1.079 1_565  S
N74   Zn8   2.088 1_565  S
C221  H247  1.081 .      S
C222  H248  1.077 .      S
C223  H249  1.065 .      S
C224  H250  1.079 .      S
H244  N73   1.029 1_565  S
H246  C218  1.079 1_545  S
C226  N76   1.429 .      S
C226  H251  1.089 .      S
C226  H252  1.050 .      S
C226  H253  1.093 .      S
N76   C227  1.437 .      S
N76   H254  1.032 .      S
C227  C228  1.481 .      S
C227  H255  1.102 .      S
C227  H256  1.087 .      S
C230  H257  1.078 .      S
C231  H258  1.081 .      S
C232  H259  1.081 .      S
C233  H260  1.068 .      S
C235  N79   1.454 .      S
C235  H261  1.109 .      S
C235  H262  1.105 .      S
C235  H263  1.106 .      S
N79   C236  1.444 .      S
N79   H264  1.036 .      S
C236  C237  1.479 .      S
C236  H265  1.091 .      S
C236  H266  1.095 .      S
C239  H267  1.058 .      S
C240  H268  1.081 .      S
C241  H269  1.080 .      S
C242  H270  1.041 .      S
C244  N82   1.455 .      S
C244  H271  1.109 .      S
C244  H272  1.108 .      S
C244  H273  1.109 .      S
N82   C245  1.453 .      S
N82   H274  1.040 .      S
C245  C246  1.498 1_455  S
C245  H275  1.107 .      S
C245  H276  1.105 1_554  S
C246  C245  1.498 1_655  S
C248  H277  1.068 .      S
C249  H278  1.080 .      S
C250  H279  1.081 .      S
C251  H280  1.064 1_554  S
H276  C245  1.105 1_556  S
H280  C251  1.064 1_556  S
C253  N85   1.452 .      S
C253  H281  1.109 .      S
C253  H282  1.107 .      S
C253  H283  1.107 .      S
N85   C254  1.457 .      S
N85   H284  1.043 .      S
C254  C255  1.495 .      S
C254  H285  1.103 .      S
C254  H286  1.099 .      S
N86   Zn16  2.161 1_455  S
C257  H287  1.066 .      S
C258  H288  1.081 .      S
C259  H289  1.081 .      S
C260  H290  1.074 .      S
C262  N88   1.450 .      S
C262  H291  1.109 .      S
C262  H292  1.102 .      S
C262  H293  1.108 .      S
N88   C263  1.459 .      S
N88   H294  1.040 .      S
C263  C264  1.468 .      S
C263  H295  1.095 .      S
C263  H296  1.098 .      S
C266  H297  1.077 .      S
C267  H298  1.081 .      S
C268  H299  1.081 .      S
C269  H300  1.079 .      S
C271  N91   1.453 .      S
C271  H301  1.108 .      S
C271  H302  1.097 .      S
C271  H303  1.083 .      S
N91   C272  1.451 .      S
N91   H304  1.035 .      S
C272  C273  1.477 .      S
C272  H305  1.096 .      S
C272  H306  1.094 .      S
C275  H307  1.071 .      S
C276  H308  1.081 .      S
C277  H309  1.081 .      S
C278  H310  1.074 .      S
C280  N94   1.456 .      S
C280  H311  1.109 .      S
C280  H312  1.102 .      S
C280  H313  1.096 .      S
N94   C281  1.462 .      S
N94   H314  1.039 .      S
C281  C282  1.473 .      S
C281  H315  1.100 .      S
C281  H316  1.096 .      S
N95   Zn3   2.110 1_545  S
C284  H317  1.074 1_545  S
C285  H318  1.080 1_545  S
C286  H319  1.081 .      S
C287  H320  1.073 .      S
H317  C284  1.074 1_565  S
H318  C285  1.080 1_565  S
C289  N97   1.460 .      S
C289  H321  1.104 1_556  S
C289  H322  1.107 .      S
C289  H323  1.107 .      S
N97   C290  1.443 .      S
N97   H324  1.041 .      S
C290  C291  1.500 .      S
C290  H325  1.098 .      S
C290  H326  1.088 .      S
C293  H327  1.054 .      S
C294  H328  1.081 .      S
C295  H329  1.081 .      S
C296  H330  1.065 .      S
H321  C289  1.104 1_554  S
C298  N100  1.453 .      S
C298  H331  1.109 .      S
C298  H332  1.109 .      S
C298  H333  1.104 1_554  S
N100  C299  1.453 .      S
N100  H334  1.044 .      S
C299  C300  1.490 .      S
C299  H335  1.099 .      S
C299  H336  1.104 .      S
C302  H337  1.075 .      S
C303  H338  1.080 .      S
C304  H339  1.081 .      S
C305  H340  1.064 1_554  S
N102  Zn18  2.263 1_554  S
H333  C298  1.104 1_556  S
H340  C305  1.064 1_556  S
C307  N103  1.451 .      S
C307  H341  1.094 .      S
C307  H342  1.049 .      S
C307  H343  1.077 .      S
N103  C308  1.433 1_554  S
N103  H344  1.033 .      S
C308  N103  1.433 1_556  S
C308  C309  1.458 .      S
C308  H345  1.069 .      S
C308  H346  1.099 .      S
C311  H347  1.081 .      S
C312  H348  1.081 .      S
C313  H349  1.081 .      S
C314  H350  1.072 .      S
C316  N106  1.452 1_455  S
C316  H351  1.104 .      S
C316  H352  1.107 .      S
C316  H353  1.100 1_455  S
N106  C316  1.452 1_655  S
N106  C317  1.460 .      S
N106  H354  1.041 1_655  S
C317  C318  1.496 .      S
C317  H355  1.093 .      S
C317  H356  1.091 .      S
C320  H357  1.064 .      S
C321  H358  1.081 .      S
C322  H359  1.081 .      S
C323  H360  1.058 .      S
N108  Zn7   2.233 1_655  S
H353  C316  1.100 1_655  S
H354  N106  1.041 1_455  S
C325  N109  1.451 .      S
C325  H361  1.109 .      S
C325  H362  1.103 .      S
C325  H363  1.105 .      S
N109  C326  1.464 .      S
N109  H364  1.041 .      S
C326  C327  1.478 .      S
C326  H365  1.091 .      S
C326  H366  1.100 .      S
C329  H367  1.072 .      S
C330  H368  1.081 .      S
C331  H369  1.081 .      S
C332  H370  1.078 .      S
C334  N112  1.453 .      S
C334  H371  1.100 .      S
C334  H372  1.105 .      S
C334  H373  1.108 .      S
N112  C335  1.444 .      S
N112  H374  1.036 .      S
C335  C336  1.497 .      S
C335  H375  1.099 .      S
C335  H376  1.105 .      S
C338  H377  1.068 .      S
C339  H378  1.081 .      S
C340  H379  1.081 .      S
C341  H380  1.076 .      S
C343  N115  1.447 .      S
C343  H381  1.105 .      S
C343  H382  1.106 .      S
C343  H383  1.101 .      S
N115  C344  1.451 .      S
N115  H384  1.040 .      S
C344  C345  1.474 .      S
C344  H385  1.099 .      S
C344  H386  1.100 .      S
C347  H387  1.052 .      S
C348  H388  1.080 .      S
C349  H389  1.031 .      S
C350  H390  1.044 .      S
C352  N118  1.454 .      S
C352  H391  1.109 .      S
C352  H392  1.109 .      S
C352  H393  1.107 .      S
N118  C353  1.454 .      S
N118  H394  1.042 .      S
C353  C354  1.484 .      S
C353  H395  1.097 .      S
C353  H396  1.104 .      S
N119  Zn20  2.077 1_455  S
C356  H397  1.080 .      S
C357  H398  1.081 .      S
C358  H399  1.081 .      S
C359  H400  1.063 .      S
C3    N2    1.368 .      A
C3    N3    1.375 .      A
N2    C4    1.344 .      A
C4    C5    1.375 .      A
C4    C9    1.372 .      A
C5    C6    1.379 .      A
C6    C7    1.384 .      A
C7    C8    1.384 .      A
C8    C9    1.365 .      A
C9    N3    1.356 .      A
C12   N5    1.388 .      A
C12   N6    1.402 .      A
N5    C13   1.347 .      A
C13   C14   1.373 .      A
C13   C18   1.374 .      A
C14   C15   1.381 .      A
C15   C16   1.383 .      A
C16   C17   1.381 .      A
C17   C18   1.366 .      A
C18   N6    1.352 .      A
C21   N8    1.391 .      A
C21   N9    1.395 .      A
N8    C22   1.348 .      A
C22   C23   1.356 .      A
C22   C27   1.358 .      A
C23   C24   1.382 .      A
C24   C25   1.385 .      A
C25   C26   1.386 .      A
C26   C27   1.359 .      A
C27   N9    1.341 .      A
C30   N11   1.380 .      A
C30   N12   1.388 .      A
N11   C31   1.347 1_565  A
C31   N11   1.347 1_545  A
C31   C32   1.361 .      A
C31   C36   1.354 .      A
C32   C33   1.379 .      A
C33   C34   1.368 .      A
C34   C35   1.369 .      A
C35   C36   1.371 .      A
C36   N12   1.346 1_545  A
N12   C36   1.346 1_565  A
C39   N14   1.377 .      A
C39   N15   1.352 .      A
N14   C40   1.355 .      A
C40   C41   1.370 .      A
C40   C45   1.365 .      A
C41   C42   1.388 .      A
C42   C43   1.383 .      A
C43   C44   1.376 .      A
C44   C45   1.371 .      A
C45   N15   1.340 .      A
C48   N17   1.376 .      A
C48   N18   1.371 .      A
N17   C49   1.343 .      A
C49   C50   1.372 .      A
C49   C54   1.359 .      A
C50   C51   1.378 .      A
C51   C52   1.385 .      A
C52   C53   1.382 .      A
C53   C54   1.371 .      A
C54   N18   1.348 .      A
C57   N20   1.371 .      A
C57   N21   1.375 .      A
N20   C58   1.344 .      A
C58   C59   1.369 .      A
C58   C63   1.363 .      A
C59   C60   1.386 .      A
C60   C61   1.391 .      A
C61   C62   1.385 .      A
C62   C63   1.372 .      A
C63   N21   1.348 .      A
C66   N23   1.378 .      A
C66   N24   1.394 .      A
N23   C67   1.302 .      A
C67   C68   1.337 1_455  A
C67   C72   1.333 .      A
C68   C67   1.337 1_655  A
C68   C69   1.347 .      A
C69   C70   1.339 .      A
C70   C71   1.331 .      A
C71   C72   1.307 1_655  A
C72   C71   1.307 1_455  A
C72   N24   1.321 .      A
C75   N26   1.394 .      A
C75   N27   1.378 .      A
N26   C76   1.359 .      A
C76   C77   1.368 .      A
C76   C81   1.362 .      A
C77   C78   1.391 .      A
C78   C79   1.384 .      A
C79   C80   1.375 .      A
C80   C81   1.367 .      A
C81   N27   1.330 .      A
C84   N29   1.384 .      A
C84   N30   1.385 .      A
N29   C85   1.347 .      A
C85   C86   1.374 .      A
C85   C90   1.358 .      A
C86   C87   1.381 .      A
C87   C88   1.385 .      A
C88   C89   1.383 .      A
C89   C90   1.381 .      A
C90   N30   1.353 .      A
C93   N32   1.411 .      A
C93   N33   1.394 .      A
N32   C94   1.351 .      A
C94   C95   1.367 1_556  A
C94   C99   1.371 .      A
C95   C94   1.367 1_554  A
C95   C96   1.385 .      A
C96   C97   1.387 .      A
C97   C98   1.382 1_554  A
C98   C97   1.382 1_556  A
C98   C99   1.373 .      A
C99   N33   1.347 .      A
C102  N35   1.370 .      A
C102  N36   1.384 1_545  A
N35   C103  1.344 .      A
C103  C104  1.371 .      A
C103  C108  1.357 .      A
C104  C105  1.382 .      A
C105  C106  1.383 .      A
C106  C107  1.378 1_545  A
C107  C106  1.378 1_565  A
C107  C108  1.370 1_565  A
C108  C107  1.370 1_545  A
C108  N36   1.346 1_545  A
N36   C102  1.384 1_565  A
N36   C108  1.346 1_565  A
C111  N38   1.380 .      A
C111  N39   1.381 .      A
N38   C112  1.348 .      A
C112  C113  1.375 .      A
C112  C117  1.358 .      A
C113  C114  1.381 .      A
C114  C115  1.384 .      A
C115  C116  1.383 .      A
C116  C117  1.372 .      A
C117  N39   1.347 .      A
C120  N41   1.389 1_565  A
C120  N42   1.384 1_565  A
N41   C120  1.389 1_545  A
N41   C121  1.340 .      A
C121  C122  1.364 .      A
C121  C126  1.346 .      A
C122  C123  1.378 .      A
C123  C124  1.384 .      A
C124  C125  1.378 .      A
C125  C126  1.355 .      A
C126  N42   1.337 .      A
N42   C120  1.384 1_545  A
C129  N44   1.392 1_545  A
C129  N45   1.406 1_545  A
N44   C129  1.392 1_565  A
N44   C130  1.342 .      A
C130  C131  1.369 .      A
C130  C135  1.371 .      A
C131  C132  1.383 .      A
C132  C133  1.389 .      A
C133  C134  1.385 .      A
C134  C135  1.371 .      A
C135  N45   1.353 .      A
N45   C129  1.406 1_565  A
C138  N47   1.398 .      A
C138  N48   1.401 1_565  A
N47   C139  1.359 1_565  A
C139  N47   1.359 1_545  A
C139  C140  1.370 .      A
C139  C144  1.346 .      A
C140  C141  1.371 .      A
C141  C142  1.362 .      A
C142  C143  1.364 .      A
C143  C144  1.372 .      A
C144  N48   1.339 .      A
N48   C138  1.401 1_545  A
C147  N50   1.372 .      A
C147  N51   1.397 .      A
N50   C148  1.349 .      A
C148  C149  1.369 .      A
C148  C153  1.351 .      A
C149  C150  1.387 .      A
C150  C151  1.379 .      A
C151  C152  1.368 .      A
C152  C153  1.371 .      A
C153  N51   1.336 .      A
C156  N53   1.372 .      A
C156  N54   1.370 .      A
N53   C157  1.351 .      A
C157  C158  1.370 .      A
C157  C162  1.353 .      A
C158  C159  1.384 .      A
C159  C160  1.380 .      A
C160  C161  1.371 .      A
C161  C162  1.368 .      A
C162  N54   1.339 .      A
C165  N56   1.386 .      A
C165  N57   1.386 .      A
N56   C166  1.326 .      A
C166  C167  1.372 .      A
C166  C171  1.345 .      A
C167  C168  1.374 .      A
C168  C169  1.378 .      A
C169  C170  1.386 .      A
C170  C171  1.361 .      A
C171  N57   1.357 .      A
C174  N59   1.374 .      A
C174  N60   1.398 .      A
N59   C175  1.346 .      A
C175  C176  1.371 1_556  A
C175  C180  1.378 .      A
C176  C175  1.371 1_554  A
C176  C177  1.384 .      A
C177  C178  1.390 .      A
C178  C179  1.385 .      A
C179  C180  1.372 1_554  A
C180  C179  1.372 1_556  A
C180  N60   1.358 .      A
C183  N62   1.397 .      A
C183  N63   1.386 .      A
N62   C184  1.344 .      A
C184  C185  1.369 .      A
C184  C189  1.371 .      A
C185  C186  1.380 .      A
C186  C187  1.386 .      A
C187  C188  1.385 .      A
C188  C189  1.366 .      A
C189  N63   1.354 .      A
C192  N65   1.372 1_545  A
C192  N66   1.377 .      A
N65   C192  1.372 1_565  A
N65   C193  1.347 .      A
C193  C194  1.376 .      A
C193  C198  1.353 .      A
C194  C195  1.385 .      A
C195  C196  1.390 .      A
C196  C197  1.386 .      A
C197  C198  1.367 .      A
C198  N66   1.345 1_565  A
N66   C198  1.345 1_545  A
C201  N68   1.390 .      A
C201  N69   1.354 .      A
N68   C202  1.346 .      A
C202  C203  1.368 .      A
C202  C207  1.376 .      A
C203  C204  1.381 .      A
C204  C205  1.388 .      A
C205  C206  1.383 .      A
C206  C207  1.374 .      A
C207  N69   1.355 .      A
C210  N71   1.408 .      A
C210  N72   1.399 .      A
N71   C211  1.356 1_655  A
C211  N71   1.356 1_455  A
C211  C212  1.372 .      A
C211  C216  1.374 .      A
C212  C213  1.385 .      A
C213  C214  1.390 .      A
C214  C215  1.387 .      A
C215  C216  1.377 .      A
C216  N72   1.353 1_455  A
N72   C216  1.353 1_655  A
C219  N74   1.377 .      A
C219  N75   1.400 .      A
N74   C220  1.336 .      A
C220  C221  1.370 .      A
C220  C225  1.365 .      A
C221  C222  1.376 .      A
C222  C223  1.384 .      A
C223  C224  1.384 .      A
C224  C225  1.365 .      A
C225  N75   1.349 .      A
C228  N77   1.377 .      A
C228  N78   1.402 .      A
N77   C229  1.343 1_655  A
C229  N77   1.343 1_455  A
C229  C230  1.373 .      A
C229  C234  1.371 .      A
C230  C231  1.383 .      A
C231  C232  1.388 .      A
C232  C233  1.384 .      A
C233  C234  1.371 .      A
C234  N78   1.356 1_455  A
N78   C234  1.356 1_655  A
C237  N80   1.395 1_554  A
C237  N81   1.385 .      A
N80   C237  1.395 1_556  A
N80   C238  1.348 .      A
C238  C239  1.370 .      A
C238  C243  1.357 .      A
C239  C240  1.381 .      A
C240  C241  1.382 .      A
C241  C242  1.380 .      A
C242  C243  1.352 .      A
C243  N81   1.343 1_556  A
N81   C243  1.343 1_554  A
C246  N83   1.387 .      A
C246  N84   1.376 1_554  A
N83   C247  1.341 .      A
C247  C248  1.369 .      A
C247  C252  1.344 .      A
C248  C249  1.383 .      A
C249  C250  1.381 .      A
C250  C251  1.380 .      A
C251  C252  1.361 .      A
C252  N84   1.342 1_554  A
N84   C246  1.376 1_556  A
N84   C252  1.342 1_556  A
C255  N86   1.383 .      A
C255  N87   1.385 .      A
N86   C256  1.368 .      A
C256  C257  1.380 1_554  A
C256  C261  1.362 .      A
C257  C256  1.380 1_556  A
C257  C258  1.383 .      A
C258  C259  1.382 .      A
C259  C260  1.378 .      A
C260  C261  1.372 1_556  A
C261  C260  1.372 1_554  A
C261  N87   1.336 .      A
C264  N89   1.379 .      A
C264  N90   1.390 .      A
N89   C265  1.346 .      A
C265  C266  1.372 .      A
C265  C270  1.373 .      A
C266  C267  1.383 .      A
C267  C268  1.389 .      A
C268  C269  1.385 .      A
C269  C270  1.375 .      A
C270  N90   1.354 .      A
C273  N92   1.388 .      A
C273  N93   1.366 .      A
N92   C274  1.361 .      A
C274  C275  1.377 .      A
C274  C279  1.365 .      A
C275  C276  1.384 .      A
C276  C277  1.386 .      A
C277  C278  1.381 .      A
C278  C279  1.373 .      A
C279  N93   1.341 .      A
C282  N95   1.380 .      A
C282  N96   1.385 .      A
N95   C283  1.349 .      A
C283  C284  1.366 .      A
C283  C288  1.363 .      A
C284  C285  1.386 .      A
C285  C286  1.388 .      A
C286  C287  1.383 .      A
C287  C288  1.375 .      A
C288  N96   1.347 .      A
C291  N98   1.401 .      A
C291  N99   1.386 .      A
N98   C292  1.371 .      A
C292  C293  1.382 .      A
C292  C297  1.367 .      A
C293  C294  1.382 .      A
C294  C295  1.378 .      A
C295  C296  1.375 .      A
C296  C297  1.370 .      A
C297  N99   1.336 .      A
C300  N101  1.390 .      A
C300  N102  1.404 .      A
N101  C301  1.351 .      A
C301  C302  1.376 .      A
C301  C306  1.371 .      A
C302  C303  1.385 .      A
C303  C304  1.387 .      A
C304  C305  1.382 .      A
C305  C306  1.354 .      A
C306  N102  1.341 .      A
C309  N104  1.390 .      A
C309  N105  1.392 .      A
N104  C310  1.353 .      A
C310  C311  1.374 .      A
C310  C315  1.377 .      A
C311  C312  1.386 .      A
C312  C313  1.391 .      A
C313  C314  1.385 .      A
C314  C315  1.368 .      A
C315  N105  1.350 .      A
C318  N107  1.406 1_554  A
C318  N108  1.398 .      A
N107  C318  1.406 1_556  A
N107  C319  1.346 .      A
C319  C320  1.369 .      A
C319  C324  1.366 .      A
C320  C321  1.382 .      A
C321  C322  1.385 .      A
C322  C323  1.382 .      A
C323  C324  1.363 .      A
C324  N108  1.350 1_556  A
N108  C324  1.350 1_554  A
C327  N110  1.371 .      A
C327  N111  1.383 .      A
N110  C328  1.352 .      A
C328  C329  1.372 .      A
C328  C333  1.360 .      A
C329  C330  1.384 .      A
C330  C331  1.385 .      A
C331  C332  1.380 .      A
C332  C333  1.377 .      A
C333  N111  1.346 .      A
C336  N113  1.399 .      A
C336  N114  1.366 .      A
N113  C337  1.348 1_655  A
C337  N113  1.348 1_455  A
C337  C338  1.367 .      A
C337  C342  1.356 .      A
C338  C339  1.383 .      A
C339  C340  1.387 .      A
C340  C341  1.383 .      A
C341  C342  1.375 .      A
C342  N114  1.347 1_455  A
N114  C342  1.347 1_655  A
C345  N116  1.397 .      A
C345  N117  1.402 .      A
N116  C346  1.321 .      A
C346  C347  1.338 .      A
C346  C351  1.326 .      A
C347  C348  1.353 .      A
C348  C349  1.357 .      A
C349  C350  1.345 .      A
C350  C351  1.343 .      A
C351  N117  1.327 .      A
C354  N119  1.380 .      A
C354  N120  1.388 .      A
N119  C355  1.343 .      A
C355  C356  1.376 1_455  A
C355  C360  1.362 .      A
C356  C355  1.376 1_655  A
C356  C357  1.378 .      A
C357  C358  1.383 1_655  A
C358  C357  1.383 1_455  A
C358  C359  1.385 .      A
C359  C360  1.380 .      A
C360  N120  1.367 .      A
