data_str_m1_o12014_BOG
_audit_creation_date              2015-10-01T06:35:32-0700
_symmetry_space_group_name_H-M    P1
_symmetry_Int_Tables_number       1
_space_group_crystal_system       triclinic
loop_
_symmetry_equiv_pos_as_xyz
  x,y,z
_cell_length_a                    27.0136871
_cell_length_b                    42.7140906
_cell_length_c                    35.6289950
_cell_angle_alpha                 55.4693277
_cell_angle_beta                  110.202677
_cell_angle_gamma                 86.2714276
_cell_volume                      29921.7880999

loop_
_atom_site_label
_atom_site_type_symbol
_atom_site_description
_atom_site_fract_x
_atom_site_fract_y
_atom_site_fract_z
_atom_type_partial_charge
Zn1   Zn    Zn3+2 0.537533 0.247199 0.038387 0.000000
Zn2   Zn    Zn3+2 0.399686 0.371269 0.051014 0.000000
Zn3   Zn    Zn3+2 0.519504 0.235246 0.305335 0.000000
Zn4   Zn    Zn3+2 0.727545 0.413047 0.718649 0.000000
Zn5   Zn    Zn3+2 0.335734 0.454104 0.617455 0.000000
Zn6   Zn    Zn3+2 0.658541 0.115951 0.291060 0.000000
Zn7   Zn    Zn3+2 0.492149 0.940332 0.511063 0.000000
Zn8   Zn    Zn3+2 0.580556 0.613607 0.061298 0.000000
Zn9   Zn    Zn3+2 0.161253 0.032123 0.852640 0.000000
Zn10  Zn    Zn3+2 0.375597 0.134619 0.045113 0.000000
Zn11  Zn    Zn3+2 0.682676 0.344341 0.304262 0.000000
Zn12  Zn    Zn3+2 0.901827 0.042308 0.510842 0.000000
Zn13  Zn    Zn3+2 0.564908 0.528495 0.848269 0.000000
Zn14  Zn    Zn3+2 0.905264 0.197223 0.517338 0.000000
Zn15  Zn    Zn3+2 0.570870 0.373431 0.837206 0.000000
Zn16  Zn    Zn3+2 0.706215 0.629628 0.732089 0.000000
Zn17  Zn    Zn3+2 0.347613 0.683629 0.635972 0.000000
Zn18  Zn    Zn3+2 0.569349 0.463771 0.058766 0.000000
Zn19  Zn    Zn3+2 0.164029 0.285052 0.837199 0.000000
Zn20  Zn    Zn3+2 0.665168 0.741341 0.310971 0.000000
Zn21  Zn    Zn3+2 0.534345 0.622582 0.295417 0.000000
Zn22  Zn    Zn3+2 0.549388 0.856895 0.067331 0.000000
Zn23  Zn    Zn3+2 0.903700 0.598794 0.516632 0.000000
Zn24  Zn    Zn3+2 0.488391 0.855929 0.311253 0.000000
Zn25  Zn    Zn3+2 0.421496 0.742497 0.049128 0.000000
Zn26  Zn    Zn3+2 0.576348 0.922284 0.858109 0.000000
Zn27  Zn    Zn3+2 0.703549 0.496715 0.304034 0.000000
Zn28  Zn    Zn3+2 0.373314 0.972289 0.065433 0.000000
Zn29  Zn    Zn3+2 0.356826 0.837625 0.631478 0.000000
Zn30  Zn    Zn3+2 0.722262 0.789694 0.723554 0.000000
Zn31  Zn    Zn3+2 0.480306 0.021042 0.286045 0.000000
Zn32  Zn    Zn3+2 0.496434 0.545194 0.501766 0.000000
Zn33  Zn    Zn3+2 0.906364 0.438335 0.521286 0.000000
Zn34  Zn    Zn3+2 0.484894 0.696692 0.514875 0.000000
Zn35  Zn    Zn3+2 0.896173 0.520561 0.737028 0.000000
Zn36  Zn    Zn3+2 0.169654 0.579873 0.619529 0.000000
Zn37  Zn    Zn3+2 0.348326 0.061336 0.636303 0.000000
Zn38  Zn    Zn3+2 0.731533 0.014616 0.738964 0.000000
Zn39  Zn    Zn3+2 0.170502 0.879405 0.841623 0.000000
Zn40  Zn    Zn3+2 0.582484 0.764915 0.848782 0.000000
Zn41  Zn    Zn3+2 0.903523 0.290441 0.734923 0.000000
Zn42  Zn    Zn3+2 0.171063 0.339257 0.626896 0.000000
Zn43  Zn    Zn3+2 0.177302 0.174356 0.641645 0.000000
Zn44  Zn    Zn3+2 0.183524 0.959512 0.619682 0.000000
Zn45  Zn    Zn3+2 0.888917 0.136304 0.727414 0.000000
Zn46  Zn    Zn3+2 0.904963 0.891766 0.738901 0.000000
Zn47  Zn    Zn3+2 0.502289 0.094823 0.518574 0.000000
Zn48  Zn    Zn3+2 0.161011 0.441958 0.842493 0.000000
C1    C     C_3   0.476894 0.366435 0.865974 0.000000
C2    C     C_3   0.496091 0.322699 0.910514 0.000000
C3    C     C_3   0.474713 0.296303 0.897714 0.000000
C4    C     C_R   0.554333 0.306013 0.936543 0.000000
N1    N     N_R   0.587482 0.316454 0.911913 0.000000
C5    C     C_R   0.633861 0.283269 0.948504 0.000000
C6    C     C_R   0.679531 0.273393 0.943950 0.000000
C7    C     C_R   0.721355 0.236487 0.985343 0.000000
C8    C     C_R   0.716337 0.209704 0.029782 0.000000
C9    C     C_R   0.668726 0.219479 0.032960 0.000000
C10   C     C_R   0.628285 0.256509 0.992292 0.000000
N2    N     N_R   0.577766 0.270710 0.986585 0.000000
C11   C     C_2   0.760957 0.170617 0.073060 0.000000
O1    O     O_2   0.802326 0.161182 0.070242 0.000000
O2    O     O_2   0.756636 0.145080 0.116297 0.000000
H1    H     H_    0.511443 0.378320 0.866189 0.000000
H2    H     H_    0.456795 0.369374 0.831628 0.000000
H3    H     H_    0.447856 0.384429 0.867179 0.000000
H4    H     H_    0.491644 0.316991 0.942397 0.000000
H5    H     H_    0.451372 0.280844 0.918863 0.000000
H6    H     H_    0.448924 0.312695 0.856474 0.000000
H7    H     H_    0.510979 0.273182 0.909893 0.000000
H8    H     H_    0.682007 0.292990 0.908583 0.000000
H9    H     H_    0.757672 0.228482 0.982202 0.000000
H10   H     H_    0.662801 0.198573 0.065870 0.000000
H11   H     H_    0.786133 0.119435 0.144822 0.000000
C12   C     C_3   0.506792 0.240998 0.119992 0.000000
C13   C     C_3   0.517916 0.278212 0.108033 0.000000
C14   C     C_3   0.578507 0.275400 0.122026 0.000000
C15   C     C_R   0.482594 0.307142 0.054241 0.000000
N3    N     N_R   0.481006 0.300691 0.019881 0.000000
C16   C     C_R   0.435951 0.334030 0.976508 0.000000
C17   C     C_R   0.403844 0.344762 0.929070 0.000000
C18   C     C_R   0.369325 0.384328 0.890006 0.000000
C19   C     C_R   0.359561 0.410527 0.899533 0.000000
C20   C     C_R   0.383080 0.396698 0.948618 0.000000
C21   C     C_R   0.417384 0.358017 0.985762 0.000000
N4    N     N_R   0.441090 0.340421 0.034996 0.000000
C22   C     C_2   0.322623 0.451890 0.859276 0.000000
O3    O     O_2   0.292523 0.463380 0.816548 0.000000
O4    O     O_2   0.323583 0.478193 0.868488 0.000000
H12   H     H_    0.512245 0.236999 0.094291 0.000000
H13   H     H_    0.533218 0.212312 0.156525 0.000000
H14   H     H_    0.463932 0.244964 0.115355 0.000000
H15   H     H_    0.499864 0.290136 0.122209 0.000000
H16   H     H_    0.589281 0.295458 0.131196 0.000000
H17   H     H_    0.605630 0.245207 0.158166 0.000000
H18   H     H_    0.586405 0.283639 0.089616 0.000000
H19   H     H_    0.405327 0.324158 0.921019 0.000000
H20   H     H_    0.354961 0.395332 0.851737 0.000000
H21   H     H_    0.377644 0.416217 0.957849 0.000000
H22   H     H_    0.304268 0.506446 0.839903 0.000000
C23   C     C_3   0.519848 0.351501 0.151983 0.000000
C24   C     C_3   0.493927 0.334495 0.187404 0.000000
C25   C     C_3   0.459184 0.364230 0.186775 0.000000
C26   C     C_R   0.460089 0.311105 0.180412 0.000000
N5    N     N_R   0.455059 0.281915 0.223716 0.000000
C27   C     C_R   0.400314 0.287407 0.202151 0.000000
C28   C     C_R   0.367827 0.276869 0.226660 0.000000
C29   C     C_R   0.312910 0.283285 0.198938 0.000000
C30   C     C_R   0.291200 0.301200 0.147197 0.000000
C31   C     C_R   0.322248 0.318489 0.120932 0.000000
C32   C     C_R   0.376897 0.312344 0.149281 0.000000
N6    N     N_R   0.413829 0.328558 0.132716 0.000000
C33   C     C_2   0.235820 0.300412 0.122356 0.000000
O5    O     O_2   0.202863 0.298074 0.139379 0.000000
O6    O     O_2   0.223276 0.297797 0.084569 0.000000
H23   H     H_    0.518551 0.382275 0.137156 0.000000
H24   H     H_    0.564716 0.333785 0.173181 0.000000
H25   H     H_    0.499665 0.348577 0.122080 0.000000
H26   H     H_    0.527888 0.314103 0.225912 0.000000
H27   H     H_    0.473900 0.353055 0.226684 0.000000
H28   H     H_    0.463307 0.394008 0.164110 0.000000
H29   H     H_    0.414632 0.366581 0.171633 0.000000
H30   H     H_    0.384814 0.263460 0.266749 0.000000
H31   H     H_    0.288118 0.272054 0.218877 0.000000
H32   H     H_    0.305088 0.336087 0.080173 0.000000
H33   H     H_    0.187715 0.295358 0.070003 0.000000
C34   C     C_3   0.747894 0.315489 0.676052 0.000000
C35   C     C_3   0.742206 0.330359 0.703730 0.000000
C36   C     C_3   0.735327 0.297552 0.749661 0.000000
C37   C     C_R   0.791176 0.341973 0.720716 0.000000
N7    N     N_R   0.843453 0.312260 0.749703 0.000000
C38   C     C_R   0.859586 0.303652 0.795745 0.000000
C39   C     C_R   0.906715 0.273925 0.841186 0.000000
C40   C     C_R   0.916670 0.271535 0.883577 0.000000
C41   C     C_R   0.880366 0.298970 0.879875 0.000000
C42   C     C_R   0.834442 0.329934 0.832745 0.000000
C43   C     C_R   0.825613 0.332055 0.791102 0.000000
N8    N     N_R   0.784024 0.359587 0.742340 0.000000
C44   C     C_2   0.891770 0.295354 0.925836 0.000000
O7    O     O_2   0.931613 0.267777 0.967091 0.000000
O8    O     O_2   0.858830 0.322554 0.922757 0.000000
H34   H     H_    0.778609 0.284591 0.703683 0.000000
H35   H     H_    0.706695 0.315546 0.654815 0.000000
H36   H     H_    0.761540 0.336928 0.649018 0.000000
H37   H     H_    0.704438 0.356671 0.677351 0.000000
H38   H     H_    0.726516 0.308480 0.769136 0.000000
H39   H     H_    0.700767 0.287836 0.736757 0.000000
H40   H     H_    0.773792 0.270989 0.778153 0.000000
H41   H     H_    0.935227 0.252809 0.844098 0.000000
H42   H     H_    0.953202 0.247939 0.919633 0.000000
H43   H     H_    0.805489 0.351511 0.828209 0.000000
H44   H     H_    0.866717 0.320164 0.953029 0.000000
C45   C     C_3   0.714792 0.428660 0.816540 0.000000
C46   C     C_3   0.718537 0.386031 0.843207 0.000000
C47   C     C_3   0.709743 0.369799 0.889655 0.000000
C48   C     C_R   0.677037 0.383828 0.805688 0.000000
N9    N     N_R   0.633807 0.369125 0.812903 0.000000
C49   C     C_R   0.620008 0.360718 0.780397 0.000000
C50   C     C_R   0.601483 0.329994 0.787290 0.000000
C51   C     C_R   0.590803 0.324196 0.751283 0.000000
C52   C     C_R   0.602935 0.347797 0.710942 0.000000
C53   C     C_R   0.633338 0.372417 0.711899 0.000000
C54   C     C_R   0.645429 0.375490 0.750039 0.000000
N10   N     N_R   0.683644 0.390092 0.764828 0.000000
C55   C     C_2   0.591767 0.341893 0.672469 0.000000
O9    O     O_2   0.571156 0.316503 0.675465 0.000000
O10   O     O_2   0.606299 0.363371 0.634846 0.000000
H45   H     H_    0.671187 0.446551 0.799548 0.000000
H46   H     H_    0.744384 0.430585 0.844929 0.000000
H47   H     H_    0.725818 0.438339 0.785478 0.000000
H48   H     H_    0.760661 0.368031 0.857080 0.000000
H49   H     H_    0.720824 0.336733 0.913351 0.000000
H50   H     H_    0.737916 0.376278 0.913561 0.000000
H51   H     H_    0.665940 0.383950 0.877407 0.000000
H52   H     H_    0.603737 0.307631 0.823837 0.000000
H53   H     H_    0.575310 0.300152 0.756117 0.000000
H54   H     H_    0.649386 0.387007 0.685328 0.000000
H55   H     H_    0.603706 0.357067 0.612308 0.000000
C56   C     C_3   0.311279 0.348976 0.725608 0.000000
C57   C     C_3   0.256231 0.379339 0.680241 0.000000
C58   C     C_3   0.239097 0.414228 0.678044 0.000000
C59   C     C_R   0.258053 0.390069 0.633677 0.000000
N11   N     N_R   0.287040 0.414859 0.609686 0.000000
C60   C     C_R   0.277591 0.411587 0.572363 0.000000
C61   C     C_R   0.291950 0.431790 0.533389 0.000000
C62   C     C_R   0.279966 0.423268 0.499765 0.000000
C63   C     C_R   0.253978 0.394821 0.505406 0.000000
C64   C     C_R   0.237386 0.376035 0.543553 0.000000
C65   C     C_R   0.247783 0.385791 0.575427 0.000000
N12   N     N_R   0.232547 0.372214 0.612929 0.000000
C66   C     C_2   0.243793 0.384782 0.470844 0.000000
O11   O     O_2   0.257578 0.401524 0.436777 0.000000
O12   O     O_2   0.219319 0.356929 0.476680 0.000000
H56   H     H_    0.303349 0.328332 0.757945 0.000000
H57   H     H_    0.329747 0.331647 0.716914 0.000000
H58   H     H_    0.339850 0.363443 0.734629 0.000000
H59   H     H_    0.223769 0.365877 0.683689 0.000000
H60   H     H_    0.194346 0.423109 0.665968 0.000000
H61   H     H_    0.261041 0.406372 0.715954 0.000000
H62   H     H_    0.247831 0.438731 0.649829 0.000000
H63   H     H_    0.311514 0.454036 0.528425 0.000000
H64   H     H_    0.291920 0.438725 0.469437 0.000000
H65   H     H_    0.219247 0.353000 0.549901 0.000000
H66   H     H_    0.212576 0.350376 0.453890 0.000000
C67   C     C_3   0.487975 0.455905 0.675125 0.000000
C68   C     C_3   0.454396 0.458909 0.698993 0.000000
C69   C     C_3   0.403888 0.496004 0.658601 0.000000
C70   C     C_R   0.447210 0.420471 0.724263 0.000000
N13   N     N_R   0.410892 0.412666 0.694444 0.000000
C71   C     C_R   0.433243 0.372138 0.725318 0.000000
C72   C     C_R   0.419439 0.347437 0.713438 0.000000
C73   C     C_R   0.451289 0.307080 0.748529 0.000000
C74   C     C_R   0.494608 0.291422 0.795888 0.000000
C75   C     C_R   0.505723 0.316294 0.808622 0.000000
C76   C     C_R   0.477870 0.357007 0.771385 0.000000
N14   N     N_R   0.490628 0.386804 0.772391 0.000000
C77   C     C_2   0.533816 0.250355 0.828727 0.000000
O13   O     O_2   0.522688 0.227480 0.819540 0.000000
O14   O     O_2   0.585395 0.239787 0.864470 0.000000
H67   H     H_    0.475694 0.438546 0.661884 0.000000
H68   H     H_    0.479444 0.486285 0.641442 0.000000
H69   H     H_    0.531848 0.438469 0.704195 0.000000
H70   H     H_    0.471715 0.460599 0.729571 0.000000
H71   H     H_    0.376312 0.494868 0.628795 0.000000
H72   H     H_    0.384832 0.499355 0.679139 0.000000
H73   H     H_    0.416781 0.522772 0.640320 0.000000
H74   H     H_    0.385080 0.358579 0.677653 0.000000
H75   H     H_    0.443133 0.288298 0.737624 0.000000
H76   H     H_    0.538754 0.304565 0.845443 0.000000
H77   H     H_    0.613741 0.214885 0.881282 0.000000
C78   C     C_3   0.829639 0.141253 0.342248 0.000000
C79   C     C_3   0.785357 0.135460 0.360110 0.000000
C80   C     C_3   0.728329 0.163746 0.314694 0.000000
C81   C     C_R   0.786338 0.092489 0.388203 0.000000
N15   N     N_R   0.746629 0.082170 0.362754 0.000000
C82   C     C_R   0.773760 0.041739 0.394434 0.000000
C83   C     C_R   0.754087 0.012786 0.395330 0.000000
C84   C     C_R   0.791691 0.974809 0.423832 0.000000
C85   C     C_R   0.848069 0.965669 0.453269 0.000000
C86   C     C_R   0.864874 0.992703 0.460637 0.000000
C87   C     C_R   0.825600 0.029727 0.433036 0.000000
N16   N     N_R   0.833186 0.059424 0.435573 0.000000
C88   C     C_2   0.888222 0.926515 0.478756 0.000000
O15   O     O_2   0.871966 0.902408 0.474027 0.000000
O16   O     O_2   0.943065 0.916902 0.507476 0.000000
H78   H     H_    0.846598 0.114640 0.346193 0.000000
H79   H     H_    0.812337 0.168993 0.301939 0.000000
H80   H     H_    0.863157 0.145541 0.365690 0.000000
H81   H     H_    0.794306 0.144685 0.384028 0.000000
H82   H     H_    0.699555 0.163849 0.330192 0.000000
H83   H     H_    0.729123 0.194568 0.288822 0.000000
H84   H     H_    0.712966 0.154007 0.291680 0.000000
H85   H     H_    0.710373 0.018185 0.377524 0.000000
H86   H     H_    0.776429 0.952575 0.422343 0.000000
H87   H     H_    0.907565 0.985853 0.485789 0.000000
H88   H     H_    0.968897 0.890707 0.525095 0.000000
C89   C     C_3   0.546389 0.135990 0.155238 0.000000
C90   C     C_3   0.603204 0.136114 0.164469 0.000000
C91   C     C_3   0.617638 0.137823 0.126066 0.000000
C92   C     C_R   0.609678 0.169292 0.165558 0.000000
N17   N     N_R   0.605745 0.204559 0.120934 0.000000
C93   C     C_R   0.656046 0.207608 0.140657 0.000000
C94   C     C_R   0.679510 0.234122 0.113947 0.000000
C95   C     C_R   0.735287 0.227584 0.140463 0.000000
C96   C     C_R   0.766607 0.194505 0.192445 0.000000
C97   C     C_R   0.740577 0.170328 0.219833 0.000000
C98   C     C_R   0.684009 0.179021 0.193701 0.000000
N18   N     N_R   0.651963 0.157168 0.211732 0.000000
C99   C     C_2   0.827710 0.184239 0.217272 0.000000
O17   O     O_2   0.849449 0.208425 0.195968 0.000000
O18   O     O_2   0.860300 0.147439 0.262472 0.000000
H89   H     H_    0.525899 0.139695 0.120055 0.000000
H90   H     H_    0.548991 0.107913 0.189437 0.000000
H91   H     H_    0.526705 0.161166 0.151508 0.000000
H92   H     H_    0.632659 0.108389 0.201946 0.000000
H93   H     H_    0.662225 0.135446 0.136946 0.000000
H94   H     H_    0.612002 0.111738 0.127620 0.000000
H95   H     H_    0.591068 0.166069 0.086756 0.000000
H96   H     H_    0.655955 0.258501 0.073135 0.000000
H97   H     H_    0.755087 0.246874 0.119242 0.000000
H98   H     H_    0.764587 0.143441 0.259348 0.000000
H99   H     H_    0.900515 0.140663 0.278368 0.000000
C100  C     C_3   0.494285 0.223661 0.208373 0.000000
C101  C     C_3   0.557281 0.215397 0.229939 0.000000
C102  C     C_3   0.573445 0.248135 0.225797 0.000000
C103  C     C_R   0.581933 0.184147 0.283070 0.000000
N19   N     N_R   0.565288 0.185302 0.314937 0.000000
C104  C     C_R   0.582635 0.145213 0.353851 0.000000
C105  C     C_R   0.576512 0.124812 0.397500 0.000000
C106  C     C_R   0.600203 0.083458 0.431807 0.000000
C107  C     C_R   0.632409 0.063525 0.423944 0.000000
C108  C     C_R   0.636030 0.083345 0.379589 0.000000
C109  C     C_R   0.611625 0.123765 0.346129 0.000000
N20   N     N_R   0.613775 0.147361 0.302650 0.000000
C110  C     C_2   0.672290 0.024125 0.465677 0.000000
O19   O     O_2   0.700312 0.017286 0.505991 0.000000
O20   O     O_2   0.684871 0.998394 0.457283 0.000000
H100  H     H_    0.480877 0.217967 0.236269 0.000000
H101  H     H_    0.469274 0.254547 0.173401 0.000000
H102  H     H_    0.482233 0.203755 0.199731 0.000000
H103  H     H_    0.581296 0.203770 0.218804 0.000000
H104  H     H_    0.619469 0.238398 0.240857 0.000000
H105  H     H_    0.555426 0.276704 0.187908 0.000000
H106  H     H_    0.559237 0.251563 0.248938 0.000000
H107  H     H_    0.562677 0.139360 0.409742 0.000000
H108  H     H_    0.598785 0.067181 0.467525 0.000000
H109  H     H_    0.661352 0.067915 0.373757 0.000000
H110  H     H_    0.712957 0.972093 0.484210 0.000000
C111  C     C_3   0.406513 0.996878 0.544865 0.000000
C112  C     C_3   0.410806 0.029877 0.497536 0.000000
C113  C     C_3   0.380480 0.070745 0.478348 0.000000
C114  C     C_R   0.470275 0.022547 0.507014 0.000000
N21   N     N_R   0.504972 0.043012 0.516697 0.000000
C115  C     C_R   0.553652 0.021827 0.527230 0.000000
C116  C     C_R   0.605740 0.015181 0.558971 0.000000
C117  C     C_R   0.650571 0.989280 0.569789 0.000000
C118  C     C_R   0.644201 0.966698 0.553561 0.000000
C119  C     C_R   0.591481 0.968135 0.530700 0.000000
C120  C     C_R   0.547430 0.994688 0.519143 0.000000
N22   N     N_R   0.496549 0.991964 0.509046 0.000000
C121  C     C_2   0.691849 0.936376 0.568226 0.000000
O21   O     O_2   0.738906 0.928224 0.598598 0.000000
O22   O     O_2   0.684193 0.918366 0.546738 0.000000
H111  H     H_    0.427001 0.997775 0.576703 0.000000
H112  H     H_    0.361879 0.000396 0.535499 0.000000
H113  H     H_    0.427868 0.967071 0.558125 0.000000
H114  H     H_    0.388099 0.029405 0.465898 0.000000
H115  H     H_    0.348340 0.087861 0.437912 0.000000
H116  H     H_    0.361501 0.067026 0.502686 0.000000
H117  H     H_    0.407833 0.088209 0.478947 0.000000
H118  H     H_    0.612061 0.023851 0.582113 0.000000
H119  H     H_    0.689901 0.985020 0.594077 0.000000
H120  H     H_    0.585452 0.945952 0.527433 0.000000
H121  H     H_    0.716347 0.899912 0.555053 0.000000
C122  C     C_3   0.451729 0.809301 0.613711 0.000000
C123  C     C_3   0.471099 0.844741 0.588001 0.000000
C124  C     C_3   0.475897 0.850348 0.543336 0.000000
C125  C     C_R   0.429273 0.881568 0.568017 0.000000
N23   N     N_R   0.428227 0.919369 0.530371 0.000000
C126  C     C_R   0.374329 0.941684 0.507292 0.000000
C127  C     C_R   0.346320 0.979258 0.460153 0.000000
C128  C     C_R   0.288853 0.994787 0.438648 0.000000
C129  C     C_R   0.260367 0.972644 0.464503 0.000000
C130  C     C_R   0.289728 0.935304 0.512929 0.000000
C131  C     C_R   0.346691 0.919574 0.533114 0.000000
N24   N     N_R   0.381026 0.881086 0.574245 0.000000
C132  C     C_2   0.198816 0.987396 0.439018 0.000000
O23   O     O_2   0.172552 0.018092 0.394405 0.000000
O24   O     O_2   0.171009 0.967153 0.464686 0.000000
H122  H     H_    0.486545 0.781327 0.635645 0.000000
H123  H     H_    0.439972 0.807169 0.641483 0.000000
H124  H     H_    0.415267 0.812395 0.584003 0.000000
H125  H     H_    0.512526 0.839217 0.615325 0.000000
H126  H     H_    0.485250 0.878131 0.520702 0.000000
H127  H     H_    0.510846 0.825328 0.557608 0.000000
H128  H     H_    0.436444 0.851789 0.517745 0.000000
H129  H     H_    0.367899 0.995154 0.438541 0.000000
H130  H     H_    0.266328 0.023726 0.400641 0.000000
H131  H     H_    0.267526 0.917583 0.531515 0.000000
H132  H     H_    0.130550 0.977072 0.447797 0.000000
C133  C     C_3   0.625618 0.910399 0.646470 0.000000
C134  C     C_3   0.594038 0.882756 0.649615 0.000000
C135  C     C_3   0.533072 0.905915 0.624064 0.000000
C136  C     C_R   0.603615 0.867390 0.624335 0.000000
N25   N     N_R   0.570620 0.887587 0.572130 0.000000
C137  C     C_R   0.603458 0.869422 0.563972 0.000000
C138  C     C_R   0.597297 0.881226 0.517919 0.000000
C139  C     C_R   0.642397 0.865042 0.516865 0.000000
C140  C     C_R   0.690271 0.834819 0.561496 0.000000
C141  C     C_R   0.693332 0.820350 0.608328 0.000000
C142  C     C_R   0.651203 0.839930 0.608270 0.000000
N26   N     N_R   0.652617 0.836306 0.648556 0.000000
C143  C     C_2   0.736795 0.818682 0.558137 0.000000
O25   O     O_2   0.738576 0.837090 0.517402 0.000000
O26   O     O_2   0.775710 0.782337 0.598921 0.000000
H133  H     H_    0.596950 0.941385 0.616988 0.000000
H134  H     H_    0.638504 0.907956 0.680245 0.000000
H135  H     H_    0.663089 0.902405 0.643661 0.000000
H136  H     H_    0.612341 0.856635 0.689800 0.000000
H137  H     H_    0.508841 0.886468 0.626403 0.000000
H138  H     H_    0.524287 0.920208 0.639756 0.000000
H139  H     H_    0.518603 0.929482 0.583872 0.000000
H140  H     H_    0.559898 0.904354 0.483454 0.000000
H141  H     H_    0.640472 0.875874 0.480823 0.000000
H142  H     H_    0.728058 0.795673 0.643776 0.000000
H143  H     H_    0.803651 0.770915 0.594937 0.000000
C144  C     C_3   0.482839 0.616436 0.981288 0.000000
C145  C     C_3   0.485544 0.573216 0.012625 0.000000
C146  C     C_3   0.440107 0.570924 0.975924 0.000000
C147  C     C_R   0.546431 0.549040 0.042863 0.000000
N27   N     N_R   0.570507 0.512080 0.056877 0.000000
C148  C     C_R   0.624920 0.504452 0.083364 0.000000
C149  C     C_R   0.667877 0.475989 0.096702 0.000000
C150  C     C_R   0.722489 0.472102 0.120686 0.000000
C151  C     C_R   0.733229 0.496740 0.133101 0.000000
C152  C     C_R   0.688848 0.524160 0.121436 0.000000
C153  C     C_R   0.633904 0.531397 0.090485 0.000000
N28   N     N_R   0.584695 0.561915 0.063731 0.000000
C154  C     C_2   0.791011 0.495146 0.156467 0.000000
O27   O     O_2   0.829582 0.472251 0.164109 0.000000
O28   O     O_2   0.801616 0.519652 0.168324 0.000000
H144  H     H_    0.512455 0.620085 0.965135 0.000000
H145  H     H_    0.440587 0.635673 0.948847 0.000000
H146  H     H_    0.493666 0.626178 0.004630 0.000000
H147  H     H_    0.472742 0.562345 0.042230 0.000000
H148  H     H_    0.399469 0.585039 0.970126 0.000000
H149  H     H_    0.438350 0.589327 0.937703 0.000000
H150  H     H_    0.441225 0.540245 0.991433 0.000000
H151  H     H_    0.658003 0.458918 0.084967 0.000000
H152  H     H_    0.755901 0.450161 0.129134 0.000000
H153  H     H_    0.700092 0.540092 0.134919 0.000000
H154  H     H_    0.839274 0.519873 0.181536 0.000000
C155  C     C_3   0.092207 0.153928 0.688786 0.000000
C156  C     C_3   0.115807 0.109568 0.716864 0.000000
C157  C     C_3   0.121846 0.097562 0.686077 0.000000
C158  C     C_R   0.169600 0.102680 0.747471 0.000000
N29   N     N_R   0.196954 0.127287 0.723469 0.000000
C159  C     C_R   0.241887 0.116968 0.764081 0.000000
C160  C     C_R   0.287081 0.128177 0.762067 0.000000
C161  C     C_R   0.329922 0.116684 0.806435 0.000000
C162  C     C_R   0.325378 0.094930 0.851390 0.000000
C163  C     C_R   0.280504 0.080459 0.853471 0.000000
C164  C     C_R   0.239278 0.090272 0.809079 0.000000
N30   N     N_R   0.192628 0.079070 0.800298 0.000000
C165  C     C_2   0.367058 0.090300 0.894889 0.000000
O29   O     O_2   0.411193 0.095490 0.895854 0.000000
O30   O     O_2   0.353478 0.086909 0.929380 0.000000
H155  H     H_    0.111749 0.174609 0.667646 0.000000
H156  H     H_    0.052127 0.163887 0.659514 0.000000
H157  H     H_    0.091455 0.158425 0.716366 0.000000
H158  H     H_    0.097914 0.091023 0.741775 0.000000
H159  H     H_    0.152899 0.066698 0.713560 0.000000
H160  H     H_    0.082982 0.096848 0.664372 0.000000
H161  H     H_    0.136987 0.117936 0.659551 0.000000
H162  H     H_    0.288337 0.145626 0.725905 0.000000
H163  H     H_    0.365134 0.127005 0.804702 0.000000
H164  H     H_    0.278359 0.061905 0.888672 0.000000
H165  H     H_    0.375807 0.093221 0.950165 0.000000
C166  C     C_3   0.029589 0.145712 0.803693 0.000000
C167  C     C_3   0.045730 0.101818 0.843102 0.000000
C168  C     C_3   0.013457 0.093504 0.873315 0.000000
C169  C     C_R   0.031171 0.084640 0.816299 0.000000
N31   N     N_R   0.975919 0.094222 0.782373 0.000000
C170  C     C_R   0.983630 0.069274 0.772720 0.000000
C171  C     C_R   0.943236 0.072186 0.735272 0.000000
C172  C     C_R   0.959093 0.054854 0.717934 0.000000
C173  C     C_R   0.011975 0.029626 0.742340 0.000000
C174  C     C_R   0.054123 0.030890 0.775740 0.000000
C175  C     C_R   0.038962 0.049953 0.792708 0.000000
N32   N     N_R   0.071987 0.058722 0.821245 0.000000
C176  C     C_2   0.021841 0.006277 0.726831 0.000000
O31   O     O_2   0.038107 0.969607 0.757617 0.000000
O32   O     O_2   0.002090 0.024735 0.676790 0.000000
H166  H     H_    0.985739 0.155421 0.777921 0.000000
H167  H     H_    0.033831 0.159492 0.822240 0.000000
H168  H     H_    0.055136 0.151961 0.783302 0.000000
H169  H     H_    0.091193 0.089952 0.868208 0.000000
H170  H     H_    0.011713 0.062561 0.891540 0.000000
H171  H     H_    0.034383 0.096758 0.903122 0.000000
H172  H     H_    0.970074 0.115194 0.847527 0.000000
H173  H     H_    0.901377 0.091518 0.714922 0.000000
H174  H     H_    0.930415 0.064337 0.682136 0.000000
H175  H     H_    0.094511 0.024197 0.778695 0.000000
H176  H     H_    0.006068 0.009092 0.665929 0.000000
C177  C     C_3   0.387311 0.258427 0.024923 0.000000
C178  C     C_3   0.419693 0.214265 0.062130 0.000000
C179  C     C_3   0.394880 0.191010 0.096326 0.000000
C180  C     C_R   0.442850 0.199776 0.040067 0.000000
N33   N     N_R   0.424913 0.174977 0.028136 0.000000
C181  C     C_R   0.450136 0.179618 0.999473 0.000000
C182  C     C_R   0.439309 0.169452 0.968000 0.000000
C183  C     C_R   0.477319 0.169557 0.950046 0.000000
C184  C     C_R   0.523447 0.181070 0.962575 0.000000
C185  C     C_R   0.527217 0.198116 0.986449 0.000000
C186  C     C_R   0.488098 0.198842 0.002383 0.000000
N34   N     N_R   0.484628 0.213252 0.026954 0.000000
C187  C     C_2   0.570628 0.171841 0.955050 0.000000
O33   O     O_2   0.568072 0.156760 0.934179 0.000000
O34   O     O_2   0.618911 0.176512 0.975503 0.000000
H177  H     H_    0.394109 0.272118 0.990882 0.000000
H178  H     H_    0.343118 0.263083 0.015279 0.000000
H179  H     H_    0.399399 0.273547 0.041471 0.000000
H180  H     H_    0.456696 0.209402 0.089909 0.000000
H181  H     H_    0.419944 0.159661 0.119490 0.000000
H182  H     H_    0.400757 0.199772 0.120962 0.000000
H183  H     H_    0.349609 0.198016 0.076963 0.000000
H184  H     H_    0.405437 0.158001 0.961587 0.000000
H185  H     H_    0.473223 0.157220 0.930192 0.000000
H186  H     H_    0.561667 0.208182 0.995275 0.000000
H187  H     H_    0.651431 0.168002 0.973685 0.000000
C188  C     C_3   0.305631 0.262644 0.935507 0.000000
C189  C     C_3   0.289341 0.230876 0.973034 0.000000
C190  C     C_3   0.244979 0.246920 0.979562 0.000000
C191  C     C_R   0.266973 0.210535 0.954043 0.000000
N35   N     N_R   0.221590 0.229618 0.906501 0.000000
C192  C     C_R   0.223900 0.200534 0.902939 0.000000
C193  C     C_R   0.195783 0.207217 0.858605 0.000000
C194  C     C_R   0.204059 0.176020 0.857636 0.000000
C195  C     C_R   0.239950 0.139134 0.902308 0.000000
C196  C     C_R   0.276735 0.134956 0.944183 0.000000
C197  C     C_R   0.267036 0.166322 0.944762 0.000000
N36   N     N_R   0.296175 0.171230 0.979405 0.000000
C198  C     C_2   0.232680 0.104379 0.906946 0.000000
O35   O     O_2   0.263309 0.071149 0.946723 0.000000
O36   O     O_2   0.188694 0.108962 0.869408 0.000000
H188  H     H_    0.282064 0.269092 0.899348 0.000000
H189  H     H_    0.296065 0.290562 0.930314 0.000000
H190  H     H_    0.349996 0.250911 0.946480 0.000000
H191  H     H_    0.326327 0.207714 0.009192 0.000000
H192  H     H_    0.226683 0.223664 0.998467 0.000000
H193  H     H_    0.262097 0.256376 0.003026 0.000000
H194  H     H_    0.211514 0.271570 0.940814 0.000000
H195  H     H_    0.166407 0.236346 0.827014 0.000000
H196  H     H_    0.179146 0.179191 0.824000 0.000000
H197  H     H_    0.309566 0.107739 0.974615 0.000000
H198  H     H_    0.181705 0.086171 0.872084 0.000000
C199  C     C_3   0.809449 0.231698 0.354010 0.000000
C200  C     C_3   0.841087 0.249106 0.377043 0.000000
C201  C     C_3   0.868483 0.276605 0.346645 0.000000
C202  C     C_R   0.814573 0.265404 0.396184 0.000000
N37   N     N_R   0.765214 0.298487 0.369114 0.000000
C203  C     C_R   0.774470 0.302961 0.405147 0.000000
C204  C     C_R   0.739286 0.326710 0.405388 0.000000
C205  C     C_R   0.763233 0.338019 0.434526 0.000000
C206  C     C_R   0.819230 0.317760 0.469960 0.000000
C207  C     C_R   0.846618 0.282504 0.482772 0.000000
C208  C     C_R   0.824040 0.277515 0.447225 0.000000
N38   N     N_R   0.848301 0.250748 0.445889 0.000000
C209  C     C_2   0.852215 0.336329 0.486850 0.000000
O37   O     O_2   0.846210 0.371751 0.456224 0.000000
O38   O     O_2   0.891961 0.313576 0.535626 0.000000
H199  H     H_    0.782529 0.254711 0.312525 0.000000
H200  H     H_    0.840223 0.208959 0.359749 0.000000
H201  H     H_    0.786825 0.215902 0.375520 0.000000
H202  H     H_    0.875467 0.221612 0.412527 0.000000
H203  H     H_    0.856483 0.306145 0.338021 0.000000
H204  H     H_    0.914296 0.263664 0.367518 0.000000
H205  H     H_    0.857980 0.279839 0.311736 0.000000
H206  H     H_    0.695543 0.336174 0.383508 0.000000
H207  H     H_    0.739103 0.363531 0.427532 0.000000
H208  H     H_    0.888580 0.264138 0.512730 0.000000
H209  H     H_    0.910419 0.325397 0.550114 0.000000
C210  C     C_3   0.676100 0.294552 0.273161 0.000000
C211  C     C_3   0.643327 0.270310 0.291484 0.000000
C212  C     C_3   0.677483 0.227361 0.329880 0.000000
C213  C     C_R   0.614260 0.281545 0.311431 0.000000
N39   N     N_R   0.624579 0.309000 0.319804 0.000000
C214  C     C_R   0.586202 0.310055 0.336066 0.000000
C215  C     C_R   0.582472 0.324125 0.361218 0.000000
C216  C     C_R   0.536858 0.324855 0.370560 0.000000
C217  C     C_R   0.495667 0.311065 0.354949 0.000000
C218  C     C_R   0.503976 0.291941 0.335678 0.000000
C219  C     C_R   0.551847 0.289243 0.330811 0.000000
N40   N     N_R   0.569683 0.268580 0.317972 0.000000
C220  C     C_2   0.445470 0.314600 0.361607 0.000000
O39   O     O_2   0.438901 0.330637 0.379777 0.000000
O40   O     O_2   0.406291 0.300277 0.347497 0.000000
H210  H     H_    0.707927 0.292910 0.303902 0.000000
H211  H     H_    0.693405 0.285420 0.255487 0.000000
H212  H     H_    0.642517 0.323414 0.241567 0.000000
H213  H     H_    0.613383 0.280751 0.255309 0.000000
H214  H     H_    0.698091 0.222487 0.365910 0.000000
H215  H     H_    0.650128 0.209285 0.331306 0.000000
H216  H     H_    0.708693 0.221525 0.319721 0.000000
H217  H     H_    0.614409 0.334084 0.373794 0.000000
H218  H     H_    0.533403 0.336915 0.389570 0.000000
H219  H     H_    0.474641 0.278755 0.325618 0.000000
H220  H     H_    0.373364 0.302538 0.352045 0.000000
C221  C     C_3   0.561231 0.394030 0.216593 0.000000
C222  C     C_3   0.573202 0.425665 0.176058 0.000000
C223  C     C_3   0.579314 0.457957 0.180469 0.000000
C224  C     C_R   0.623643 0.407496 0.179749 0.000000
N41   N     N_R   0.670572 0.377012 0.225741 0.000000
C225  C     C_R   0.700118 0.366574 0.208286 0.000000
C226  C     C_R   0.750606 0.337564 0.236294 0.000000
C227  C     C_R   0.766690 0.323599 0.213863 0.000000
C228  C     C_R   0.730703 0.338161 0.164519 0.000000
C229  C     C_R   0.680989 0.369476 0.135861 0.000000
C230  C     C_R   0.669071 0.385127 0.157473 0.000000
N42   N     N_R   0.622182 0.413965 0.136901 0.000000
C231  C     C_2   0.744697 0.320050 0.143113 0.000000
O41   O     O_2   0.789699 0.293729 0.167211 0.000000
O42   O     O_2   0.707236 0.331646 0.097316 0.000000
H221  H     H_    0.594996 0.382771 0.253079 0.000000
H222  H     H_    0.520254 0.406964 0.211300 0.000000
H223  H     H_    0.562751 0.368724 0.215876 0.000000
H224  H     H_    0.540157 0.438014 0.138812 0.000000
H225  H     H_    0.566481 0.486441 0.141929 0.000000
H226  H     H_    0.552754 0.461321 0.196530 0.000000
H227  H     H_    0.623798 0.449683 0.205225 0.000000
H228  H     H_    0.773292 0.324604 0.275593 0.000000
H229  H     H_    0.805366 0.299179 0.235964 0.000000
H230  H     H_    0.652812 0.382039 0.097110 0.000000
H231  H     H_    0.716065 0.318958 0.083948 0.000000
C232  C     C_3   0.996042 0.129380 0.496627 0.000000
C233  C     C_3   0.979200 0.101391 0.537060 0.000000
C234  C     C_3   0.989719 0.103190 0.579515 0.000000
C235  C     C_R   0.921346 0.119107 0.510949 0.000000
N43   N     N_R   0.895106 0.152361 0.504865 0.000000
C236  C     C_R   0.842586 0.154011 0.485927 0.000000
C237  C     C_R   0.798516 0.177882 0.478202 0.000000
C238  C     C_R   0.747627 0.173759 0.461522 0.000000
C239  C     C_R   0.743704 0.146630 0.451821 0.000000
C240  C     C_R   0.789857 0.121164 0.463201 0.000000
C241  C     C_R   0.838560 0.124999 0.480575 0.000000
N44   N     N_R   0.888161 0.100256 0.498215 0.000000
C242  C     C_2   0.691191 0.143751 0.430256 0.000000
O43   O     O_2   0.648162 0.168417 0.413637 0.000000
O44   O     O_2   0.689695 0.114235 0.426993 0.000000
H232  H     H_    0.959669 0.157098 0.463483 0.000000
H233  H     H_    0.031363 0.136769 0.512038 0.000000
H234  H     H_    0.007930 0.115042 0.481924 0.000000
H235  H     H_    0.991092 0.070089 0.550794 0.000000
H236  H     H_    0.955122 0.097186 0.589399 0.000000
H237  H     H_    0.024475 0.079065 0.616318 0.000000
H238  H     H_    0.993471 0.132596 0.566242 0.000000
H239  H     H_    0.804388 0.198276 0.485966 0.000000
H240  H     H_    0.711315 0.192480 0.454579 0.000000
H241  H     H_    0.790593 0.098648 0.458605 0.000000
H242  H     H_    0.717769 0.088012 0.449585 0.000000
C243  C     C_3   0.573934 0.375696 0.951948 0.000000
C244  C     C_3   0.602042 0.406674 0.933274 0.000000
C245  C     C_3   0.663970 0.385689 0.956555 0.000000
C246  C     C_R   0.575629 0.434941 0.875981 0.000000
N45   N     N_R   0.568706 0.422223 0.846021 0.000000
C247  C     C_R   0.552453 0.458042 0.800883 0.000000
C248  C     C_R   0.559957 0.463732 0.763005 0.000000
C249  C     C_R   0.536090 0.502182 0.717677 0.000000
C250  C     C_R   0.512747 0.533439 0.714335 0.000000
C251  C     C_R   0.522073 0.527863 0.757912 0.000000
C252  C     C_R   0.542175 0.489285 0.800984 0.000000
N46   N     N_R   0.560382 0.477106 0.848057 0.000000
C253  C     C_2   0.478301 0.571918 0.665373 0.000000
O45   O     O_2   0.464530 0.576188 0.626187 0.000000
O46   O     O_2   0.459199 0.602393 0.663763 0.000000
H243  H     H_    0.588986 0.353211 0.949101 0.000000
H244  H     H_    0.586101 0.360098 0.992854 0.000000
H245  H     H_    0.527939 0.390259 0.928077 0.000000
H246  H     H_    0.596823 0.424230 0.946167 0.000000
H247  H     H_    0.681321 0.407037 0.932857 0.000000
H248  H     H_    0.685561 0.375792 0.996008 0.000000
H249  H     H_    0.671493 0.358889 0.958547 0.000000
H250  H     H_    0.574433 0.437796 0.767091 0.000000
H251  H     H_    0.528915 0.506595 0.684123 0.000000
H252  H     H_    0.512638 0.552398 0.757836 0.000000
H253  H     H_    0.436605 0.628231 0.631485 0.000000
C254  C     C_3   0.665026 0.493237 0.828899 0.000000
C255  C     C_3   0.695810 0.520230 0.830865 0.000000
C256  C     C_3   0.739656 0.517494 0.816170 0.000000
C257  C     C_R   0.656089 0.560983 0.803087 0.000000
N47   N     N_R   0.678824 0.592071 0.789591 0.000000
C258  C     C_R   0.677485 0.598565 0.822050 0.000000
C259  C     C_R   0.713817 0.612606 0.841452 0.000000
C260  C     C_R   0.721197 0.604324 0.886785 0.000000
C261  C     C_R   0.691724 0.583146 0.911579 0.000000
C262  C     C_R   0.653262 0.570802 0.890305 0.000000
C263  C     C_R   0.647027 0.578311 0.845710 0.000000
N48   N     N_R   0.625771 0.558372 0.828731 0.000000
C264  C     C_2   0.706088 0.570359 0.962899 0.000000
O47   O     O_2   0.747281 0.574539 0.985366 0.000000
O48   O     O_2   0.675397 0.552674 0.986339 0.000000
H254  H     H_    0.631530 0.499225 0.835724 0.000000
H255  H     H_    0.647571 0.500691 0.790895 0.000000
H256  H     H_    0.691143 0.461161 0.860115 0.000000
H257  H     H_    0.718936 0.507741 0.871381 0.000000
H258  H     H_    0.780565 0.507540 0.847908 0.000000
H259  H     H_    0.740479 0.492267 0.816051 0.000000
H260  H     H_    0.730159 0.544719 0.778103 0.000000
H261  H     H_    0.740244 0.626371 0.825070 0.000000
H262  H     H_    0.752916 0.612235 0.904595 0.000000
H263  H     H_    0.634131 0.551645 0.911511 0.000000
H264  H     H_    0.684802 0.545231 0.019659 0.000000
C265  C     C_3   0.619038 0.713420 0.740999 0.000000
C266  C     C_3   0.637781 0.721066 0.702320 0.000000
C267  C     C_3   0.606485 0.763515 0.653520 0.000000
C268  C     C_R   0.699591 0.711670 0.722518 0.000000
N49   N     N_R   0.730503 0.734577 0.730661 0.000000
C269  C     C_R   0.783096 0.710567 0.753130 0.000000
C270  C     C_R   0.830929 0.714670 0.777370 0.000000
C271  C     C_R   0.881872 0.686906 0.800144 0.000000
C272  C     C_R   0.884240 0.655405 0.798243 0.000000
C273  C     C_R   0.835123 0.650411 0.776207 0.000000
C274  C     C_R   0.784207 0.677211 0.755937 0.000000
N50   N     N_R   0.731540 0.676091 0.737344 0.000000
C275  C     C_2   0.938998 0.626972 0.820724 0.000000
O49   O     O_2   0.981895 0.631652 0.839839 0.000000
O50   O     O_2   0.942401 0.595252 0.821172 0.000000
H265  H     H_    0.635698 0.681167 0.774150 0.000000
H266  H     H_    0.633472 0.730840 0.753630 0.000000
H267  H     H_    0.573043 0.722218 0.723216 0.000000
H268  H     H_    0.626419 0.700459 0.694039 0.000000
H269  H     H_    0.630184 0.772708 0.631629 0.000000
H270  H     H_    0.566207 0.763989 0.630879 0.000000
H271  H     H_    0.599629 0.783944 0.662170 0.000000
H272  H     H_    0.828611 0.738598 0.779731 0.000000
H273  H     H_    0.919546 0.690536 0.818649 0.000000
H274  H     H_    0.837583 0.627240 0.773176 0.000000
H275  H     H_    0.978738 0.575987 0.837895 0.000000
C276  C     C_3   0.479684 0.683104 0.706816 0.000000
C277  C     C_3   0.505576 0.639513 0.753678 0.000000
C278  C     C_3   0.514160 0.636642 0.799870 0.000000
C279  C     C_R   0.469499 0.615576 0.748837 0.000000
N51   N     N_R   0.411985 0.635816 0.715965 0.000000
C280  C     C_R   0.391711 0.613797 0.748418 0.000000
C281  C     C_R   0.337773 0.624436 0.739293 0.000000
C282  C     C_R   0.325803 0.601716 0.779247 0.000000
C283  C     C_R   0.365847 0.566350 0.825712 0.000000
C284  C     C_R   0.418742 0.552700 0.831727 0.000000
C285  C     C_R   0.432275 0.578760 0.793605 0.000000
N52   N     N_R   0.483033 0.577213 0.794371 0.000000
C286  C     C_2   0.351490 0.545848 0.868195 0.000000
O51   O     O_2   0.311095 0.563459 0.865097 0.000000
O52   O     O_2   0.383306 0.508230 0.911296 0.000000
H276  H     H_    0.455605 0.700945 0.711956 0.000000
H277  H     H_    0.513945 0.694627 0.701163 0.000000
H278  H     H_    0.452351 0.685951 0.673056 0.000000
H279  H     H_    0.547486 0.627462 0.760638 0.000000
H280  H     H_    0.542502 0.606112 0.834465 0.000000
H281  H     H_    0.533664 0.658850 0.799387 0.000000
H282  H     H_    0.474318 0.641362 0.801177 0.000000
H283  H     H_    0.306727 0.651717 0.703495 0.000000
H284  H     H_    0.285023 0.612346 0.774031 0.000000
H285  H     H_    0.449261 0.523770 0.865835 0.000000
H286  H     H_    0.374866 0.495827 0.939738 0.000000
C287  C     C_3   0.271267 0.735556 0.677012 0.000000
C288  C     C_3   0.328747 0.739798 0.690581 0.000000
C289  C     C_3   0.372770 0.701316 0.740389 0.000000
C290  C     C_R   0.343551 0.754656 0.648567 0.000000
N53   N     N_R   0.330771 0.739445 0.622105 0.000000
C291  C     C_R   0.308214 0.773411 0.573073 0.000000
C292  C     C_R   0.276085 0.777620 0.530053 0.000000
C293  C     C_R   0.245097 0.816144 0.484255 0.000000
C294  C     C_R   0.248485 0.849580 0.481676 0.000000
C295  C     C_R   0.284884 0.844534 0.524802 0.000000
C296  C     C_R   0.312753 0.806098 0.570619 0.000000
N54   N     N_R   0.338273 0.795268 0.618181 0.000000
C297  C     C_2   0.211812 0.890125 0.433740 0.000000
O53   O     O_2   0.214192 0.919615 0.431155 0.000000
O54   O     O_2   0.175293 0.895009 0.392343 0.000000
H287  H     H_    0.271007 0.710935 0.674989 0.000000
H288  H     H_    0.259016 0.729141 0.706690 0.000000
H289  H     H_    0.240180 0.764136 0.639355 0.000000
H290  H     H_    0.323906 0.764196 0.692295 0.000000
H291  H     H_    0.410830 0.707692 0.754634 0.000000
H292  H     H_    0.357218 0.686694 0.769201 0.000000
H293  H     H_    0.383049 0.681290 0.732516 0.000000
H294  H     H_    0.271335 0.751857 0.532332 0.000000
H295  H     H_    0.216931 0.819778 0.450918 0.000000
H296  H     H_    0.287007 0.869735 0.524014 0.000000
H297  H     H_    0.151349 0.921777 0.360845 0.000000
C298  C     C_3   0.483994 0.527514 0.943210 0.000000
C299  C     C_3   0.524912 0.541046 0.924748 0.000000
C300  C     C_3   0.546524 0.568272 0.935793 0.000000
C301  C     C_R   0.569294 0.503983 0.951072 0.000000
N55   N     N_R   0.599829 0.475028 0.004053 0.000000
C302  C     C_R   0.648052 0.457329 0.008492 0.000000
C303  C     C_R   0.701394 0.432903 0.049986 0.000000
C304  C     C_R   0.744253 0.420980 0.043518 0.000000
C305  C     C_R   0.735956 0.434316 0.995722 0.000000
C306  C     C_R   0.684036 0.460864 0.953856 0.000000
C307  C     C_R   0.641643 0.472017 0.961112 0.000000
N56   N     N_R   0.591374 0.500603 0.924059 0.000000
C308  C     C_2   0.782605 0.420815 0.990239 0.000000
O55   O     O_2   0.828631 0.398911 0.027570 0.000000
O56   O     O_2   0.774948 0.431900 0.944466 0.000000
H298  H     H_    0.502120 0.517982 0.981895 0.000000
H299  H     H_    0.443394 0.552058 0.916352 0.000000
H300  H     H_    0.481213 0.500689 0.946255 0.000000
H301  H     H_    0.506865 0.557928 0.883244 0.000000
H302  H     H_    0.568474 0.584036 0.913509 0.000000
H303  H     H_    0.511341 0.591969 0.923734 0.000000
H304  H     H_    0.576714 0.550626 0.976465 0.000000
H305  H     H_    0.714135 0.423515 0.087510 0.000000
H306  H     H_    0.784944 0.401523 0.076736 0.000000
H307  H     H_    0.676329 0.472695 0.916271 0.000000
H308  H     H_    0.805742 0.422768 0.941221 0.000000
C309  C     C_3   0.553170 0.372069 0.060870 0.000000
C310  C     C_3   0.517883 0.415111 0.019544 0.000000
C311  C     C_3   0.488378 0.425118 0.967774 0.000000
C312  C     C_R   0.480469 0.428136 0.034006 0.000000
N57   N     N_R   0.436734 0.414980 0.042652 0.000000
C313  C     C_R   0.419882 0.435689 0.056268 0.000000
C314  C     C_R   0.379851 0.432041 0.072660 0.000000
C315  C     C_R   0.368956 0.455299 0.086177 0.000000
C316  C     C_R   0.401633 0.478768 0.087739 0.000000
C317  C     C_R   0.443609 0.480487 0.073293 0.000000
C318  C     C_R   0.451656 0.459078 0.056756 0.000000
N58   N     N_R   0.492440 0.453561 0.044976 0.000000
C319  C     C_2   0.394255 0.499422 0.108142 0.000000
O57   O     O_2   0.355336 0.500104 0.117879 0.000000
O58   O     O_2   0.431751 0.516218 0.118321 0.000000
H309  H     H_    0.525063 0.354843 0.064410 0.000000
H310  H     H_    0.584199 0.363552 0.051841 0.000000
H311  H     H_    0.575163 0.366929 0.097285 0.000000
H312  H     H_    0.547123 0.431646 0.017101 0.000000
H313  H     H_    0.509614 0.441696 0.944682 0.000000
H314  H     H_    0.490419 0.397035 0.972871 0.000000
H315  H     H_    0.444775 0.444687 0.947128 0.000000
H316  H     H_    0.356718 0.411993 0.074163 0.000000
H317  H     H_    0.337044 0.452964 0.098464 0.000000
H318  H     H_    0.470741 0.497062 0.076718 0.000000
H319  H     H_    0.428188 0.528110 0.134010 0.000000
C320  C     C_3   0.641302 0.708241 0.219724 0.000000
C321  C     C_3   0.655403 0.676195 0.274841 0.000000
C322  C     C_3   0.712254 0.673005 0.306887 0.000000
C323  C     C_R   0.614648 0.681242 0.292988 0.000000
N59   N     N_R   0.620167 0.701214 0.313344 0.000000
C324  C     C_R   0.582895 0.692856 0.332192 0.000000
C325  C     C_R   0.577033 0.695600 0.366984 0.000000
C326  C     C_R   0.530445 0.689105 0.374667 0.000000
C327  C     C_R   0.489896 0.682750 0.345724 0.000000
C328  C     C_R   0.502484 0.673242 0.318530 0.000000
C329  C     C_R   0.552078 0.674992 0.317168 0.000000
N60   N     N_R   0.574337 0.662168 0.298443 0.000000
C330  C     C_2   0.433611 0.688927 0.341656 0.000000
O59   O     O_2   0.416444 0.711710 0.348042 0.000000
O60   O     O_2   0.399270 0.671654 0.328426 0.000000
H320  H     H_    0.668597 0.726168 0.216054 0.000000
H321  H     H_    0.652103 0.692217 0.206308 0.000000
H322  H     H_    0.597495 0.727564 0.196039 0.000000
H323  H     H_    0.657113 0.650376 0.275756 0.000000
H324  H     H_    0.728294 0.648304 0.348019 0.000000
H325  H     H_    0.741787 0.669872 0.293229 0.000000
H326  H     H_    0.708330 0.700568 0.302427 0.000000
H327  H     H_    0.603908 0.706367 0.383505 0.000000
H328  H     H_    0.522301 0.693001 0.399375 0.000000
H329  H     H_    0.473364 0.667125 0.296245 0.000000
H330  H     H_    0.412918 0.649769 0.329390 0.000000
C331  C     C_3   0.555532 0.782358 0.217098 0.000000
C332  C     C_3   0.567251 0.817754 0.181713 0.000000
C333  C     C_3   0.566358 0.850745 0.186047 0.000000
C334  C     C_R   0.619174 0.803989 0.188337 0.000000
N61   N     N_R   0.665100 0.776482 0.235789 0.000000
C335  C     C_R   0.704696 0.775632 0.220779 0.000000
C336  C     C_R   0.758920 0.749265 0.250773 0.000000
C337  C     C_R   0.793210 0.753925 0.228483 0.000000
C338  C     C_R   0.772435 0.783072 0.176019 0.000000
C339  C     C_R   0.715430 0.804725 0.144910 0.000000
C340  C     C_R   0.681535 0.800926 0.167587 0.000000
N62   N     N_R   0.625045 0.818511 0.145091 0.000000
C341  C     C_2   0.811485 0.790907 0.154192 0.000000
O61   O     O_2   0.859473 0.767624 0.180199 0.000000
O62   O     O_2   0.796007 0.825333 0.106865 0.000000
H331  H     H_    0.578223 0.773221 0.254803 0.000000
H332  H     H_    0.511929 0.787709 0.205677 0.000000
H333  H     H_    0.568524 0.758791 0.215632 0.000000
H334  H     H_    0.545578 0.828001 0.143621 0.000000
H335  H     H_    0.589564 0.869004 0.167249 0.000000
H336  H     H_    0.523009 0.870233 0.166220 0.000000
H337  H     H_    0.588211 0.838554 0.226130 0.000000
H338  H     H_    0.775580 0.724635 0.290810 0.000000
H339  H     H_    0.836705 0.734825 0.252876 0.000000
H340  H     H_    0.698890 0.823840 0.104237 0.000000
H341  H     H_    0.823482 0.831743 0.094617 0.000000
C342  C     C_3   0.716779 0.688284 0.445997 0.000000
C343  C     C_3   0.748995 0.654135 0.451937 0.000000
C344  C     C_3   0.710266 0.637301 0.432463 0.000000
C345  C     C_R   0.779532 0.669169 0.421610 0.000000
N63   N     N_R   0.752745 0.706418 0.372502 0.000000
C346  C     C_R   0.796630 0.719309 0.369493 0.000000
C347  C     C_R   0.794009 0.757814 0.333047 0.000000
C348  C     C_R   0.842963 0.766683 0.338984 0.000000
C349  C     C_R   0.893072 0.738220 0.382995 0.000000
C350  C     C_R   0.894301 0.700275 0.420809 0.000000
C351  C     C_R   0.846309 0.690460 0.412304 0.000000
N64   N     N_R   0.838043 0.656460 0.445665 0.000000
C352  C     C_2   0.944031 0.749157 0.390354 0.000000
O63   O     O_2   0.942725 0.782590 0.357292 0.000000
O64   O     O_2   0.992546 0.722374 0.433426 0.000000
H342  H     H_    0.685838 0.712309 0.405579 0.000000
H343  H     H_    0.695526 0.676572 0.470435 0.000000
H344  H     H_    0.746372 0.701004 0.458814 0.000000
H345  H     H_    0.778470 0.632921 0.492889 0.000000
H346  H     H_    0.731590 0.607484 0.446056 0.000000
H347  H     H_    0.674604 0.637388 0.440678 0.000000
H348  H     H_    0.696243 0.656430 0.391763 0.000000
H349  H     H_    0.754449 0.780970 0.300854 0.000000
H350  H     H_    0.841017 0.796737 0.310043 0.000000
H351  H     H_    0.931206 0.679819 0.456986 0.000000
H352  H     H_    0.026063 0.729605 0.437852 0.000000
C353  C     C_3   0.487003 0.778200 0.322728 0.000000
C354  C     C_3   0.513484 0.787963 0.288802 0.000000
C355  C     C_3   0.466402 0.816409 0.235422 0.000000
C356  C     C_R   0.563416 0.800161 0.303896 0.000000
N65   N     N_R   0.559170 0.826919 0.313972 0.000000
C357  C     C_R   0.612183 0.827064 0.330259 0.000000
C358  C     C_R   0.632731 0.846501 0.348534 0.000000
C359  C     C_R   0.689549 0.838524 0.371634 0.000000
C360  C     C_R   0.725609 0.809197 0.378452 0.000000
C361  C     C_R   0.703863 0.789933 0.359147 0.000000
C362  C     C_R   0.646954 0.800201 0.333472 0.000000
N66   N     N_R   0.618548 0.782282 0.316343 0.000000
C363  C     C_2   0.786300 0.797005 0.408801 0.000000
O65   O     O_2   0.805226 0.815955 0.422534 0.000000
O66   O     O_2   0.821301 0.764198 0.422999 0.000000
H353  H     H_    0.464875 0.806134 0.312681 0.000000
H354  H     H_    0.455484 0.764656 0.315449 0.000000
H355  H     H_    0.519659 0.757844 0.362679 0.000000
H356  H     H_    0.525788 0.762515 0.290891 0.000000
H357  H     H_    0.476379 0.840969 0.207557 0.000000
H358  H     H_    0.454058 0.797134 0.225752 0.000000
H359  H     H_    0.427985 0.825801 0.234893 0.000000
H360  H     H_    0.604669 0.866265 0.346409 0.000000
H361  H     H_    0.705311 0.853572 0.386995 0.000000
H362  H     H_    0.730604 0.765044 0.368236 0.000000
H363  H     H_    0.861122 0.756069 0.443532 0.000000
C364  C     C_3   0.545744 0.511285 0.351562 0.000000
C365  C     C_3   0.549025 0.531161 0.301494 0.000000
C366  C     C_3   0.492538 0.561923 0.256729 0.000000
C367  C     C_R   0.595520 0.548812 0.303017 0.000000
N67   N     N_R   0.593008 0.578475 0.308334 0.000000
C368  C     C_R   0.644247 0.580836 0.317492 0.000000
C369  C     C_R   0.676704 0.584912 0.352741 0.000000
C370  C     C_R   0.731526 0.581683 0.361407 0.000000
C371  C     C_R   0.749278 0.578575 0.331123 0.000000
C372  C     C_R   0.720815 0.564263 0.307185 0.000000
C373  C     C_R   0.670323 0.561840 0.306001 0.000000
N68   N     N_R   0.645675 0.536241 0.303500 0.000000
C374  C     C_2   0.796129 0.591409 0.323462 0.000000
O67   O     O_2   0.817519 0.607533 0.340814 0.000000
O68   O     O_2   0.812105 0.589420 0.292969 0.000000
H364  H     H_    0.545303 0.532003 0.360565 0.000000
H365  H     H_    0.507556 0.502694 0.348784 0.000000
H366  H     H_    0.582584 0.483801 0.383737 0.000000
H367  H     H_    0.555239 0.509523 0.295547 0.000000
H368  H     H_    0.490886 0.571346 0.220163 0.000000
H369  H     H_    0.459091 0.548624 0.261175 0.000000
H370  H     H_    0.485353 0.588200 0.255294 0.000000
H371  H     H_    0.659735 0.592437 0.370873 0.000000
H372  H     H_    0.758574 0.584860 0.388602 0.000000
H373  H     H_    0.738117 0.553844 0.292101 0.000000
H374  H     H_    0.840857 0.600332 0.285961 0.000000
C375  C     C_3   0.589213 0.586156 0.463463 0.000000
C376  C     C_3   0.585643 0.579469 0.426610 0.000000
C377  C     C_3   0.631757 0.541861 0.450818 0.000000
C378  C     C_R   0.528458 0.579709 0.403336 0.000000
N69   N     N_R   0.496126 0.564623 0.429205 0.000000
C379  C     C_R   0.455709 0.563148 0.395745 0.000000
C380  C     C_R   0.417146 0.544609 0.404379 0.000000
C381  C     C_R   0.380124 0.544332 0.366572 0.000000
C382  C     C_R   0.383057 0.561993 0.320940 0.000000
C383  C     C_R   0.424483 0.578708 0.314060 0.000000
C384  C     C_R   0.460752 0.579094 0.351838 0.000000
N70   N     N_R   0.505674 0.591783 0.353984 0.000000
C385  C     C_2   0.342553 0.562862 0.280019 0.000000
O69   O     O_2   0.306673 0.547489 0.286249 0.000000
O70   O     O_2   0.344298 0.581115 0.235107 0.000000
H375  H     H_    0.594630 0.558162 0.499447 0.000000
H376  H     H_    0.624733 0.596962 0.469511 0.000000
H377  H     H_    0.549660 0.609220 0.446452 0.000000
H378  H     H_    0.592979 0.604336 0.396875 0.000000
H379  H     H_    0.618324 0.529600 0.430108 0.000000
H380  H     H_    0.669555 0.549657 0.449118 0.000000
H381  H     H_    0.645037 0.518968 0.491955 0.000000
H382  H     H_    0.416701 0.529693 0.440365 0.000000
H383  H     H_    0.349095 0.530112 0.373196 0.000000
H384  H     H_    0.426749 0.592147 0.279144 0.000000
H385  H     H_    0.317333 0.581925 0.208096 0.000000
C386  C     C_3   0.546492 0.639172 0.190540 0.000000
C387  C     C_3   0.533360 0.676402 0.184794 0.000000
C388  C     C_3   0.533222 0.713286 0.140078 0.000000
C389  C     C_R   0.476970 0.683925 0.176535 0.000000
N71   N     N_R   0.429594 0.707458 0.128477 0.000000
C390  C     C_R   0.389519 0.700618 0.144046 0.000000
C391  C     C_R   0.333995 0.711373 0.115076 0.000000
C392  C     C_R   0.299191 0.702695 0.137866 0.000000
C393  C     C_R   0.320967 0.683508 0.189999 0.000000
C394  C     C_R   0.378245 0.670342 0.219667 0.000000
C395  C     C_R   0.411833 0.676462 0.196497 0.000000
N72   N     N_R   0.468087 0.663124 0.218765 0.000000
C396  C     C_2   0.283914 0.675660 0.213998 0.000000
O71   O     O_2   0.233428 0.687016 0.187943 0.000000
O72   O     O_2   0.305495 0.655657 0.264968 0.000000
H386  H     H_    0.526598 0.644922 0.153901 0.000000
H387  H     H_    0.591647 0.622665 0.213750 0.000000
H388  H     H_    0.526647 0.620216 0.211712 0.000000
H389  H     H_    0.560679 0.670456 0.220550 0.000000
H390  H     H_    0.513599 0.739153 0.136256 0.000000
H391  H     H_    0.574361 0.713629 0.141997 0.000000
H392  H     H_    0.508521 0.714999 0.107615 0.000000
H393  H     H_    0.319281 0.724063 0.076238 0.000000
H394  H     H_    0.254961 0.711167 0.114562 0.000000
H395  H     H_    0.396095 0.655931 0.259720 0.000000
H396  H     H_    0.281120 0.650272 0.280780 0.000000
C397  C     C_3   0.477273 0.994052 0.976756 0.000000
C398  C     C_3   0.507598 0.951436 0.028085 0.000000
C399  C     C_3   0.561183 0.944936 0.068492 0.000000
C400  C     C_R   0.472163 0.927986 0.050059 0.000000
N73   N     N_R   0.429463 0.937870 0.059757 0.000000
C401  C     C_R   0.418541 0.902946 0.082502 0.000000
C402  C     C_R   0.373870 0.897428 0.092135 0.000000
C403  C     C_R   0.366180 0.860879 0.114656 0.000000
C404  C     C_R   0.404681 0.829211 0.128382 0.000000
C405  C     C_R   0.446325 0.836354 0.113054 0.000000
C406  C     C_R   0.450598 0.874746 0.087010 0.000000
N74   N     N_R   0.485655 0.889351 0.066585 0.000000
C407  C     C_2   0.401112 0.788570 0.159573 0.000000
O73   O     O_2   0.359335 0.784283 0.165123 0.000000
O74   O     O_2   0.445688 0.755836 0.185642 0.000000
H397  H     H_    0.444069 0.012369 0.974192 0.000000
H398  H     H_    0.507612 0.009838 0.968385 0.000000
H399  H     H_    0.456241 0.992039 0.946053 0.000000
H400  H     H_    0.526151 0.935346 0.018087 0.000000
H401  H     H_    0.554183 0.949944 0.093545 0.000000
H402  H     H_    0.587778 0.913182 0.093241 0.000000
H403  H     H_    0.584757 0.963532 0.050196 0.000000
H404  H     H_    0.342006 0.922583 0.077462 0.000000
H405  H     H_    0.330861 0.857285 0.122480 0.000000
H406  H     H_    0.474400 0.811959 0.120968 0.000000
H407  H     H_    0.444779 0.729538 0.209725 0.000000
C408  C     C_3   0.366846 0.857227 0.969204 0.000000
C409  C     C_3   0.405582 0.836940 0.024528 0.000000
C410  C     C_3   0.384427 0.806485 0.057081 0.000000
C411  C     C_R   0.462243 0.813469 0.041764 0.000000
N75   N     N_R   0.466950 0.784827 0.035634 0.000000
C412  C     C_R   0.516424 0.782861 0.034238 0.000000
C413  C     C_R   0.534013 0.772488 0.010509 0.000000
C414  C     C_R   0.585877 0.773702 0.012504 0.000000
C415  C     C_R   0.619946 0.783140 0.040656 0.000000
C416  C     C_R   0.597228 0.800543 0.056318 0.000000
C417  C     C_R   0.543736 0.802034 0.049280 0.000000
N76   N     N_R   0.511301 0.822149 0.054787 0.000000
C418  C     C_2   0.679924 0.771191 0.056722 0.000000
O75   O     O_2   0.701417 0.743924 0.058781 0.000000
O76   O     O_2   0.712465 0.787528 0.073183 0.000000
H408  H     H_    0.369443 0.887349 0.946933 0.000000
H409  H     H_    0.375995 0.840193 0.956653 0.000000
H410  H     H_    0.323264 0.862826 0.961979 0.000000
H411  H     H_    0.404668 0.862166 0.025124 0.000000
H412  H     H_    0.418999 0.783408 0.096018 0.000000
H413  H     H_    0.348519 0.820885 0.056634 0.000000
H414  H     H_    0.373975 0.790189 0.042430 0.000000
H415  H     H_    0.510344 0.758853 0.997497 0.000000
H416  H     H_    0.602936 0.763445 0.996784 0.000000
H417  H     H_    0.620867 0.811166 0.074973 0.000000
H418  H     H_    0.752440 0.777167 0.086773 0.000000
C419  C     C_3   0.454359 0.918371 0.947474 0.000000
C420  C     C_3   0.488165 0.929470 0.919225 0.000000
C421  C     C_3   0.487771 0.972344 0.894942 0.000000
C422  C     C_R   0.546265 0.901331 0.953227 0.000000
N77   N     N_R   0.570308 0.888787 0.003139 0.000000
C423  C     C_R   0.619634 0.894466 0.008217 0.000000
C424  C     C_R   0.653921 0.897480 0.043750 0.000000
C425  C     C_R   0.701267 0.906345 0.041177 0.000000
C426  C     C_R   0.712899 0.912624 0.002823 0.000000
C427  C     C_R   0.675330 0.912405 0.964750 0.000000
C428  C     C_R   0.628057 0.903973 0.967509 0.000000
N78   N     N_R   0.582864 0.907325 0.931541 0.000000
C429  C     C_2   0.765411 0.919188 0.003156 0.000000
O77   O     O_2   0.797296 0.921127 0.035148 0.000000
O78   O     O_2   0.779819 0.921491 0.969461 0.000000
H419  H     H_    0.470493 0.919911 0.978474 0.000000
H420  H     H_    0.410873 0.939444 0.920655 0.000000
H421  H     H_    0.456147 0.887403 0.962890 0.000000
H422  H     H_    0.468364 0.927621 0.889593 0.000000
H423  H     H_    0.517882 0.973293 0.924371 0.000000
H424  H     H_    0.500313 0.983002 0.864328 0.000000
H425  H     H_    0.445047 0.992641 0.877217 0.000000
H426  H     H_    0.645264 0.891811 0.073948 0.000000
H427  H     H_    0.729721 0.907277 0.070270 0.000000
H428  H     H_    0.681937 0.919694 0.933180 0.000000
H429  H     H_    0.815670 0.923854 0.971603 0.000000
C430  C     C_3   0.982419 0.549084 0.462798 0.000000
C431  C     C_3   0.923506 0.548196 0.451174 0.000000
C432  C     C_3   0.911802 0.526892 0.428658 0.000000
C433  C     C_R   0.910617 0.529088 0.495650 0.000000
N79   N     N_R   0.892547 0.495231 0.511384 0.000000
C434  C     C_R   0.855148 0.503499 0.523979 0.000000
C435  C     C_R   0.825449 0.480283 0.544340 0.000000
C436  C     C_R   0.783959 0.495395 0.549081 0.000000
C437  C     C_R   0.778515 0.531713 0.539310 0.000000
C438  C     C_R   0.816136 0.551209 0.527884 0.000000
C439  C     C_R   0.852888 0.537294 0.518973 0.000000
N80   N     N_R   0.891017 0.553064 0.506146 0.000000
C440  C     C_2   0.736126 0.548447 0.544615 0.000000
O79   O     O_2   0.701540 0.532496 0.553300 0.000000
O80   O     O_2   0.733194 0.583504 0.535885 0.000000
H430  H     H_    0.009072 0.522743 0.471598 0.000000
H431  H     H_    0.981279 0.576118 0.427770 0.000000
H432  H     H_    0.999583 0.550405 0.494583 0.000000
H433  H     H_    0.895324 0.579904 0.422331 0.000000
H434  H     H_    0.918876 0.541868 0.394364 0.000000
H435  H     H_    0.940684 0.495638 0.458150 0.000000
H436  H     H_    0.868271 0.526791 0.418117 0.000000
H437  H     H_    0.834109 0.450976 0.555591 0.000000
H438  H     H_    0.757728 0.478139 0.561980 0.000000
H439  H     H_    0.818966 0.575552 0.528080 0.000000
H440  H     H_    0.699827 0.600279 0.527837 0.000000
C441  C     C_3   0.884162 0.495285 0.642436 0.000000
C442  C     C_3   0.932775 0.508126 0.654501 0.000000
C443  C     C_3   0.969482 0.503531 0.632904 0.000000
C444  C     C_R   0.907875 0.550006 0.632315 0.000000
N81   N     N_R   0.894729 0.583964 0.582468 0.000000
C445  C     C_R   0.880897 0.613844 0.584290 0.000000
C446  C     C_R   0.865110 0.654668 0.546265 0.000000
C447  C     C_R   0.870831 0.678967 0.560220 0.000000
C448  C     C_R   0.893426 0.661744 0.611695 0.000000
C449  C     C_R   0.900137 0.621725 0.647805 0.000000
C450  C     C_R   0.889654 0.598627 0.632534 0.000000
N82   N     N_R   0.901381 0.558124 0.663250 0.000000
C451  C     C_2   0.913765 0.684921 0.628422 0.000000
O81   O     O_2   0.902508 0.721217 0.596903 0.000000
O82   O     O_2   0.948230 0.665627 0.678457 0.000000
H441  H     H_    0.846937 0.521878 0.619365 0.000000
H442  H     H_    0.887068 0.483074 0.623175 0.000000
H443  H     H_    0.880138 0.473865 0.676061 0.000000
H444  H     H_    0.957948 0.490040 0.696550 0.000000
H445  H     H_    0.992140 0.471243 0.655614 0.000000
H446  H     H_    0.944917 0.515131 0.593973 0.000000
H447  H     H_    0.998892 0.520190 0.632067 0.000000
H448  H     H_    0.854802 0.667516 0.507513 0.000000
H449  H     H_    0.863759 0.710465 0.531418 0.000000
H450  H     H_    0.914839 0.608720 0.687190 0.000000
H451  H     H_    0.964764 0.680306 0.689264 0.000000
C452  C     C_3   0.992496 0.654391 0.559220 0.000000
C453  C     C_3   0.033266 0.612092 0.598948 0.000000
C454  C     C_3   0.020114 0.586284 0.641639 0.000000
C455  C     C_R   0.037792 0.595641 0.572892 0.000000
N83   N     N_R   0.990211 0.600348 0.534582 0.000000
C456  C     C_R   0.006805 0.612568 0.498240 0.000000
C457  C     C_R   0.973183 0.628810 0.448250 0.000000
C458  C     C_R   0.991475 0.651130 0.412325 0.000000
C459  C     C_R   0.040524 0.659424 0.426256 0.000000
C460  C     C_R   0.074553 0.641460 0.477555 0.000000
C461  C     C_R   0.059698 0.614676 0.513799 0.000000
N84   N     N_R   0.083363 0.599331 0.563487 0.000000
C462  C     C_2   0.053635 0.689708 0.386092 0.000000
O83   O     O_2   0.026243 0.703211 0.341668 0.000000
O84   O     O_2   0.094742 0.703714 0.397727 0.000000
H452  H     H_    0.951904 0.654136 0.539061 0.000000
H453  H     H_    0.989713 0.668714 0.576742 0.000000
H454  H     H_    0.006913 0.671327 0.530175 0.000000
H455  H     H_    0.074527 0.614199 0.615815 0.000000
H456  H     H_    0.059841 0.563459 0.675217 0.000000
H457  H     H_    0.000899 0.604740 0.648734 0.000000
H458  H     H_    0.993707 0.571095 0.632655 0.000000
H459  H     H_    0.931804 0.626682 0.436528 0.000000
H460  H     H_    0.964203 0.665368 0.372502 0.000000
H461  H     H_    0.109336 0.650554 0.488831 0.000000
H462  H     H_    0.102888 0.723895 0.371111 0.000000
C463  C     C_3   0.606034 0.913304 0.372072 0.000000
C464  C     C_3   0.551582 0.904302 0.366615 0.000000
C465  C     C_3   0.526999 0.906194 0.397376 0.000000
C466  C     C_R   0.506284 0.930008 0.314250 0.000000
N85   N     N_R   0.476407 0.970060 0.288632 0.000000
C467  C     C_R   0.424043 0.972694 0.262353 0.000000
C468  C     C_R   0.374978 0.003788 0.233849 0.000000
C469  C     C_R   0.324269 0.998921 0.217988 0.000000
C470  C     C_R   0.322760 0.962253 0.230703 0.000000
C471  C     C_R   0.372382 0.932517 0.254393 0.000000
C472  C     C_R   0.422923 0.938012 0.270251 0.000000
N86   N     N_R   0.474927 0.910271 0.301364 0.000000
C473  C     C_2   0.269510 0.954352 0.222878 0.000000
O85   O     O_2   0.227317 0.980041 0.206132 0.000000
O86   O     O_2   0.267478 0.917988 0.237380 0.000000
H463  H     H_    0.602484 0.942011 0.364093 0.000000
H464  H     H_    0.640904 0.889474 0.410879 0.000000
H465  H     H_    0.617353 0.915454 0.344042 0.000000
H466  H     H_    0.558484 0.873656 0.379051 0.000000
H467  H     H_    0.486080 0.901345 0.388064 0.000000
H468  H     H_    0.554265 0.882915 0.438228 0.000000
H469  H     H_    0.519741 0.935629 0.387304 0.000000
H470  H     H_    0.374286 0.030837 0.226873 0.000000
H471  H     H_    0.286389 0.023363 0.198496 0.000000
H472  H     H_    0.371590 0.903558 0.267513 0.000000
H473  H     H_    0.232549 0.912744 0.233630 0.000000
C474  C     C_3   0.498937 0.941789 0.152627 0.000000
C475  C     C_3   0.495252 0.911934 0.199749 0.000000
C476  C     C_3   0.514529 0.925471 0.230178 0.000000
C477  C     C_R   0.437661 0.909717 0.192505 0.000000
N87   N     N_R   0.390072 0.928147 0.145793 0.000000
C478  C     C_R   0.353156 0.911398 0.162447 0.000000
C479  C     C_R   0.299326 0.915428 0.134613 0.000000
C480  C     C_R   0.271552 0.892499 0.160152 0.000000
C481  C     C_R   0.297421 0.865061 0.213368 0.000000
C482  C     C_R   0.351078 0.861246 0.241136 0.000000
C483  C     C_R   0.377257 0.885379 0.214813 0.000000
N88   N     N_R   0.430306 0.883997 0.235390 0.000000
C484  C     C_2   0.267772 0.840888 0.240337 0.000000
O87   O     O_2   0.221062 0.843041 0.216198 0.000000
O88   O     O_2   0.291245 0.817356 0.291915 0.000000
H474  H     H_    0.479121 0.971571 0.139730 0.000000
H475  H     H_    0.543516 0.937049 0.161244 0.000000
H476  H     H_    0.478328 0.937655 0.125093 0.000000
H477  H     H_    0.524691 0.882237 0.220204 0.000000
H478  H     H_    0.533973 0.899743 0.270544 0.000000
H479  H     H_    0.545504 0.940594 0.222272 0.000000
H480  H     H_    0.475711 0.945935 0.218186 0.000000
H481  H     H_    0.279063 0.933663 0.093879 0.000000
H482  H     H_    0.229656 0.895744 0.137748 0.000000
H483  H     H_    0.372288 0.839830 0.282509 0.000000
H484  H     H_    0.270527 0.803067 0.309394 0.000000
C485  C     C_3   0.580129 0.706159 0.466520 0.000000
C486  C     C_3   0.567038 0.747350 0.451119 0.000000
C487  C     C_3   0.601701 0.769362 0.427610 0.000000
C488  C     C_R   0.504704 0.769707 0.423119 0.000000
N89   N     N_R   0.477098 0.810156 0.378259 0.000000
C489  C     C_R   0.428257 0.817703 0.379093 0.000000
C490  C     C_R   0.394869 0.853739 0.359894 0.000000
C491  C     C_R   0.344933 0.855902 0.362135 0.000000
C492  C     C_R   0.332136 0.821027 0.388664 0.000000
C493  C     C_R   0.374436 0.784030 0.419880 0.000000
C494  C     C_R   0.423244 0.783673 0.415966 0.000000
N90   N     N_R   0.471643 0.752775 0.446753 0.000000
C495  C     C_2   0.276323 0.824704 0.386692 0.000000
O89   O     O_2   0.242759 0.858226 0.361225 0.000000
O90   O     O_2   0.260509 0.792283 0.411048 0.000000
H485  H     H_    0.541019 0.699156 0.459665 0.000000
H486  H     H_    0.599601 0.702968 0.445956 0.000000
H487  H     H_    0.610792 0.685618 0.507848 0.000000
H488  H     H_    0.585140 0.740602 0.487964 0.000000
H489  H     H_    0.643582 0.759193 0.458940 0.000000
H490  H     H_    0.608102 0.761189 0.405063 0.000000
H491  H     H_    0.581714 0.802030 0.405047 0.000000
H492  H     H_    0.409899 0.878640 0.348416 0.000000
H493  H     H_    0.316820 0.885034 0.343806 0.000000
H494  H     H_    0.370094 0.756379 0.446754 0.000000
H495  H     H_    0.284055 0.764830 0.431284 0.000000
C496  C     C_3   0.233672 0.843064 0.979782 0.000000
C497  C     C_3   0.264198 0.803290 0.996850 0.000000
C498  C     C_3   0.224517 0.779210 0.998638 0.000000
C499  C     C_R   0.285544 0.808193 0.960693 0.000000
N91   N     N_R   0.242615 0.824321 0.912256 0.000000
C500  C     C_R   0.254638 0.794026 0.911707 0.000000
C501  C     C_R   0.216199 0.786784 0.883888 0.000000
C502  C     C_R   0.233536 0.753982 0.887675 0.000000
C503  C     C_R   0.289881 0.731319 0.915899 0.000000
C504  C     C_R   0.328569 0.739050 0.945024 0.000000
C505  C     C_R   0.308290 0.768009 0.947547 0.000000
N92   N     N_R   0.331846 0.775905 0.980853 0.000000
C506  C     C_2   0.306055 0.697035 0.917728 0.000000
O91   O     O_2   0.270497 0.689431 0.894991 0.000000
O92   O     O_2   0.358773 0.671635 0.947789 0.000000
H496  H     H_    0.206914 0.861767 0.938465 0.000000
H497  H     H_    0.209163 0.838202 0.000632 0.000000
H498  H     H_    0.261964 0.858153 0.988127 0.000000
H499  H     H_    0.296311 0.787072 0.036119 0.000000
H500  H     H_    0.245003 0.750473 0.008826 0.000000
H501  H     H_    0.209007 0.773515 0.026198 0.000000
H502  H     H_    0.189617 0.794382 0.960678 0.000000
H503  H     H_    0.172738 0.804321 0.863555 0.000000
H504  H     H_    0.202701 0.747303 0.866912 0.000000
H505  H     H_    0.372390 0.723205 0.964020 0.000000
H506  H     H_    0.365525 0.646398 0.953806 0.000000
C507  C     C_3   0.617422 0.649272 0.139939 0.000000
C508  C     C_3   0.573730 0.680748 0.084995 0.000000
C509  C     C_3   0.601641 0.685535 0.053852 0.000000
C510  C     C_R   0.517796 0.675027 0.065751 0.000000
N93   N     N_R   0.514419 0.644734 0.061729 0.000000
C511  C     C_R   0.462149 0.643944 0.057280 0.000000
C512  C     C_R   0.435383 0.617835 0.057274 0.000000
C513  C     C_R   0.384992 0.619563 0.058421 0.000000
C514  C     C_R   0.360374 0.647658 0.060059 0.000000
C515  C     C_R   0.387036 0.674265 0.059889 0.000000
C516  C     C_R   0.436638 0.672301 0.057064 0.000000
N94   N     N_R   0.467071 0.695757 0.056567 0.000000
C517  C     C_2   0.306841 0.648551 0.061850 0.000000
O93   O     O_2   0.283296 0.625962 0.059201 0.000000
O94   O     O_2   0.283580 0.673784 0.066921 0.000000
H507  H     H_    0.659127 0.645846 0.142235 0.000000
H508  H     H_    0.621876 0.660776 0.161194 0.000000
H509  H     H_    0.607979 0.621195 0.158026 0.000000
H510  H     H_    0.567698 0.706032 0.084085 0.000000
H511  H     H_    0.569987 0.705804 0.014251 0.000000
H512  H     H_    0.637526 0.696035 0.061164 0.000000
H513  H     H_    0.616646 0.656308 0.064403 0.000000
H514  H     H_    0.454578 0.593918 0.061145 0.000000
H515  H     H_    0.365810 0.597999 0.058983 0.000000
H516  H     H_    0.368806 0.697091 0.059935 0.000000
H517  H     H_    0.248495 0.673985 0.068319 0.000000
C518  C     C_3   0.485518 0.904506 0.754208 0.000000
C519  C     C_3   0.495527 0.864747 0.801100 0.000000
C520  C     C_3   0.466665 0.840758 0.788598 0.000000
C521  C     C_R   0.553393 0.846316 0.843651 0.000000
N95   N     N_R   0.584057 0.807010 0.867798 0.000000
C522  C     C_R   0.630614 0.800637 0.905292 0.000000
C523  C     C_R   0.678064 0.767723 0.938451 0.000000
C524  C     C_R   0.724778 0.768256 0.969730 0.000000
C525  C     C_R   0.723026 0.801313 0.968740 0.000000
C526  C     C_R   0.673854 0.834365 0.935858 0.000000
C527  C     C_R   0.628666 0.833886 0.903248 0.000000
N96   N     N_R   0.580426 0.864907 0.864274 0.000000
C528  C     C_2   0.773600 0.800751 0.002666 0.000000
O95   O     O_2   0.818111 0.774046 0.026524 0.000000
O96   O     O_2   0.771306 0.829474 0.007933 0.000000
H518  H     H_    0.508853 0.899536 0.737992 0.000000
H519  H     H_    0.440920 0.920300 0.725674 0.000000
H520  H     H_    0.502760 0.920629 0.767413 0.000000
H521  H     H_    0.473494 0.866221 0.818156 0.000000
H522  H     H_    0.494918 0.810040 0.814218 0.000000
H523  H     H_    0.429803 0.839892 0.795412 0.000000
H524  H     H_    0.449348 0.855684 0.747457 0.000000
H525  H     H_    0.679129 0.742517 0.939258 0.000000
H526  H     H_    0.762536 0.742247 0.995427 0.000000
H527  H     H_    0.671653 0.860660 0.933716 0.000000
H528  H     H_    0.805415 0.829915 0.028233 0.000000
C529  C     C_3   0.528863 0.038435 0.729354 0.000000
C530  C     C_3   0.482285 0.042468 0.739839 0.000000
C531  C     C_3   0.438782 0.083268 0.692257 0.000000
C532  C     C_R   0.463978 0.007580 0.751036 0.000000
N97   N     N_R   0.411726 0.012349 0.718831 0.000000
C533  C     C_R   0.410415 0.974527 0.749995 0.000000
C534  C     C_R   0.375669 0.956684 0.738587 0.000000
C535  C     C_R   0.375908 0.920419 0.777890 0.000000
C536  C     C_R   0.417252 0.899274 0.827228 0.000000
C537  C     C_R   0.462344 0.912154 0.835149 0.000000
C538  C     C_R   0.457114 0.950169 0.795951 0.000000
N98   N     N_R   0.495650 0.967684 0.796601 0.000000
C539  C     C_2   0.420992 0.858325 0.866751 0.000000
O97   O     O_2   0.404019 0.838028 0.854931 0.000000
O98   O     O_2   0.441611 0.843046 0.915774 0.000000
H529  H     H_    0.510999 0.048549 0.690228 0.000000
H530  H     H_    0.552433 0.057095 0.734235 0.000000
H531  H     H_    0.553072 0.006457 0.754041 0.000000
H532  H     H_    0.495935 0.041596 0.773611 0.000000
H533  H     H_    0.403373 0.090282 0.697416 0.000000
H534  H     H_    0.458107 0.106966 0.684849 0.000000
H535  H     H_    0.423278 0.084696 0.658251 0.000000
H536  H     H_    0.351897 0.969206 0.700160 0.000000
H537  H     H_    0.344244 0.908091 0.769969 0.000000
H538  H     H_    0.500210 0.892674 0.871328 0.000000
H539  H     H_    0.434612 0.818897 0.937758 0.000000
C540  C     C_3   0.749508 0.903482 0.824754 0.000000
C541  C     C_3   0.719941 0.907256 0.850948 0.000000
C542  C     C_3   0.764176 0.895656 0.900619 0.000000
C543  C     C_R   0.679897 0.948355 0.820806 0.000000
N99   N     N_R   0.693763 0.983908 0.794398 0.000000
C544  C     C_R   0.668217 0.005543 0.803360 0.000000
C545  C     C_R   0.669302 0.042556 0.789793 0.000000
C546  C     C_R   0.642540 0.058790 0.804849 0.000000
C547  C     C_R   0.613862 0.038578 0.832044 0.000000
C548  C     C_R   0.611280 0.001895 0.843863 0.000000
C549  C     C_R   0.638856 0.985932 0.829370 0.000000
N100  N     N_R   0.639862 0.951234 0.836621 0.000000
C550  C     C_2   0.585539 0.056376 0.847468 0.000000
O99   O     O_2   0.586973 0.088878 0.836577 0.000000
O100  O     O_2   0.557906 0.036875 0.873829 0.000000
H540  H     H_    0.725673 0.927192 0.782589 0.000000
H541  H     H_    0.791511 0.903907 0.840831 0.000000
H542  H     H_    0.756841 0.872598 0.837696 0.000000
H543  H     H_    0.697194 0.885541 0.860012 0.000000
H544  H     H_    0.743785 0.893439 0.923373 0.000000
H545  H     H_    0.796212 0.866034 0.922563 0.000000
H546  H     H_    0.784181 0.919047 0.892790 0.000000
H547  H     H_    0.692220 0.058092 0.769817 0.000000
H548  H     H_    0.644453 0.087515 0.795149 0.000000
H549  H     H_    0.588300 0.986050 0.863774 0.000000
H550  H     H_    0.539275 0.048627 0.883949 0.000000
C551  C     C_3   0.718444 0.449161 0.430861 0.000000
C552  C     C_3   0.751592 0.476754 0.421791 0.000000
C553  C     C_3   0.772413 0.479462 0.462500 0.000000
C554  C     C_R   0.797335 0.468014 0.411998 0.000000
N101  N     N_R   0.854513 0.455982 0.444326 0.000000
C555  C     C_R   0.876836 0.457073 0.415060 0.000000
C556  C     C_R   0.931413 0.452376 0.423749 0.000000
C557  C     C_R   0.946440 0.451955 0.390740 0.000000
C558  C     C_R   0.907023 0.456429 0.349280 0.000000
C559  C     C_R   0.851217 0.464597 0.338457 0.000000
C560  C     C_R   0.836607 0.466249 0.370807 0.000000
N102  N     N_R   0.784848 0.475073 0.366208 0.000000
C561  C     C_2   0.924677 0.452947 0.316849 0.000000
O101  O     O_2   0.972783 0.449492 0.323661 0.000000
O102  O     O_2   0.888561 0.452055 0.280680 0.000000
H551  H     H_    0.729189 0.429565 0.471266 0.000000
H552  H     H_    0.674516 0.468008 0.411090 0.000000
H553  H     H_    0.725854 0.431905 0.417906 0.000000
H554  H     H_    0.722497 0.505742 0.390976 0.000000
H555  H     H_    0.738140 0.484362 0.470963 0.000000
H556  H     H_    0.806755 0.451142 0.494523 0.000000
H557  H     H_    0.787705 0.505310 0.448720 0.000000
H558  H     H_    0.963338 0.447044 0.456668 0.000000
H559  H     H_    0.989914 0.446525 0.399030 0.000000
H560  H     H_    0.819647 0.470608 0.304732 0.000000
H561  H     H_    0.901181 0.448218 0.260858 0.000000
C562  C     C_3   0.583871 0.531809 0.223882 0.000000
C563  C     C_3   0.601717 0.532613 0.188803 0.000000
C564  C     C_3   0.547209 0.553659 0.142617 0.000000
C565  C     C_R   0.645539 0.552347 0.184080 0.000000
N103  N     N_R   0.645853 0.582420 0.138189 0.000000
C566  C     C_R   0.698108 0.584470 0.156000 0.000000
C567  C     C_R   0.723421 0.608932 0.128453 0.000000
C568  C     C_R   0.777865 0.604887 0.154252 0.000000
C569  C     C_R   0.806421 0.577891 0.207357 0.000000
C570  C     C_R   0.779440 0.555606 0.234752 0.000000
C571  C     C_R   0.725894 0.558222 0.208689 0.000000
N104  N     N_R   0.693548 0.537691 0.228140 0.000000
C572  C     C_2   0.864934 0.573422 0.234178 0.000000
O103  O     O_2   0.887595 0.594269 0.209736 0.000000
O104  O     O_2   0.894157 0.546052 0.285759 0.000000
H562  H     H_    0.575965 0.561841 0.214298 0.000000
H563  H     H_    0.546503 0.522121 0.221823 0.000000
H564  H     H_    0.616615 0.509230 0.262084 0.000000
H565  H     H_    0.619908 0.501586 0.204339 0.000000
H566  H     H_    0.550662 0.570420 0.108017 0.000000
H567  H     H_    0.525058 0.532463 0.144438 0.000000
H568  H     H_    0.522254 0.574623 0.143149 0.000000
H569  H     H_    0.702422 0.632123 0.087716 0.000000
H570  H     H_    0.797427 0.623614 0.132149 0.000000
H571  H     H_    0.799977 0.537529 0.275498 0.000000
H572  H     H_    0.932642 0.543192 0.303173 0.000000
C573  C     C_3   0.747810 0.448179 0.248762 0.000000
C574  C     C_3   0.752298 0.410573 0.296965 0.000000
C575  C     C_3   0.806310 0.395285 0.343443 0.000000
C576  C     C_R   0.702638 0.417476 0.303996 0.000000
N105  N     N_R   0.687625 0.443964 0.312706 0.000000
C577  C     C_R   0.644795 0.434031 0.322305 0.000000
C578  C     C_R   0.621295 0.443018 0.344538 0.000000
C579  C     C_R   0.573868 0.433822 0.346609 0.000000
C580  C     C_R   0.547273 0.420936 0.320022 0.000000
C581  C     C_R   0.575364 0.408062 0.302830 0.000000
C582  C     C_R   0.628613 0.409893 0.311032 0.000000
N106  N     N_R   0.667418 0.395409 0.303583 0.000000
C583  C     C_2   0.489564 0.421364 0.309697 0.000000
O105  O     O_2   0.466880 0.429375 0.328871 0.000000
O106  O     O_2   0.460795 0.414047 0.277852 0.000000
H573  H     H_    0.743955 0.473263 0.250079 0.000000
H574  H     H_    0.785327 0.442337 0.244646 0.000000
H575  H     H_    0.710085 0.455810 0.215848 0.000000
H576  H     H_    0.752698 0.387035 0.292287 0.000000
H577  H     H_    0.819613 0.362173 0.371989 0.000000
H578  H     H_    0.840185 0.402210 0.332629 0.000000
H579  H     H_    0.799540 0.408974 0.360575 0.000000
H580  H     H_    0.636839 0.459741 0.356274 0.000000
H581  H     H_    0.554167 0.441542 0.363242 0.000000
H582  H     H_    0.554699 0.396550 0.284661 0.000000
H583  H     H_    0.422759 0.414573 0.270930 0.000000
C584  C     C_3   0.294253 0.937296 0.960390 0.000000
C585  C     C_3   0.311061 0.969711 0.962064 0.000000
C586  C     C_3   0.347272 0.988268 0.937788 0.000000
C587  C     C_R   0.270951 0.995241 0.961369 0.000000
N107  N     N_R   0.213581 0.010347 0.929120 0.000000
C588  C     C_R   0.192771 0.011908 0.957361 0.000000
C589  C     C_R   0.138746 0.015957 0.949624 0.000000
C590  C     C_R   0.124536 0.016207 0.983019 0.000000
C591  C     C_R   0.164090 0.013641 0.022522 0.000000
C592  C     C_R   0.219408 0.006273 0.032055 0.000000
C593  C     C_R   0.234294 0.003174 0.000669 0.000000
N108  N     N_R   0.286118 0.992038 0.005384 0.000000
C594  C     C_2   0.147430 0.018008 0.054820 0.000000
O107  O     O_2   0.100114 0.020195 0.049979 0.000000
O108  O     O_2   0.183201 0.021901 0.087914 0.000000
H584  H     H_    0.248789 0.943679 0.946071 0.000000
H585  H     H_    0.309289 0.933661 0.937634 0.000000
H586  H     H_    0.314690 0.908245 0.000016 0.000000
H587  H     H_    0.340299 0.952261 0.000605 0.000000
H588  H     H_    0.360879 0.006896 0.948799 0.000000
H589  H     H_    0.384185 0.963695 0.954131 0.000000
H590  H     H_    0.326470 0.006823 0.896094 0.000000
H591  H     H_    0.107955 0.018283 0.918737 0.000000
H592  H     H_    0.082084 0.019256 0.977367 0.000000
H593  H     H_    0.249383 0.000269 0.065521 0.000000
H594  H     H_    0.170797 0.027135 0.106793 0.000000
C595  C     C_3   0.329575 0.008892 0.117186 0.000000
C596  C     C_3   0.317745 0.050615 0.070950 0.000000
C597  C     C_3   0.300204 0.078655 0.080137 0.000000
C598  C     C_R   0.368243 0.051823 0.062131 0.000000
N109  N     N_R   0.390225 0.024666 0.057225 0.000000
C599  C     C_R   0.432291 0.037073 0.048131 0.000000
C600  C     C_R   0.471181 0.019103 0.044567 0.000000
C601  C     C_R   0.514759 0.033416 0.039574 0.000000
C602  C     C_R   0.521456 0.063273 0.043401 0.000000
C603  C     C_R   0.481197 0.081382 0.046983 0.000000
C604  C     C_R   0.435467 0.069160 0.046997 0.000000
N110  N     N_R   0.393953 0.081217 0.053376 0.000000
C605  C     C_2   0.573133 0.073166 0.047817 0.000000
O109  O     O_2   0.605346 0.060796 0.038485 0.000000
O110  O     O_2   0.586541 0.094405 0.064430 0.000000
H595  H     H_    0.369759 0.997208 0.150512 0.000000
H596  H     H_    0.294741 0.007670 0.126973 0.000000
H597  H     H_    0.332262 0.990751 0.105420 0.000000
H598  H     H_    0.282002 0.057633 0.037108 0.000000
H599  H     H_    0.302480 0.108199 0.053577 0.000000
H600  H     H_    0.256263 0.082355 0.073510 0.000000
H601  H     H_    0.326978 0.064953 0.120664 0.000000
H602  H     H_    0.468077 0.992904 0.048861 0.000000
H603  H     H_    0.545952 0.019498 0.036463 0.000000
H604  H     H_    0.488267 0.102401 0.053493 0.000000
H605  H     H_    0.621221 0.100061 0.068360 0.000000
C606  C     C_3   0.498629 0.116718 0.298926 0.000000
C607  C     C_3   0.506233 0.099249 0.273754 0.000000
C608  C     C_3   0.483913 0.133683 0.218912 0.000000
C609  C     C_R   0.560205 0.070408 0.291403 0.000000
N111  N     N_R   0.610659 0.077403 0.291761 0.000000
C610  C     C_R   0.633602 0.048816 0.291063 0.000000
C611  C     C_R   0.682148 0.043385 0.287587 0.000000
C612  C     C_R   0.696952 0.014401 0.283405 0.000000
C613  C     C_R   0.662469 0.992143 0.281122 0.000000
C614  C     C_R   0.613621 0.998159 0.284621 0.000000
C615  C     C_R   0.600804 0.025836 0.291333 0.000000
N112  N     N_R   0.554251 0.038010 0.292589 0.000000
C616  C     C_2   0.677300 0.963026 0.273722 0.000000
O111  O     O_2   0.720922 0.957089 0.271985 0.000000
O112  O     O_2   0.642834 0.942875 0.268509 0.000000
H606  H     H_    0.497947 0.148002 0.277234 0.000000
H607  H     H_    0.457259 0.116599 0.297525 0.000000
H608  H     H_    0.527815 0.100269 0.338755 0.000000
H609  H     H_    0.476577 0.082365 0.276407 0.000000
H610  H     H_    0.477728 0.121230 0.198788 0.000000
H611  H     H_    0.443310 0.153723 0.205794 0.000000
H612  H     H_    0.515417 0.148809 0.214857 0.000000
H613  H     H_    0.707694 0.061954 0.287087 0.000000
H614  H     H_    0.734863 0.010289 0.280339 0.000000
H615  H     H_    0.585169 0.982696 0.280092 0.000000
H616  H     H_    0.652847 0.923785 0.263627 0.000000
C617  C     C_3   0.586911 0.975184 0.401700 0.000000
C618  C     C_3   0.551541 0.986184 0.419364 0.000000
C619  C     C_3   0.543490 0.027362 0.402266 0.000000
C620  C     C_R   0.495045 0.984710 0.400485 0.000000
N113  N     N_R   0.460354 0.003870 0.348630 0.000000
C621  C     C_R   0.413995 0.994407 0.351030 0.000000
C622  C     C_R   0.362108 0.008057 0.311799 0.000000
C623  C     C_R   0.324534 0.988513 0.322965 0.000000
C624  C     C_R   0.339466 0.955890 0.373246 0.000000
C625  C     C_R   0.387597 0.947394 0.412903 0.000000
C626  C     C_R   0.422719 0.968937 0.400765 0.000000
N114  N     N_R   0.472144 0.964265 0.433493 0.000000
C627  C     C_2   0.306707 0.928846 0.384213 0.000000
O113  O     O_2   0.260615 0.938658 0.350797 0.000000
O114  O     O_2   0.330602 0.891057 0.429157 0.000000
H617  H     H_    0.558195 0.981736 0.366198 0.000000
H618  H     H_    0.618764 0.990055 0.397076 0.000000
H619  H     H_    0.610008 0.942643 0.430671 0.000000
H620  H     H_    0.574431 0.964041 0.460060 0.000000
H621  H     H_    0.498350 0.045331 0.376762 0.000000
H622  H     H_    0.556736 0.027307 0.434949 0.000000
H623  H     H_    0.568400 0.039096 0.382236 0.000000
H624  H     H_    0.349088 0.034146 0.273440 0.000000
H625  H     H_    0.285049 0.997468 0.291710 0.000000
H626  H     H_    0.398576 0.922971 0.451947 0.000000
H627  H     H_    0.312668 0.871269 0.433701 0.000000
C628  C     C_3   0.466906 0.019708 0.178274 0.000000
C629  C     C_3   0.481611 0.051830 0.179089 0.000000
C630  C     C_3   0.514057 0.068945 0.149987 0.000000
C631  C     C_R   0.432450 0.079525 0.167402 0.000000
N115  N     N_R   0.387198 0.109338 0.119344 0.000000
C632  C     C_R   0.351398 0.120074 0.131983 0.000000
C633  C     C_R   0.296836 0.145156 0.100094 0.000000
C634  C     C_R   0.266558 0.150723 0.121399 0.000000
C635  C     C_R   0.291293 0.131597 0.173912 0.000000
C636  C     C_R   0.346867 0.106266 0.205535 0.000000
C637  C     C_R   0.375302 0.099953 0.183821 0.000000
N116  N     N_R   0.425729 0.072105 0.208080 0.000000
C638  C     C_2   0.257848 0.135188 0.197102 0.000000
O115  O     O_2   0.271723 0.108094 0.242296 0.000000
O116  O     O_2   0.212673 0.168157 0.169713 0.000000
H628  H     H_    0.468419 0.020537 0.147416 0.000000
H629  H     H_    0.499298 0.992470 0.215592 0.000000
H630  H     H_    0.424788 0.022301 0.174708 0.000000
H631  H     H_    0.509504 0.036677 0.219197 0.000000
H632  H     H_    0.487341 0.099706 0.114646 0.000000
H633  H     H_    0.554124 0.066904 0.174991 0.000000
H634  H     H_    0.528667 0.049385 0.142382 0.000000
H635  H     H_    0.277471 0.158577 0.060072 0.000000
H636  H     H_    0.222775 0.169023 0.096786 0.000000
H637  H     H_    0.367283 0.091417 0.246193 0.000000
H638  H     H_    0.202745 0.191760 0.135215 0.000000
C639  C     C_3   0.618898 0.476686 0.687194 0.000000
C640  C     C_3   0.581437 0.482637 0.639802 0.000000
C641  C     C_3   0.536241 0.523031 0.599944 0.000000
C642  C     C_R   0.609430 0.480867 0.613038 0.000000
N117  N     N_R   0.576187 0.498597 0.562029 0.000000
C643  C     C_R   0.604696 0.476346 0.556509 0.000000
C644  C     C_R   0.584707 0.475303 0.516633 0.000000
C645  C     C_R   0.617049 0.447604 0.519703 0.000000
C646  C     C_R   0.670137 0.424556 0.560132 0.000000
C647  C     C_R   0.691131 0.426635 0.599695 0.000000
C648  C     C_R   0.655204 0.450271 0.599522 0.000000
N118  N     N_R   0.660478 0.451392 0.637878 0.000000
C649  C     C_2   0.707358 0.403923 0.555429 0.000000
O117  O     O_2   0.689155 0.396325 0.526253 0.000000
O118  O     O_2   0.759676 0.403643 0.572457 0.000000
H639  H     H_    0.610743 0.504699 0.681903 0.000000
H640  H     H_    0.609065 0.455254 0.716972 0.000000
H641  H     H_    0.663284 0.462559 0.701941 0.000000
H642  H     H_    0.564250 0.458025 0.649911 0.000000
H643  H     H_    0.499860 0.520594 0.577769 0.000000
H644  H     H_    0.521989 0.537064 0.613585 0.000000
H645  H     H_    0.552689 0.543048 0.574992 0.000000
H646  H     H_    0.545229 0.494994 0.483464 0.000000
H647  H     H_    0.602326 0.447160 0.487748 0.000000
H648  H     H_    0.733845 0.410427 0.629421 0.000000
H649  H     H_    0.774147 0.415706 0.548519 0.000000
C650  C     C_3   0.319751 0.552929 0.438788 0.000000
C651  C     C_3   0.333836 0.551755 0.484752 0.000000
C652  C     C_3   0.285667 0.545129 0.495736 0.000000
C653  C     C_R   0.385853 0.517354 0.530578 0.000000
N119  N     N_R   0.379813 0.481234 0.567188 0.000000
C654  C     C_R   0.419317 0.454293 0.575090 0.000000
C655  C     C_R   0.423339 0.415030 0.597625 0.000000
C656  C     C_R   0.452491 0.394562 0.588584 0.000000
C657  C     C_R   0.476413 0.414179 0.556472 0.000000
C658  C     C_R   0.476945 0.452579 0.538656 0.000000
C659  C     C_R   0.449584 0.472142 0.549489 0.000000
N120  N     N_R   0.433961 0.512379 0.524340 0.000000
C660  C     C_2   0.495859 0.395957 0.537182 0.000000
O119  O     O_2   0.494234 0.362586 0.551852 0.000000
O120  O     O_2   0.514737 0.416200 0.502579 0.000000
H650  H     H_    0.335853 0.522101 0.451883 0.000000
H651  H     H_    0.273719 0.564797 0.414602 0.000000
H652  H     H_    0.336279 0.573875 0.413994 0.000000
H653  H     H_    0.336682 0.580987 0.474065 0.000000
H654  H     H_    0.295078 0.537226 0.533245 0.000000
H655  H     H_    0.249979 0.573563 0.464221 0.000000
H656  H     H_    0.275580 0.520492 0.495537 0.000000
H657  H     H_    0.397593 0.402678 0.615307 0.000000
H658  H     H_    0.451412 0.364738 0.602554 0.000000
H659  H     H_    0.489168 0.469371 0.509560 0.000000
H660  H     H_    0.527385 0.404135 0.489919 0.000000
C661  C     C_3   0.580851 0.588872 0.598297 0.000000
C662  C     C_3   0.564552 0.616604 0.544003 0.000000
C663  C     C_3   0.607428 0.610948 0.529943 0.000000
C664  C     C_R   0.508311 0.623465 0.511317 0.000000
N121  N     N_R   0.486079 0.601959 0.494312 0.000000
C665  C     C_R   0.434879 0.629544 0.457259 0.000000
C666  C     C_R   0.393740 0.625112 0.427164 0.000000
C667  C     C_R   0.341190 0.654264 0.395326 0.000000
C668  C     C_R   0.331026 0.687248 0.394148 0.000000
C669  C     C_R   0.374529 0.692705 0.422405 0.000000
C670  C     C_R   0.426441 0.663162 0.454208 0.000000
N122  N     N_R   0.472270 0.659583 0.489758 0.000000
C671  C     C_2   0.273530 0.714916 0.365292 0.000000
O121  O     O_2   0.237005 0.714602 0.333813 0.000000
O122  O     O_2   0.260070 0.738952 0.375807 0.000000
H661  H     H_    0.607570 0.601112 0.613609 0.000000
H662  H     H_    0.542929 0.589682 0.603218 0.000000
H663  H     H_    0.604934 0.558970 0.615051 0.000000
H664  H     H_    0.561179 0.645096 0.537744 0.000000
H665  H     H_    0.589729 0.632893 0.487835 0.000000
H666  H     H_    0.641199 0.619402 0.545909 0.000000
H667  H     H_    0.622343 0.579231 0.546158 0.000000
H668  H     H_    0.402229 0.598967 0.429510 0.000000
H669  H     H_    0.307673 0.650163 0.372928 0.000000
H670  H     H_    0.367361 0.718190 0.421530 0.000000
H671  H     H_    0.221794 0.756257 0.357912 0.000000
C672  C     C_3   0.952950 0.414857 0.638822 0.000000
C673  C     C_3   0.923986 0.385420 0.659222 0.000000
C674  C     C_3   0.872725 0.400949 0.659763 0.000000
C675  C     C_R   0.907602 0.368062 0.634074 0.000000
N123  N     N_R   0.890170 0.388247 0.581788 0.000000
C676  C     C_R   0.858438 0.366768 0.574955 0.000000
C677  C     C_R   0.824658 0.374128 0.530530 0.000000
C678  C     C_R   0.785746 0.354323 0.530311 0.000000
C679  C     C_R   0.782425 0.326559 0.574820 0.000000
C680  C     C_R   0.820886 0.316427 0.620244 0.000000
C681  C     C_R   0.856409 0.337709 0.618918 0.000000
N124  N     N_R   0.889504 0.335832 0.658135 0.000000
C682  C     C_2   0.736911 0.309765 0.574028 0.000000
O123  O     O_2   0.696512 0.324289 0.533264 0.000000
O124  O     O_2   0.737039 0.280870 0.618501 0.000000
H672  H     H_    0.925262 0.445526 0.611140 0.000000
H673  H     H_    0.982774 0.412869 0.670774 0.000000
H674  H     H_    0.974291 0.407050 0.622534 0.000000
H675  H     H_    0.954387 0.360064 0.697771 0.000000
H676  H     H_    0.867004 0.375521 0.690440 0.000000
H677  H     H_    0.875984 0.424285 0.663894 0.000000
H678  H     H_    0.834114 0.411859 0.625962 0.000000
H679  H     H_    0.826117 0.396470 0.496189 0.000000
H680  H     H_    0.755941 0.362208 0.494560 0.000000
H681  H     H_    0.821449 0.293696 0.655709 0.000000
H682  H     H_    0.705044 0.271999 0.618274 0.000000
C683  C     C_3   0.013373 0.319979 0.613258 0.000000
C684  C     C_3   0.023496 0.345191 0.567699 0.000000
C685  C     C_3   0.976660 0.361944 0.516448 0.000000
C686  C     C_R   0.034401 0.379581 0.564139 0.000000
N125  N     N_R   0.994301 0.412259 0.549265 0.000000
C687  C     C_R   0.026795 0.433332 0.554595 0.000000
C688  C     C_R   0.019424 0.458355 0.566069 0.000000
C689  C     C_R   0.060236 0.474400 0.573856 0.000000
C690  C     C_R   0.105227 0.466241 0.567326 0.000000
C691  C     C_R   0.116216 0.436064 0.564997 0.000000
C692  C     C_R   0.078710 0.417642 0.564106 0.000000
N126  N     N_R   0.087842 0.381375 0.576360 0.000000
C693  C     C_2   0.145391 0.485635 0.567885 0.000000
O125  O     O_2   0.146606 0.505361 0.582522 0.000000
O126  O     O_2   0.185276 0.477138 0.557625 0.000000
H683  H     H_    0.977288 0.337987 0.608437 0.000000
H684  H     H_    0.007273 0.292770 0.619942 0.000000
H685  H     H_    0.052247 0.309092 0.647564 0.000000
H686  H     H_    0.060886 0.326409 0.575082 0.000000
H687  H     H_    0.992178 0.378264 0.488079 0.000000
H688  H     H_    0.966126 0.339104 0.513451 0.000000
H689  H     H_    0.938973 0.381495 0.508081 0.000000
H690  H     H_    0.986622 0.463106 0.573859 0.000000
H691  H     H_    0.054276 0.495285 0.581190 0.000000
H692  H     H_    0.150784 0.428264 0.560643 0.000000
H693  H     H_    0.219710 0.482234 0.565869 0.000000
C694  C     C_3   0.606474 0.579237 0.700105 0.000000
C695  C     C_3   0.566383 0.621572 0.658754 0.000000
C696  C     C_3   0.545651 0.635159 0.682633 0.000000
C697  C     C_R   0.592320 0.650149 0.631824 0.000000
N127  N     N_R   0.637574 0.656451 0.657750 0.000000
C698  C     C_R   0.628969 0.694776 0.620390 0.000000
C699  C     C_R   0.663766 0.715854 0.622482 0.000000
C700  C     C_R   0.650091 0.753575 0.578628 0.000000
C701  C     C_R   0.598040 0.771834 0.537093 0.000000
C702  C     C_R   0.560371 0.751498 0.538353 0.000000
C703  C     C_R   0.581755 0.710706 0.576404 0.000000
N128  N     N_R   0.559800 0.682289 0.579557 0.000000
C704  C     C_2   0.590823 0.805540 0.487761 0.000000
O127  O     O_2   0.545355 0.821915 0.450280 0.000000
O128  O     O_2   0.636988 0.811647 0.482339 0.000000
H694  H     H_    0.648243 0.580598 0.715157 0.000000
H695  H     H_    0.594125 0.563309 0.730330 0.000000
H696  H     H_    0.605209 0.561040 0.687553 0.000000
H697  H     H_    0.530118 0.623759 0.629890 0.000000
H698  H     H_    0.505314 0.659354 0.652920 0.000000
H699  H     H_    0.538079 0.610479 0.712677 0.000000
H700  H     H_    0.575715 0.645720 0.699045 0.000000
H701  H     H_    0.705079 0.701386 0.653254 0.000000
H702  H     H_    0.681488 0.767540 0.576858 0.000000
H703  H     H_    0.520310 0.765516 0.505683 0.000000
H704  H     H_    0.636237 0.826802 0.449296 0.000000
C705  C     C_3   0.383155 0.785605 0.510911 0.000000
C706  C     C_3   0.431858 0.746717 0.551141 0.000000
C707  C     C_3   0.467968 0.745792 0.594011 0.000000
C708  C     C_R   0.416546 0.710071 0.565026 0.000000
N129  N     N_R   0.372984 0.699898 0.577522 0.000000
C709  C     C_R   0.350985 0.687753 0.549685 0.000000
C710  C     C_R   0.300703 0.681922 0.535389 0.000000
C711  C     C_R   0.294967 0.661967 0.514958 0.000000
C712  C     C_R   0.342663 0.642356 0.519901 0.000000
C713  C     C_R   0.387737 0.654402 0.527276 0.000000
C714  C     C_R   0.385549 0.682737 0.532557 0.000000
N130  N     N_R   0.426947 0.696672 0.540646 0.000000
C715  C     C_2   0.353629 0.603323 0.531505 0.000000
O129  O     O_2   0.326679 0.582156 0.547528 0.000000
O130  O     O_2   0.402705 0.586390 0.538318 0.000000
H705  H     H_    0.346739 0.780310 0.492053 0.000000
H706  H     H_    0.373407 0.798394 0.527971 0.000000
H707  H     H_    0.395427 0.807717 0.482230 0.000000
H708  H     H_    0.456904 0.748210 0.531933 0.000000
H709  H     H_    0.507050 0.719713 0.620965 0.000000
H710  H     H_    0.479880 0.772943 0.576218 0.000000
H711  H     H_    0.442894 0.747233 0.611954 0.000000
H712  H     H_    0.266123 0.693895 0.537060 0.000000
H713  H     H_    0.256446 0.656588 0.503523 0.000000
H714  H     H_    0.427919 0.636726 0.539958 0.000000
H715  H     H_    0.417712 0.557611 0.559191 0.000000
C716  C     C_3   0.904165 0.393471 0.847848 0.000000
C717  C     C_3   0.844608 0.422174 0.815564 0.000000
C718  C     C_3   0.835537 0.448944 0.828771 0.000000
C719  C     C_R   0.826287 0.449920 0.759554 0.000000
N131  N     N_R   0.845726 0.482641 0.736584 0.000000
C720  C     C_R   0.807088 0.504895 0.688122 0.000000
C721  C     C_R   0.794843 0.545700 0.655599 0.000000
C722  C     C_R   0.740875 0.568232 0.623644 0.000000
C723  C     C_R   0.706819 0.547844 0.637884 0.000000
C724  C     C_R   0.715870 0.512562 0.645813 0.000000
C725  C     C_R   0.768551 0.486880 0.680917 0.000000
N132  N     N_R   0.780018 0.450363 0.725080 0.000000
C726  C     C_2   0.702514 0.544553 0.679375 0.000000
O131  O     O_2   0.707084 0.570837 0.683001 0.000000
O132  O     O_2   0.697887 0.511157 0.715838 0.000000
H716  H     H_    0.931927 0.410012 0.835819 0.000000
H717  H     H_    0.917616 0.378277 0.889045 0.000000
H718  H     H_    0.907075 0.370380 0.842673 0.000000
H719  H     H_    0.817306 0.403892 0.823176 0.000000
H720  H     H_    0.792097 0.468603 0.801431 0.000000
H721  H     H_    0.843688 0.431437 0.869329 0.000000
H722  H     H_    0.858722 0.470124 0.818614 0.000000
H723  H     H_    0.819374 0.559989 0.666175 0.000000
H724  H     H_    0.729503 0.599265 0.606520 0.000000
H725  H     H_    0.683451 0.501186 0.645785 0.000000
H726  H     H_    0.691030 0.510233 0.741001 0.000000
C727  C     C_3   0.997064 0.553445 0.782004 0.000000
C728  C     C_3   0.018809 0.538103 0.759585 0.000000
C729  C     C_3   0.071719 0.546096 0.764012 0.000000
C730  C     C_R   0.026129 0.494299 0.787883 0.000000
N133  N     N_R   0.981258 0.484757 0.796224 0.000000
C731  C     C_R   0.007562 0.452384 0.847259 0.000000
C732  C     C_R   0.985691 0.434850 0.881164 0.000000
C733  C     C_R   0.021063 0.408472 0.933397 0.000000
C734  C     C_R   0.078126 0.400982 0.951720 0.000000
C735  C     C_R   0.100184 0.416133 0.917709 0.000000
C736  C     C_R   0.064287 0.441582 0.865923 0.000000
N134  N     N_R   0.078095 0.464724 0.828463 0.000000
C737  C     C_2   0.113581 0.382724 0.005510 0.000000
O133  O     O_2   0.097215 0.364185 0.037398 0.000000
O134  O     O_2   0.161285 0.390675 0.018431 0.000000
H727  H     H_    0.952317 0.557279 0.769678 0.000000
H728  H     H_    0.021335 0.532057 0.824589 0.000000
H729  H     H_    0.001777 0.583259 0.767759 0.000000
H730  H     H_    0.990269 0.554683 0.719005 0.000000
H731  H     H_    0.089373 0.528617 0.756090 0.000000
H732  H     H_    0.063792 0.578664 0.734923 0.000000
H733  H     H_    0.097685 0.536351 0.802700 0.000000
H734  H     H_    0.942234 0.443875 0.868936 0.000000
H735  H     H_    0.002985 0.397466 0.959420 0.000000
H736  H     H_    0.143918 0.411364 0.931405 0.000000
H737  H     H_    0.182123 0.382366 0.052522 0.000000
C738  C     C_3   0.732763 0.652540 0.619712 0.000000
C739  C     C_3   0.791167 0.627603 0.664289 0.000000
C740  C     C_3   0.816667 0.655257 0.672238 0.000000
C741  C     C_R   0.799749 0.590573 0.715383 0.000000
N135  N     N_R   0.777227 0.594229 0.743088 0.000000
C742  C     C_R   0.817875 0.565889 0.791739 0.000000
C743  C     C_R   0.822108 0.561411 0.834156 0.000000
C744  C     C_R   0.870667 0.535056 0.879914 0.000000
C745  C     C_R   0.915376 0.515391 0.881756 0.000000
C746  C     C_R   0.909871 0.520305 0.838380 0.000000
C747  C     C_R   0.860111 0.544816 0.793874 0.000000
N136  N     N_R   0.849218 0.557338 0.746539 0.000000
C748  C     C_2   0.969904 0.492700 0.928018 0.000000
O135  O     O_2   0.973229 0.483373 0.968316 0.000000
O136  O     O_2   0.016903 0.484067 0.925513 0.000000
H738  H     H_    0.701031 0.639560 0.629023 0.000000
H739  H     H_    0.723407 0.683704 0.605688 0.000000
H740  H     H_    0.732498 0.655890 0.586484 0.000000
H741  H     H_    0.812659 0.617316 0.650733 0.000000
H742  H     H_    0.860183 0.638195 0.703918 0.000000
H743  H     H_    0.815853 0.680744 0.636262 0.000000
H744  H     H_    0.792155 0.667858 0.682549 0.000000
H745  H     H_    0.788934 0.578793 0.831449 0.000000
H746  H     H_    0.874558 0.532223 0.913013 0.000000
H747  H     H_    0.945393 0.508492 0.838163 0.000000
H748  H     H_    0.052918 0.470270 0.955626 0.000000
C749  C     C_3   0.199360 0.608254 0.500023 0.000000
C750  C     C_3   0.190072 0.568164 0.526676 0.000000
C751  C     C_3   0.165837 0.560941 0.487532 0.000000
C752  C     C_R   0.231854 0.536227 0.584706 0.000000
N137  N     N_R   0.276824 0.499967 0.611649 0.000000
C753  C     C_R   0.290758 0.484955 0.660379 0.000000
C754  C     C_R   0.328435 0.449008 0.704207 0.000000
C755  C     C_R   0.354838 0.446494 0.746319 0.000000
C756  C     C_R   0.334987 0.476696 0.745979 0.000000
C757  C     C_R   0.281263 0.503126 0.709203 0.000000
C758  C     C_R   0.261735 0.509185 0.663796 0.000000
N138  N     N_R   0.222144 0.541477 0.617490 0.000000
C759  C     C_2   0.372246 0.481618 0.781790 0.000000
O137  O     O_2   0.421538 0.460674 0.809255 0.000000
O138  O     O_2   0.352863 0.510175 0.783461 0.000000
H749  H     H_    0.234477 0.607368 0.491764 0.000000
H750  H     H_    0.162993 0.631165 0.461970 0.000000
H751  H     H_    0.202328 0.618734 0.522319 0.000000
H752  H     H_    0.152738 0.575022 0.529879 0.000000
H753  H     H_    0.125395 0.556155 0.484839 0.000000
H754  H     H_    0.154867 0.588485 0.448414 0.000000
H755  H     H_    0.193576 0.537115 0.493510 0.000000
H756  H     H_    0.337984 0.424236 0.705238 0.000000
H757  H     H_    0.392388 0.422773 0.777294 0.000000
H758  H     H_    0.262057 0.523551 0.712214 0.000000
H759  H     H_    0.377525 0.510903 0.809581 0.000000
C760  C     C_3   0.312599 0.585307 0.619365 0.000000
C761  C     C_3   0.310748 0.588325 0.657969 0.000000
C762  C     C_3   0.368072 0.582802 0.689265 0.000000
C763  C     C_R   0.265766 0.625550 0.632061 0.000000
N139  N     N_R   0.274644 0.660867 0.623085 0.000000
C764  C     C_R   0.220960 0.684864 0.597922 0.000000
C765  C     C_R   0.203546 0.722993 0.581853 0.000000
C766  C     C_R   0.147135 0.743840 0.555523 0.000000
C767  C     C_R   0.108102 0.726423 0.545767 0.000000
C768  C     C_R   0.126008 0.686770 0.563809 0.000000
C769  C     C_R   0.182992 0.666192 0.590451 0.000000
N140  N     N_R   0.209486 0.627392 0.612836 0.000000
C770  C     C_2   0.048419 0.750798 0.517031 0.000000
O139  O     O_2   0.034809 0.785304 0.501771 0.000000
O140  O     O_2   0.008350 0.735690 0.507225 0.000000
H760  H     H_    0.347098 0.595150 0.611851 0.000000
H761  H     H_    0.320577 0.554379 0.633726 0.000000
H762  H     H_    0.272084 0.604359 0.585211 0.000000
H763  H     H_    0.300575 0.564490 0.684426 0.000000
H764  H     H_    0.371795 0.569904 0.727022 0.000000
H765  H     H_    0.397972 0.558994 0.696097 0.000000
H766  H     H_    0.374776 0.611890 0.668778 0.000000
H767  H     H_    0.232754 0.736330 0.590585 0.000000
H768  H     H_    0.134101 0.774036 0.543020 0.000000
H769  H     H_    0.096737 0.672389 0.557165 0.000000
H770  H     H_    0.969348 0.752079 0.488312 0.000000
C771  C     C_3   0.151361 0.465401 0.693404 0.000000
C772  C     C_3   0.121213 0.491993 0.699255 0.000000
C773  C     C_3   0.087548 0.472025 0.726868 0.000000
C774  C     C_R   0.159176 0.505749 0.724072 0.000000
N141  N     N_R   0.171763 0.492369 0.773726 0.000000
C775  C     C_R   0.187338 0.523039 0.770825 0.000000
C776  C     C_R   0.198908 0.529201 0.805946 0.000000
C777  C     C_R   0.196896 0.567094 0.791134 0.000000
C778  C     C_R   0.183638 0.598651 0.740746 0.000000
C779  C     C_R   0.178176 0.590950 0.706952 0.000000
C780  C     C_R   0.181799 0.552674 0.723294 0.000000
N142  N     N_R   0.168154 0.541989 0.693232 0.000000
C781  C     C_2   0.173421 0.640093 0.722987 0.000000
O141  O     O_2   0.175566 0.646967 0.752276 0.000000
O142  O     O_2   0.161923 0.670690 0.674454 0.000000
H771  H     H_    0.191940 0.469595 0.695929 0.000000
H772  H     H_    0.156848 0.433514 0.721984 0.000000
H773  H     H_    0.124835 0.474146 0.655482 0.000000
H774  H     H_    0.091531 0.519073 0.659832 0.000000
H775  H     H_    0.051925 0.495393 0.715081 0.000000
H776  H     H_    0.073180 0.452093 0.718509 0.000000
H777  H     H_    0.111881 0.453564 0.768267 0.000000
H778  H     H_    0.209490 0.505023 0.843976 0.000000
H779  H     H_    0.203163 0.572017 0.818761 0.000000
H780  H     H_    0.164067 0.615190 0.667178 0.000000
H781  H     H_    0.155627 0.697840 0.663119 0.000000
C782  C     C_3   0.379883 0.172618 0.534277 0.000000
C783  C     C_3   0.367279 0.153211 0.508780 0.000000
C784  C     C_3   0.381251 0.173733 0.464404 0.000000
C785  C     C_R   0.398558 0.109036 0.546372 0.000000
N143  N     N_R   0.388505 0.080118 0.587135 0.000000
C786  C     C_R   0.426067 0.046526 0.606039 0.000000
C787  C     C_R   0.441954 0.009846 0.651213 0.000000
C788  C     C_R   0.498707 0.991475 0.681244 0.000000
C789  C     C_R   0.532732 0.001400 0.658287 0.000000
C790  C     C_R   0.510357 0.028201 0.607169 0.000000
C791  C     C_R   0.458743 0.054471 0.582844 0.000000
N144  N     N_R   0.443141 0.093374 0.544115 0.000000
C792  C     C_2   0.592369 0.988042 0.687511 0.000000
O143  O     O_2   0.611048 0.987540 0.723795 0.000000
O144  O     O_2   0.627004 0.979414 0.672930 0.000000
H782  H     H_    0.421342 0.176307 0.540334 0.000000
H783  H     H_    0.348140 0.203014 0.508878 0.000000
H784  H     H_    0.379633 0.153687 0.571851 0.000000
H785  H     H_    0.322864 0.157563 0.491445 0.000000
H786  H     H_    0.372108 0.159760 0.445517 0.000000
H787  H     H_    0.354965 0.206101 0.435778 0.000000
H788  H     H_    0.425633 0.171449 0.478112 0.000000
H789  H     H_    0.412304 0.999605 0.664485 0.000000
H790  H     H_    0.517402 0.971580 0.722031 0.000000
H791  H     H_    0.538887 0.034799 0.592334 0.000000
H792  H     H_    0.666473 0.972130 0.693090 0.000000
C793  C     C_3   0.357222 0.074166 0.755675 0.000000
C794  C     C_3   0.310933 0.074074 0.716413 0.000000
C795  C     C_3   0.264689 0.063568 0.729433 0.000000
C796  C     C_R   0.287572 0.111494 0.661574 0.000000
N145  N     N_R   0.247836 0.148692 0.637137 0.000000
C797  C     C_R   0.249153 0.171238 0.591950 0.000000
C798  C     C_R   0.228865 0.212114 0.556028 0.000000
C799  C     C_R   0.224160 0.229117 0.508009 0.000000
C800  C     C_R   0.237869 0.204451 0.496821 0.000000
C801  C     C_R   0.264979 0.162994 0.536508 0.000000
C802  C     C_R   0.275696 0.148134 0.585073 0.000000
N146  N     N_R   0.302733 0.109840 0.628898 0.000000
C803  C     C_2   0.223612 0.222802 0.443260 0.000000
O145  O     O_2   0.207084 0.259414 0.410654 0.000000
O146  O     O_2   0.226254 0.199634 0.429258 0.000000
H793  H     H_    0.360838 0.104609 0.737672 0.000000
H794  H     H_    0.352427 0.062099 0.790551 0.000000
H795  H     H_    0.397329 0.052836 0.770122 0.000000
H796  H     H_    0.332138 0.049581 0.719160 0.000000
H797  H     H_    0.225612 0.087429 0.695748 0.000000
H798  H     H_    0.264118 0.034608 0.737860 0.000000
H799  H     H_    0.269675 0.060716 0.762960 0.000000
H800  H     H_    0.220897 0.230058 0.566581 0.000000
H801  H     H_    0.206687 0.261568 0.478780 0.000000
H802  H     H_    0.274557 0.142090 0.530186 0.000000
H803  H     H_    0.216140 0.212052 0.393840 0.000000
C804  C     C_3   0.215017 0.057308 0.639812 0.000000
C805  C     C_3   0.258344 0.018365 0.670160 0.000000
C806  C     C_3   0.253200 0.982919 0.713236 0.000000
C807  C     C_R   0.261972 0.015549 0.632450 0.000000
N147  N     N_R   0.232783 0.999658 0.610007 0.000000
C808  C     C_R   0.243867 0.015708 0.569734 0.000000
C809  C     C_R   0.225373 0.011379 0.532518 0.000000
C810  C     C_R   0.229106 0.038551 0.488026 0.000000
C811  C     C_R   0.252715 0.067911 0.482514 0.000000
C812  C     C_R   0.278477 0.067620 0.523832 0.000000
C813  C     C_R   0.275381 0.039959 0.567925 0.000000
N148  N     N_R   0.291026 0.038115 0.609413 0.000000
C814  C     C_2   0.247012 0.100693 0.431901 0.000000
O147  O     O_2   0.229054 0.099167 0.396731 0.000000
O148  O     O_2   0.260396 0.133106 0.423706 0.000000
H804  H     H_    0.190405 0.065230 0.602129 0.000000
H805  H     H_    0.194743 0.056170 0.662200 0.000000
H806  H     H_    0.232131 0.081284 0.628928 0.000000
H807  H     H_    0.296926 0.022402 0.687144 0.000000
H808  H     H_    0.256099 0.958517 0.710687 0.000000
H809  H     H_    0.289024 0.972406 0.747880 0.000000
H810  H     H_    0.218574 0.991147 0.718531 0.000000
H811  H     H_    0.202001 0.991385 0.534543 0.000000
H812  H     H_    0.208115 0.039580 0.455497 0.000000
H813  H     H_    0.295981 0.090568 0.520089 0.000000
H814  H     H_    0.256486 0.154706 0.390341 0.000000
C815  C     C_3   0.613124 0.112600 0.656208 0.000000
C816  C     C_3   0.581935 0.086452 0.651178 0.000000
C817  C     C_3   0.521315 0.112579 0.616209 0.000000
C818  C     C_R   0.606053 0.069298 0.632604 0.000000
N149  N     N_R   0.579766 0.083382 0.581624 0.000000
C819  C     C_R   0.623748 0.082291 0.573591 0.000000
C820  C     C_R   0.620483 0.092862 0.529153 0.000000
C821  C     C_R   0.669198 0.083843 0.529417 0.000000
C822  C     C_R   0.718893 0.068786 0.570987 0.000000
C823  C     C_R   0.722617 0.057762 0.616741 0.000000
C824  C     C_R   0.673135 0.063121 0.617792 0.000000
N150  N     N_R   0.664298 0.051856 0.658064 0.000000
C825  C     C_2   0.766026 0.067671 0.562418 0.000000
O149  O     O_2   0.787709 0.092872 0.557345 0.000000
O150  O     O_2   0.775302 0.046810 0.546635 0.000000
H815  H     H_    0.611854 0.136041 0.618851 0.000000
H816  H     H_    0.594447 0.127041 0.668262 0.000000
H817  H     H_    0.656484 0.093188 0.686270 0.000000
H818  H     H_    0.591165 0.060940 0.689894 0.000000
H819  H     H_    0.515297 0.138023 0.577989 0.000000
H820  H     H_    0.496455 0.094398 0.613572 0.000000
H821  H     H_    0.507180 0.124831 0.632477 0.000000
H822  H     H_    0.581403 0.103756 0.497041 0.000000
H823  H     H_    0.669069 0.088899 0.496789 0.000000
H824  H     H_    0.762339 0.043823 0.650441 0.000000
H825  H     H_    0.803612 0.047321 0.536069 0.000000
C826  C     C_3   0.714870 0.150968 0.652501 0.000000
C827  C     C_3   0.748823 0.114888 0.662682 0.000000
C828  C     C_3   0.774839 0.125118 0.627590 0.000000
C829  C     C_R   0.790429 0.087105 0.717641 0.000000
N151  N     N_R   0.832857 0.097161 0.741524 0.000000
C830  C     C_R   0.844417 0.069150 0.790875 0.000000
C831  C     C_R   0.881118 0.065800 0.831769 0.000000
C832  C     C_R   0.876847 0.043304 0.876703 0.000000
C833  C     C_R   0.836733 0.024452 0.879612 0.000000
C834  C     C_R   0.806962 0.022467 0.840920 0.000000
C835  C     C_R   0.811552 0.044927 0.796230 0.000000
N152  N     N_R   0.779295 0.052921 0.750876 0.000000
C836  C     C_2   0.821827 0.010181 0.921151 0.000000
O151  O     O_2   0.853128 0.005013 0.959788 0.000000
O152  O     O_2   0.770864 0.006785 0.914321 0.000000
H826  H     H_    0.742439 0.161027 0.670945 0.000000
H827  H     H_    0.686655 0.175076 0.610877 0.000000
H828  H     H_    0.689820 0.141848 0.673190 0.000000
H829  H     H_    0.719948 0.099625 0.656092 0.000000
H830  H     H_    0.776268 0.103449 0.620408 0.000000
H831  H     H_    0.749793 0.155393 0.589904 0.000000
H832  H     H_    0.818714 0.121372 0.646913 0.000000
H833  H     H_    0.907933 0.083877 0.827178 0.000000
H834  H     H_    0.901066 0.044021 0.907339 0.000000
H835  H     H_    0.778203 0.005960 0.844755 0.000000
H836  H     H_    0.758891 0.000926 0.939553 0.000000
C837  C     C_3   0.794818 0.970093 0.649184 0.000000
C838  C     C_3   0.765301 0.961926 0.680680 0.000000
C839  C     C_3   0.751646 0.924555 0.695324 0.000000
C840  C     C_R   0.805349 0.953262 0.728158 0.000000
N153  N     N_R   0.858746 0.925111 0.755755 0.000000
C841  C     C_R   0.878299 0.921948 0.798706 0.000000
C842  C     C_R   0.930896 0.901795 0.838416 0.000000
C843  C     C_R   0.942983 0.900278 0.880190 0.000000
C844  C     C_R   0.903472 0.922393 0.880132 0.000000
C845  C     C_R   0.851933 0.947605 0.836396 0.000000
C846  C     C_R   0.840505 0.947056 0.796009 0.000000
N154  N     N_R   0.793074 0.968871 0.751055 0.000000
C847  C     C_2   0.918733 0.919764 0.925738 0.000000
O153  O     O_2   0.966693 0.901239 0.960515 0.000000
O154  O     O_2   0.880407 0.937051 0.930214 0.000000
H837  H     H_    0.823558 0.940911 0.667478 0.000000
H838  H     H_    0.769084 0.982974 0.609200 0.000000
H839  H     H_    0.815873 0.991006 0.649161 0.000000
H840  H     H_    0.726699 0.986492 0.660713 0.000000
H841  H     H_    0.773949 0.902004 0.737363 0.000000
H842  H     H_    0.706285 0.932981 0.680287 0.000000
H843  H     H_    0.763723 0.911655 0.679267 0.000000
H844  H     H_    0.963891 0.894430 0.832866 0.000000
H845  H     H_    0.984580 0.882795 0.912099 0.000000
H846  H     H_    0.819762 0.964981 0.834802 0.000000
H847  H     H_    0.892221 0.935285 0.960399 0.000000
C848  C     C_3   0.288940 0.846964 0.824063 0.000000
C849  C     C_3   0.252243 0.860584 0.771731 0.000000
C850  C     C_3   0.235812 0.827399 0.771718 0.000000
C851  C     C_R   0.203566 0.896275 0.745424 0.000000
N155  N     N_R   0.181135 0.905032 0.770482 0.000000
C852  C     C_R   0.152748 0.944757 0.731738 0.000000
C853  C     C_R   0.129875 0.973300 0.732755 0.000000
C854  C     C_R   0.111772 0.013342 0.690308 0.000000
C855  C     C_R   0.111730 0.024006 0.645729 0.000000
C856  C     C_R   0.135073 0.995414 0.646148 0.000000
C857  C     C_R   0.154897 0.956979 0.688306 0.000000
N156  N     N_R   0.186199 0.928471 0.693871 0.000000
C858  C     C_2   0.100080 0.064250 0.601059 0.000000
O155  O     O_2   0.098232 0.070023 0.562870 0.000000
O156  O     O_2   0.102251 0.093550 0.604680 0.000000
H848  H     H_    0.262879 0.848177 0.840461 0.000000
H849  H     H_    0.319965 0.816412 0.848663 0.000000
H850  H     H_    0.307903 0.870045 0.819698 0.000000
H851  H     H_    0.277057 0.870144 0.750686 0.000000
H852  H     H_    0.211108 0.839398 0.731405 0.000000
H853  H     H_    0.274274 0.802314 0.790994 0.000000
H854  H     H_    0.210732 0.815882 0.791964 0.000000
H855  H     H_    0.127700 0.965928 0.765447 0.000000
H856  H     H_    0.097385 0.035435 0.693050 0.000000
H857  H     H_    0.147313 0.004178 0.617611 0.000000
H858  H     H_    0.110199 0.115632 0.580723 0.000000
C859  C     C_3   0.117349 0.948925 0.922649 0.000000
C860  C     C_3   0.117157 0.930188 0.897190 0.000000
C861  C     C_3   0.057678 0.936331 0.866508 0.000000
C862  C     C_R   0.149094 0.945809 0.866607 0.000000
N157  N     N_R   0.167112 0.978271 0.858293 0.000000
C863  C     C_R   0.204942 0.974917 0.844612 0.000000
C864  C     C_R   0.239481 0.996049 0.841295 0.000000
C865  C     C_R   0.282400 0.986669 0.835281 0.000000
C866  C     C_R   0.290165 0.956077 0.833330 0.000000
C867  C     C_R   0.255633 0.932636 0.838576 0.000000
C868  C     C_R   0.211212 0.943454 0.843980 0.000000
N158  N     N_R   0.173324 0.924927 0.854060 0.000000
C869  C     C_2   0.342944 0.946251 0.836631 0.000000
O157  O     O_2   0.376673 0.913433 0.873836 0.000000
O158  O     O_2   0.359220 0.977297 0.809224 0.000000
H859  H     H_    0.160803 0.944741 0.945755 0.000000
H860  H     H_    0.092023 0.981183 0.893088 0.000000
H861  H     H_    0.098478 0.933936 0.948747 0.000000
H862  H     H_    0.137371 0.897868 0.928672 0.000000
H863  H     H_    0.056136 0.924205 0.846002 0.000000
H864  H     H_    0.041011 0.919570 0.893790 0.000000
H865  H     H_    0.032037 0.968427 0.840195 0.000000
H866  H     H_    0.240818 0.012076 0.855557 0.000000
H867  H     H_    0.314457 0.999923 0.838833 0.000000
H868  H     H_    0.265145 0.906269 0.841377 0.000000
H869  H     H_    0.397176 0.976682 0.820629 0.000000
C870  C     C_3   0.099404 0.868280 0.745210 0.000000
C871  C     C_3   0.049479 0.861850 0.753121 0.000000
C872  C     C_3   0.056577 0.817347 0.780771 0.000000
C873  C     C_R   0.040964 0.873445 0.783626 0.000000
N159  N     N_R   0.995955 0.864510 0.793214 0.000000
C874  C     C_R   0.020550 0.842904 0.844439 0.000000
C875  C     C_R   0.999513 0.819754 0.877019 0.000000
C876  C     C_R   0.025559 0.806491 0.926641 0.000000
C877  C     C_R   0.069390 0.818940 0.941352 0.000000
C878  C     C_R   0.091993 0.840335 0.908362 0.000000
C879  C     C_R   0.070097 0.848801 0.861496 0.000000
N160  N     N_R   0.086736 0.867921 0.824437 0.000000
C880  C     C_2   0.089469 0.810824 0.990903 0.000000
O159  O     O_2   0.077224 0.786090 0.023329 0.000000
O160  O     O_2   0.118649 0.832230 0.999730 0.000000
H870  H     H_    0.136933 0.849726 0.782420 0.000000
H871  H     H_    0.102763 0.860831 0.720834 0.000000
H872  H     H_    0.094229 0.899713 0.726583 0.000000
H873  H     H_    0.011774 0.879344 0.715421 0.000000
H874  H     H_    0.018333 0.811237 0.783726 0.000000
H875  H     H_    0.064813 0.808493 0.759077 0.000000
H876  H     H_    0.092088 0.798579 0.820086 0.000000
H877  H     H_    0.962930 0.813092 0.864048 0.000000
H878  H     H_    0.007992 0.789547 0.952053 0.000000
H879  H     H_    0.124864 0.851057 0.918282 0.000000
H880  H     H_    0.130700 0.827411 0.031968 0.000000
C881  C     C_3   0.525425 0.847288 0.722791 0.000000
C882  C     C_3   0.505575 0.823605 0.706401 0.000000
C883  C     C_3   0.552717 0.792925 0.719505 0.000000
C884  C     C_R   0.476847 0.801991 0.734578 0.000000
N161  N     N_R   0.504715 0.773391 0.787907 0.000000
C885  C     C_R   0.465771 0.755607 0.795384 0.000000
C886  C     C_R   0.473134 0.717022 0.835218 0.000000
C887  C     C_R   0.425336 0.707336 0.835633 0.000000
C888  C     C_R   0.372520 0.736688 0.798497 0.000000
C889  C     C_R   0.367450 0.772981 0.755131 0.000000
C890  C     C_R   0.415650 0.777770 0.751682 0.000000
N162  N     N_R   0.421534 0.805664 0.710332 0.000000
C891  C     C_2   0.322279 0.727134 0.801784 0.000000
O161  O     O_2   0.326636 0.693435 0.836859 0.000000
O162  O     O_2   0.271070 0.754938 0.765031 0.000000
H881  H     H_    0.564339 0.850766 0.723020 0.000000
H882  H     H_    0.492037 0.876826 0.696942 0.000000
H883  H     H_    0.535723 0.830285 0.762835 0.000000
H884  H     H_    0.475015 0.843481 0.665900 0.000000
H885  H     H_    0.574503 0.768087 0.761062 0.000000
H886  H     H_    0.534405 0.779476 0.702153 0.000000
H887  H     H_    0.581964 0.806141 0.705357 0.000000
H888  H     H_    0.514265 0.695166 0.865344 0.000000
H889  H     H_    0.429704 0.677207 0.866269 0.000000
H890  H     H_    0.327152 0.795630 0.723747 0.000000
H891  H     H_    0.238075 0.748350 0.767055 0.000000
C892  C     C_3   0.750828 0.691893 0.839859 0.000000
C893  C     C_3   0.723135 0.709006 0.857011 0.000000
C894  C     C_3   0.771117 0.713092 0.890541 0.000000
C895  C     C_R   0.679599 0.750072 0.813213 0.000000
N163  N     N_R   0.697859 0.777505 0.779566 0.000000
C896  C     C_R   0.693446 0.805371 0.785369 0.000000
C897  C     C_R   0.709313 0.838164 0.764037 0.000000
C898  C     C_R   0.698961 0.864032 0.773479 0.000000
C899  C     C_R   0.663122 0.861696 0.793043 0.000000
C900  C     C_R   0.645960 0.829591 0.811441 0.000000
C901  C     C_R   0.665522 0.799481 0.812323 0.000000
N164  N     N_R   0.649676 0.766913 0.826515 0.000000
C902  C     C_2   0.618888 0.898343 0.763613 0.000000
O163  O     O_2   0.605138 0.910132 0.783748 0.000000
O164  O     O_2   0.584809 0.912511 0.715870 0.000000
H892  H     H_    0.769658 0.713279 0.819222 0.000000
H893  H     H_    0.785576 0.663317 0.873551 0.000000
H894  H     H_    0.720655 0.686249 0.816645 0.000000
H895  H     H_    0.704337 0.687514 0.878424 0.000000
H896  H     H_    0.793026 0.730847 0.869105 0.000000
H897  H     H_    0.756688 0.728818 0.902980 0.000000
H898  H     H_    0.802366 0.682840 0.924008 0.000000
H899  H     H_    0.724130 0.845784 0.736763 0.000000
H900  H     H_    0.704636 0.892368 0.753042 0.000000
H901  H     H_    0.604443 0.837062 0.803334 0.000000
H902  H     H_    0.547597 0.931122 0.695109 0.000000
C903  C     C_3   0.460636 0.714839 0.929743 0.000000
C904  C     C_3   0.504947 0.730722 0.916277 0.000000
C905  C     C_3   0.508491 0.763378 0.920036 0.000000
C906  C     C_R   0.561368 0.699838 0.942439 0.000000
N165  N     N_R   0.585591 0.660392 0.990086 0.000000
C907  C     C_R   0.633872 0.648287 0.991764 0.000000
C908  C     C_R   0.674729 0.612966 0.031275 0.000000
C909  C     C_R   0.727718 0.607691 0.035949 0.000000
C910  C     C_R   0.738194 0.639678 0.000221 0.000000
C911  C     C_R   0.693794 0.674433 0.956380 0.000000
C912  C     C_R   0.641131 0.677582 0.952156 0.000000
N166  N     N_R   0.595213 0.710675 0.918343 0.000000
C913  C     C_2   0.796402 0.638236 0.013911 0.000000
O165  O     O_2   0.808256 0.668239 0.003841 0.000000
O166  O     O_2   0.837598 0.602799 0.042836 0.000000
H903  H     H_    0.471483 0.701810 0.969374 0.000000
H904  H     H_    0.419792 0.739781 0.903411 0.000000
H905  H     H_    0.456090 0.692641 0.923886 0.000000
H906  H     H_    0.488271 0.748238 0.875139 0.000000
H907  H     H_    0.492662 0.792027 0.882282 0.000000
H908  H     H_    0.478170 0.766182 0.932729 0.000000
H909  H     H_    0.552185 0.759038 0.941228 0.000000
H910  H     H_    0.666313 0.594651 0.061748 0.000000
H911  H     H_    0.761912 0.581132 0.071019 0.000000
H912  H     H_    0.700454 0.700198 0.929134 0.000000
H913  H     H_    0.876228 0.601589 0.053684 0.000000
C914  C     C_3   0.881216 0.245506 0.632987 0.000000
C915  C     C_3   0.922866 0.231965 0.684336 0.000000
C916  C     C_3   0.953146 0.260598 0.679536 0.000000
C917  C     C_R   0.898706 0.217946 0.720526 0.000000
N167  N     N_R   0.893521 0.235368 0.743272 0.000000
C918  C     C_R   0.870605 0.211195 0.772385 0.000000
C919  C     C_R   0.856689 0.212697 0.804866 0.000000
C920  C     C_R   0.829633 0.187136 0.828320 0.000000
C921  C     C_R   0.815379 0.161195 0.817930 0.000000
C922  C     C_R   0.831519 0.158986 0.786353 0.000000
C923  C     C_R   0.861313 0.182761 0.766151 0.000000
N168  N     N_R   0.880945 0.184225 0.735512 0.000000
C924  C     C_2   0.782664 0.136649 0.839742 0.000000
O167  O     O_2   0.766612 0.116194 0.827617 0.000000
O168  O     O_2   0.769657 0.136905 0.872811 0.000000
H914  H     H_    0.898009 0.229025 0.622732 0.000000
H915  H     H_    0.842209 0.242113 0.634800 0.000000
H916  H     H_    0.871390 0.277082 0.602188 0.000000
H917  H     H_    0.956792 0.206432 0.701551 0.000000
H918  H     H_    0.955888 0.266315 0.706501 0.000000
H919  H     H_    0.994396 0.245490 0.687676 0.000000
H920  H     H_    0.935912 0.288553 0.640146 0.000000
H921  H     H_    0.866148 0.233232 0.811934 0.000000
H922  H     H_    0.817864 0.188794 0.853366 0.000000
H923  H     H_    0.818609 0.140953 0.775319 0.000000
H924  H     H_    0.748029 0.120761 0.886971 0.000000
C925  C     C_3   0.071453 0.232490 0.768906 0.000000
C926  C     C_3   0.052781 0.226804 0.807480 0.000000
C927  C     C_3   0.088340 0.189807 0.863502 0.000000
C928  C     C_R   0.041438 0.263433 0.802699 0.000000
N169  N     N_R   0.081091 0.280182 0.815381 0.000000
C929  C     C_R   0.048018 0.311185 0.804995 0.000000
C930  C     C_R   0.058433 0.346375 0.787751 0.000000
C931  C     C_R   0.018249 0.379219 0.768803 0.000000
C932  C     C_R   0.969132 0.375093 0.769809 0.000000
C933  C     C_R   0.956158 0.341981 0.778770 0.000000
C934  C     C_R   0.994715 0.311510 0.791643 0.000000
N170  N     N_R   0.986478 0.284225 0.784178 0.000000
C935  C     C_2   0.930499 0.406717 0.759141 0.000000
O169  O     O_2   0.947467 0.430163 0.764864 0.000000
O170  O     O_2   0.875700 0.411941 0.740716 0.000000
H925  H     H_    0.111277 0.236698 0.772544 0.000000
H926  H     H_    0.070653 0.207692 0.767056 0.000000
H927  H     H_    0.043338 0.261577 0.731588 0.000000
H928  H     H_    0.011464 0.223006 0.795919 0.000000
H929  H     H_    0.059870 0.178325 0.880422 0.000000
H930  H     H_    0.112468 0.165558 0.867014 0.000000
H931  H     H_    0.115803 0.197813 0.885578 0.000000
H932  H     H_    0.092014 0.350735 0.778730 0.000000
H933  H     H_    0.025698 0.407545 0.753921 0.000000
H934  H     H_    0.915806 0.342166 0.771173 0.000000
H935  H     H_    0.856865 0.396601 0.732992 0.000000
C936  C     C_3   0.269968 0.215878 0.723891 0.000000
C937  C     C_3   0.208754 0.220577 0.703456 0.000000
C938  C     C_3   0.176993 0.231827 0.723923 0.000000
C939  C     C_R   0.184198 0.249474 0.647724 0.000000
N171  N     N_R   0.172421 0.291495 0.618641 0.000000
C940  C     C_R   0.150046 0.302985 0.570712 0.000000
C941  C     C_R   0.124530 0.341894 0.525230 0.000000
C942  C     C_R   0.101123 0.347804 0.479608 0.000000
C943  C     C_R   0.101749 0.315064 0.479921 0.000000
C944  C     C_R   0.124678 0.276098 0.526253 0.000000
C945  C     C_R   0.149802 0.270422 0.571452 0.000000
N172  N     N_R   0.172341 0.235090 0.620249 0.000000
C946  C     C_2   0.076733 0.321678 0.431237 0.000000
O171  O     O_2   0.054631 0.355872 0.390340 0.000000
O172  O     O_2   0.078414 0.289990 0.431478 0.000000
H936  H     H_    0.273666 0.245361 0.699171 0.000000
H937  H     H_    0.290235 0.200667 0.765568 0.000000
H938  H     H_    0.292039 0.199369 0.716232 0.000000
H939  H     H_    0.203762 0.192319 0.712704 0.000000
H940  H     H_    0.147673 0.214596 0.729918 0.000000
H941  H     H_    0.206197 0.223475 0.761245 0.000000
H942  H     H_    0.151497 0.264148 0.695575 0.000000
H943  H     H_    0.122715 0.367418 0.524782 0.000000
H944  H     H_    0.081927 0.378332 0.443736 0.000000
H945  H     H_    0.122557 0.250660 0.527079 0.000000
H946  H     H_    0.062069 0.294369 0.399429 0.000000
C947  C     C_3   0.060558 0.335848 0.703724 0.000000
C948  C     C_3   0.103609 0.352986 0.691972 0.000000
C949  C     C_3   0.109144 0.385726 0.696479 0.000000
C950  C     C_R   0.157065 0.320357 0.724224 0.000000
N173  N     N_R   0.185870 0.296100 0.777629 0.000000
C951  C     C_R   0.235505 0.276029 0.787030 0.000000
C952  C     C_R   0.283788 0.248759 0.832751 0.000000
C953  C     C_R   0.330299 0.234149 0.832051 0.000000
C954  C     C_R   0.330190 0.248709 0.786074 0.000000
C955  C     C_R   0.281993 0.276985 0.740452 0.000000
C956  C     C_R   0.234995 0.287905 0.742391 0.000000
N174  N     N_R   0.185364 0.314640 0.701799 0.000000
C957  C     C_2   0.380178 0.233493 0.785773 0.000000
O173  O     O_2   0.422834 0.208778 0.826047 0.000000
O174  O     O_2   0.378324 0.245226 0.741243 0.000000
H947  H     H_    0.081691 0.303541 0.734362 0.000000
H948  H     H_    0.041380 0.350046 0.714392 0.000000
H949  H     H_    0.027172 0.342436 0.669640 0.000000
H950  H     H_    0.091628 0.365693 0.652939 0.000000
H951  H     H_    0.124938 0.405150 0.670165 0.000000
H952  H     H_    0.068973 0.404917 0.684816 0.000000
H953  H     H_    0.139786 0.372786 0.735531 0.000000
H954  H     H_    0.287478 0.238870 0.868756 0.000000
H955  H     H_    0.367492 0.212254 0.867841 0.000000
H956  H     H_    0.281245 0.291845 0.703594 0.000000
H957  H     H_    0.410661 0.234029 0.741358 0.000000
C958  C     C_3   0.999211 0.277083 0.507484 0.000000
C959  C     C_3   0.027469 0.241502 0.564902 0.000000
C960  C     C_3   0.998543 0.246782 0.590756 0.000000
C961  C     C_R   0.036696 0.202728 0.573823 0.000000
N175  N     N_R   0.993670 0.200771 0.539961 0.000000
C962  C     C_R   0.021078 0.197044 0.517091 0.000000
C963  C     C_R   0.995797 0.212403 0.467510 0.000000
C964  C     C_R   0.028097 0.211621 0.445290 0.000000
C965  C     C_R   0.085741 0.194380 0.474575 0.000000
C966  C     C_R   0.111369 0.184456 0.522899 0.000000
C967  C     C_R   0.077716 0.187837 0.542832 0.000000
N176  N     N_R   0.091064 0.186962 0.583796 0.000000
C968  C     C_2   0.118200 0.185270 0.454563 0.000000
O175  O     O_2   0.160873 0.155990 0.484027 0.000000
O176  O     O_2   0.098310 0.207079 0.403400 0.000000
H958  H     H_    0.953418 0.284347 0.489845 0.000000
H959  H     H_    0.009147 0.303735 0.501414 0.000000
H960  H     H_    0.015625 0.270785 0.487168 0.000000
H961  H     H_    0.069180 0.242363 0.581730 0.000000
H962  H     H_    0.026864 0.229932 0.632006 0.000000
H963  H     H_    0.989339 0.278251 0.572657 0.000000
H964  H     H_    0.958177 0.242174 0.583005 0.000000
H965  H     H_    0.951659 0.224749 0.447926 0.000000
H966  H     H_    0.008014 0.221196 0.406764 0.000000
H967  H     H_    0.155717 0.171985 0.545246 0.000000
H968  H     H_    0.118855 0.200678 0.389849 0.000000
C969  C     C_3   0.022812 0.963796 0.637264 0.000000
C970  C     C_3   0.048761 0.952417 0.614044 0.000000
C971  C     C_3   0.018345 0.930304 0.598894 0.000000
C972  C     C_R   0.042968 0.989867 0.567427 0.000000
N177  N     N_R   0.990654 0.020234 0.526930 0.000000
C973  C     C_R   0.006373 0.044249 0.491612 0.000000
C974  C     C_R   0.970673 0.077772 0.442773 0.000000
C975  C     C_R   0.993143 0.101768 0.411938 0.000000
C976  C     C_R   0.050878 0.092912 0.432190 0.000000
C977  C     C_R   0.086686 0.057711 0.482019 0.000000
C978  C     C_R   0.063844 0.031836 0.510679 0.000000
N178  N     N_R   0.089941 0.996189 0.559859 0.000000
C979  C     C_2   0.073303 0.122292 0.401322 0.000000
O177  O     O_2   0.042661 0.150937 0.356196 0.000000
O178  O     O_2   0.127077 0.118936 0.423034 0.000000
H969  H     H_    0.002356 0.942196 0.654517 0.000000
H970  H     H_    0.053205 0.963227 0.667174 0.000000
H971  H     H_    0.994859 0.995344 0.607912 0.000000
H972  H     H_    0.092875 0.932891 0.640546 0.000000
H973  H     H_    0.974431 0.950164 0.572633 0.000000
H974  H     H_    0.035722 0.924741 0.578475 0.000000
H975  H     H_    0.023361 0.901001 0.633619 0.000000
H976  H     H_    0.926378 0.084855 0.429910 0.000000
H977  H     H_    0.965141 0.128945 0.373369 0.000000
H978  H     H_    0.130345 0.052522 0.498709 0.000000
H979  H     H_    0.140658 0.139275 0.402517 0.000000
C980  C     C_3   0.365370 0.912444 0.635657 0.000000
C981  C     C_3   0.332429 0.895377 0.665026 0.000000
C982  C     C_3   0.323595 0.918770 0.681748 0.000000
C983  C     C_R   0.279846 0.895041 0.634013 0.000000
N179  N     N_R   0.283878 0.870094 0.621597 0.000000
C984  C     C_R   0.229487 0.875488 0.596718 0.000000
C985  C     C_R   0.207740 0.858351 0.574824 0.000000
C986  C     C_R   0.150540 0.873004 0.543889 0.000000
C987  C     C_R   0.116103 0.904111 0.535833 0.000000
C988  C     C_R   0.138329 0.918310 0.562269 0.000000
C989  C     C_R   0.195124 0.903485 0.592632 0.000000
N180  N     N_R   0.224993 0.916315 0.616996 0.000000
C990  C     C_2   0.057000 0.923696 0.497039 0.000000
O179  O     O_2   0.036415 0.910416 0.475088 0.000000
O180  O     O_2   0.026153 0.957874 0.483275 0.000000
H980  H     H_    0.336611 0.938961 0.595172 0.000000
H981  H     H_    0.396995 0.921618 0.653200 0.000000
H982  H     H_    0.388434 0.888595 0.638335 0.000000
H983  H     H_    0.357423 0.863845 0.700011 0.000000
H984  H     H_    0.284486 0.920502 0.684770 0.000000
H985  H     H_    0.360036 0.902211 0.719371 0.000000
H986  H     H_    0.325701 0.948614 0.655124 0.000000
H987  H     H_    0.233920 0.834443 0.580896 0.000000
H988  H     H_    0.133447 0.860944 0.524534 0.000000
H989  H     H_    0.112364 0.941960 0.556810 0.000000
H990  H     H_    0.987882 0.971752 0.456266 0.000000
C991  C     C_3   0.982814 0.155725 0.689866 0.000000
C992  C     C_3   0.958155 0.158691 0.642659 0.000000
C993  C     C_3   0.983831 0.125397 0.646570 0.000000
C994  C     C_R   0.900063 0.166070 0.622370 0.000000
N181  N     N_R   0.871889 0.165731 0.648300 0.000000
C995  C     C_R   0.822036 0.192599 0.609301 0.000000
C996  C     C_R   0.781267 0.207716 0.614295 0.000000
C997  C     C_R   0.731637 0.234650 0.571439 0.000000
C998  C     C_R   0.724609 0.246874 0.524583 0.000000
C999  C     C_R   0.767556 0.232909 0.519104 0.000000
C1000 C     C_R   0.818507 0.205684 0.562868 0.000000
N182  N     N_R   0.869404 0.189304 0.569588 0.000000
C1001 C     C_2   0.671081 0.276955 0.481383 0.000000
O181  O     O_2   0.629993 0.266551 0.475696 0.000000
O182  O     O_2   0.664603 0.316004 0.459279 0.000000
H991  H     H_    0.954309 0.156662 0.704509 0.000000
H992  H     H_    0.019757 0.129017 0.721161 0.000000
H993  H     H_    0.995586 0.182239 0.678962 0.000000
H994  H     H_    0.962106 0.184653 0.611617 0.000000
H995  H     H_    0.949672 0.117073 0.630875 0.000000
H996  H     H_    0.003064 0.138688 0.621585 0.000000
H997  H     H_    0.015686 0.100749 0.685394 0.000000
H998  H     H_    0.789278 0.199855 0.650943 0.000000
H999  H     H_    0.697565 0.246398 0.574123 0.000000
H1000 H     H_    0.758909 0.243339 0.481538 0.000000
H1001 H     H_    0.627742 0.335951 0.438664 0.000000
C1002 C     C_3   0.817481 0.965456 0.542239 0.000000
C1003 C     C_3   0.866254 0.934349 0.593525 0.000000
C1004 C     C_3   0.903110 0.907713 0.591830 0.000000
C1005 C     C_R   0.895409 0.953033 0.615087 0.000000
N183  N     N_R   0.898353 0.992627 0.585283 0.000000
C1006 C     C_R   0.908587 0.998766 0.620263 0.000000
C1007 C     C_R   0.894691 0.034547 0.610609 0.000000
C1008 C     C_R   0.885250 0.034304 0.646385 0.000000
C1009 C     C_R   0.905363 0.999210 0.695907 0.000000
C1010 C     C_R   0.928304 0.963893 0.707592 0.000000
C1011 C     C_R   0.919564 0.964772 0.667348 0.000000
N184  N     N_R   0.907511 0.935966 0.665855 0.000000
C1012 C     C_2   0.902777 0.998700 0.736032 0.000000
O183  O     O_2   0.941876 0.976109 0.779153 0.000000
O184  O     O_2   0.861580 0.025903 0.725348 0.000000
H1002 H     H_    0.824976 0.994058 0.520128 0.000000
H1003 H     H_    0.805856 0.953402 0.521227 0.000000
H1004 H     H_    0.784764 0.970425 0.551177 0.000000
H1005 H     H_    0.848666 0.915232 0.618846 0.000000
H1006 H     H_    0.943007 0.888612 0.627829 0.000000
H1007 H     H_    0.881165 0.888410 0.586570 0.000000
H1008 H     H_    0.910675 0.926393 0.558876 0.000000
H1009 H     H_    0.880873 0.062102 0.573850 0.000000
H1010 H     H_    0.863904 0.062189 0.636035 0.000000
H1011 H     H_    0.943071 0.936206 0.745478 0.000000
H1012 H     H_    0.865442 0.024767 0.753949 0.000000
C1013 C     C_3   0.895979 0.770009 0.840841 0.000000
C1014 C     C_3   0.841731 0.804402 0.811114 0.000000
C1015 C     C_3   0.850374 0.828948 0.829521 0.000000
C1016 C     C_R   0.824184 0.829091 0.754614 0.000000
N185  N     N_R   0.859498 0.849786 0.736448 0.000000
C1017 C     C_R   0.863589 0.838757 0.708872 0.000000
C1018 C     C_R   0.907466 0.838088 0.698325 0.000000
C1019 C     C_R   0.917097 0.815029 0.684329 0.000000
C1020 C     C_R   0.882466 0.793242 0.680924 0.000000
C1021 C     C_R   0.836366 0.795920 0.689142 0.000000
C1022 C     C_R   0.827840 0.817939 0.704636 0.000000
N186  N     N_R   0.797527 0.813651 0.729863 0.000000
C1023 C     C_2   0.898635 0.763336 0.675215 0.000000
O185  O     O_2   0.933034 0.764668 0.659904 0.000000
O186  O     O_2   0.877780 0.732868 0.689777 0.000000
H1013 H     H_    0.928537 0.781819 0.830828 0.000000
H1014 H     H_    0.911043 0.752081 0.882811 0.000000
H1015 H     H_    0.888634 0.749802 0.831058 0.000000
H1016 H     H_    0.810612 0.790265 0.820275 0.000000
H1017 H     H_    0.809737 0.846649 0.818899 0.000000
H1018 H     H_    0.874966 0.808739 0.872021 0.000000
H1019 H     H_    0.872337 0.849466 0.812059 0.000000
H1020 H     H_    0.936448 0.852637 0.705038 0.000000
H1021 H     H_    0.953921 0.812215 0.679306 0.000000
H1022 H     H_    0.812770 0.776817 0.689797 0.000000
H1023 H     H_    0.888483 0.712684 0.686832 0.000000
C1024 C     C_3   0.531426 0.180229 0.494056 0.000000
C1025 C     C_3   0.530012 0.199419 0.442580 0.000000
C1026 C     C_3   0.588025 0.199035 0.448172 0.000000
C1027 C     C_R   0.503926 0.182307 0.416561 0.000000
N187  N     N_R   0.485255 0.149038 0.439356 0.000000
C1028 C     C_R   0.455719 0.151241 0.397888 0.000000
C1029 C     C_R   0.431388 0.124772 0.395667 0.000000
C1030 C     C_R   0.400980 0.133435 0.348933 0.000000
C1031 C     C_R   0.401263 0.165950 0.305401 0.000000
C1032 C     C_R   0.435305 0.187241 0.310469 0.000000
C1033 C     C_R   0.458140 0.181877 0.355108 0.000000
N188  N     N_R   0.490707 0.201468 0.364662 0.000000
C1034 C     C_2   0.367919 0.176645 0.254948 0.000000
O187  O     O_2   0.334561 0.159788 0.250026 0.000000
O188  O     O_2   0.373901 0.205018 0.213921 0.000000
H1024 H     H_    0.518971 0.153422 0.507298 0.000000
H1025 H     H_    0.574090 0.171732 0.523157 0.000000
H1026 H     H_    0.501881 0.202442 0.490106 0.000000
H1027 H     H_    0.502964 0.230941 0.417911 0.000000
H1028 H     H_    0.618441 0.168073 0.477249 0.000000
H1029 H     H_    0.586603 0.212471 0.410811 0.000000
H1030 H     H_    0.601524 0.217447 0.459747 0.000000
H1031 H     H_    0.436806 0.097116 0.428697 0.000000
H1032 H     H_    0.379293 0.113479 0.347405 0.000000
H1033 H     H_    0.441602 0.209322 0.279476 0.000000
H1034 H     H_    0.351913 0.211831 0.180820 0.000000
C1035 C     C_3   0.243725 0.341037 0.994528 0.000000
C1036 C     C_3   0.289313 0.352195 0.980662 0.000000
C1037 C     C_3   0.285059 0.348390 0.940990 0.000000
C1038 C     C_R   0.278171 0.394616 0.958407 0.000000
N189  N     N_R   0.225996 0.424242 0.917125 0.000000
C1039 C     C_R   0.222715 0.448917 0.928895 0.000000
C1040 C     C_R   0.176211 0.479575 0.908262 0.000000
C1041 C     C_R   0.183761 0.506786 0.917177 0.000000
C1042 C     C_R   0.237658 0.503921 0.943707 0.000000
C1043 C     C_R   0.282657 0.470403 0.967840 0.000000
C1044 C     C_R   0.273212 0.440064 0.965955 0.000000
N190  N     N_R   0.310049 0.403974 0.988509 0.000000
C1045 C     C_2   0.247242 0.536892 0.944828 0.000000
O189  O     O_2   0.207707 0.566186 0.924122 0.000000
O190  O     O_2   0.299738 0.535291 0.968010 0.000000
H1035 H     H_    0.204968 0.356718 0.958367 0.000000
H1036 H     H_    0.254634 0.307785 0.019916 0.000000
H1037 H     H_    0.236467 0.353580 0.012650 0.000000
H1038 H     H_    0.330729 0.333024 0.015299 0.000000
H1039 H     H_    0.272649 0.378917 0.905710 0.000000
H1040 H     H_    0.325728 0.331404 0.951789 0.000000
H1041 H     H_    0.255331 0.332733 0.936967 0.000000
H1042 H     H_    0.135316 0.483499 0.883993 0.000000
H1043 H     H_    0.147932 0.532129 0.899176 0.000000
H1044 H     H_    0.323735 0.471151 0.980954 0.000000
H1045 H     H_    0.305949 0.557104 0.968487 0.000000
C1046 C     C_3   0.142058 0.315734 0.947123 0.000000
C1047 C     C_3   0.112802 0.337015 0.889971 0.000000
C1048 C     C_3   0.058012 0.368098 0.866094 0.000000
C1049 C     C_R   0.148703 0.352352 0.862339 0.000000
N191  N     N_R   0.164663 0.386842 0.848872 0.000000
C1050 C     C_R   0.196955 0.384332 0.828777 0.000000
C1051 C     C_R   0.227780 0.407983 0.813378 0.000000
C1052 C     C_R   0.262676 0.399158 0.798290 0.000000
C1053 C     C_R   0.273831 0.362476 0.809071 0.000000
C1054 C     C_R   0.237285 0.342067 0.817240 0.000000
C1055 C     C_R   0.199695 0.352939 0.828368 0.000000
N192  N     N_R   0.169111 0.331645 0.847848 0.000000
C1056 C     C_2   0.328332 0.342001 0.821126 0.000000
O191  O     O_2   0.359443 0.360809 0.809660 0.000000
O192  O     O_2   0.344780 0.301931 0.846407 0.000000
H1046 H     H_    0.186807 0.307302 0.960561 0.000000
H1047 H     H_    0.131735 0.334288 0.957536 0.000000
H1048 H     H_    0.130950 0.288192 0.967491 0.000000
H1049 H     H_    0.102370 0.313316 0.887722 0.000000
H1050 H     H_    0.053084 0.397535 0.831631 0.000000
H1051 H     H_    0.024276 0.356238 0.858098 0.000000
H1052 H     H_    0.053830 0.371341 0.893359 0.000000
H1053 H     H_    0.229829 0.429265 0.819426 0.000000
H1054 H     H_    0.285335 0.418810 0.783802 0.000000
H1055 H     H_    0.243495 0.315370 0.821722 0.000000
H1056 H     H_    0.378327 0.287964 0.850776 0.000000

loop_
_geom_bond_atom_site_label_1
_geom_bond_atom_site_label_2
_geom_bond_distance
_geom_bond_site_symmetry_2
_ccdc_geom_bond_type
Zn1   N2    2.241 1_554  S
Zn1   N3    2.265 .      S
Zn1   N17   2.261 .      S
Zn1   N34   2.202 .      S
Zn2   N4    2.101 .      S
Zn2   N6    2.251 .      S
Zn2   N57   2.096 .      S
Zn2   N190  2.255 1_554  S
Zn3   N5    2.223 .      S
Zn3   N19   2.176 .      S
Zn3   N40   2.150 .      S
Zn3   N188  2.231 .      S
Zn4   N8    2.174 .      S
Zn4   N10   2.178 .      S
Zn4   N118  2.217 .      S
Zn4   N132  2.255 .      S
Zn5   N11   2.276 .      S
Zn5   N13   2.227 .      S
Zn5   N119  2.295 .      S
Zn5   N137  2.307 .      S
Zn6   N15   2.334 .      S
Zn6   N18   2.256 .      S
Zn6   N20   2.048 .      S
Zn6   N111  2.153 .      S
Zn7   N22   2.178 .      S
Zn7   N23   2.140 .      S
Zn7   N25   2.222 .      S
Zn7   N114  2.161 .      S
Zn8   N28   2.154 .      S
Zn8   N93   2.166 .      S
Zn8   N103  2.147 .      S
Zn8   N165  2.230 1_554  S
Zn9   N30   2.300 .      S
Zn9   N32   2.167 .      S
Zn9   N107  2.141 .      S
Zn9   N157  2.182 1_545  S
Zn10  N33   2.188 .      S
Zn10  N36   2.115 1_554  S
Zn10  N110  2.128 .      S
Zn10  N115  2.099 .      S
Zn11  N37   2.211 .      S
Zn11  N39   2.238 .      S
Zn11  N41   2.183 .      S
Zn11  N106  2.178 .      S
Zn12  N16   2.309 .      S
Zn12  N44   2.229 .      S
Zn12  N177  2.262 .      S
Zn12  N183  2.316 1_545  S
Zn13  N46   2.211 .      S
Zn13  N48   2.207 .      S
Zn13  N52   2.202 .      S
Zn13  N56   2.032 .      S
Zn14  N38   2.077 .      S
Zn14  N43   2.212 .      S
Zn14  N175  2.287 .      S
Zn14  N182  2.257 .      S
Zn15  N1    2.213 .      S
Zn15  N9    2.198 .      S
Zn15  N14   2.290 .      S
Zn15  N45   2.277 .      S
Zn16  N47   2.189 .      S
Zn16  N50   2.225 .      S
Zn16  N127  2.158 .      S
Zn16  N135  2.133 .      S
Zn17  N51   2.199 .      S
Zn17  N53   2.122 .      S
Zn17  N129  2.167 .      S
Zn17  N139  2.274 .      S
Zn18  N27   2.029 .      S
Zn18  N42   2.112 .      S
Zn18  N55   2.192 .      S
Zn18  N58   2.099 .      S
Zn19  N35   2.089 .      S
Zn19  N169  2.170 .      S
Zn19  N173  2.200 .      S
Zn19  N192  2.231 .      S
Zn20  N59   2.145 .      S
Zn20  N61   2.206 .      S
Zn20  N63   2.209 .      S
Zn20  N66   2.223 .      S
Zn21  N60   2.098 .      S
Zn21  N67   2.097 .      S
Zn21  N70   2.196 .      S
Zn21  N72   2.126 .      S
Zn22  N62   2.246 .      S
Zn22  N74   2.122 .      S
Zn22  N76   2.023 .      S
Zn22  N77   2.206 .      S
Zn23  N64   2.209 .      S
Zn23  N80   2.213 .      S
Zn23  N81   2.166 .      S
Zn23  N83   2.216 .      S
Zn24  N65   2.151 .      S
Zn24  N86   2.126 .      S
Zn24  N88   2.087 .      S
Zn24  N89   2.215 .      S
Zn25  N71   2.239 .      S
Zn25  N75   2.172 .      S
Zn25  N92   2.316 1_554  S
Zn25  N94   2.104 .      S
Zn26  N78   2.249 .      S
Zn26  N96   2.325 .      S
Zn26  N98   2.156 .      S
Zn26  N100  2.274 .      S
Zn27  N68   2.212 .      S
Zn27  N102  2.154 .      S
Zn27  N104  2.125 .      S
Zn27  N105  2.188 .      S
Zn28  N73   2.182 .      S
Zn28  N87   2.198 .      S
Zn28  N108  2.248 .      S
Zn28  N109  2.187 1_565  S
Zn29  N24   2.195 .      S
Zn29  N54   2.162 .      S
Zn29  N162  2.182 .      S
Zn29  N179  2.131 .      S
Zn30  N26   2.157 .      S
Zn30  N49   2.208 .      S
Zn30  N163  2.113 .      S
Zn30  N186  2.334 .      S
Zn31  N85   2.138 1_545  S
Zn31  N112  2.151 .      S
Zn31  N113  2.197 .      S
Zn31  N116  2.129 .      S
Zn32  N69   2.219 .      S
Zn32  N117  2.148 .      S
Zn32  N120  2.330 .      S
Zn32  N121  2.271 .      S
Zn33  N79   2.234 .      S
Zn33  N101  2.217 .      S
Zn33  N123  2.227 .      S
Zn33  N125  2.154 .      S
Zn34  N90   2.111 .      S
Zn34  N122  2.213 .      S
Zn34  N128  2.189 .      S
Zn34  N130  2.070 .      S
Zn35  N82   2.238 .      S
Zn35  N131  2.187 .      S
Zn35  N133  2.147 .      S
Zn35  N136  2.198 .      S
Zn36  N84   2.182 .      S
Zn36  N138  2.147 .      S
Zn36  N140  2.291 .      S
Zn36  N142  2.186 .      S
Zn37  N97   2.245 .      S
Zn37  N143  2.173 .      S
Zn37  N146  2.169 .      S
Zn37  N148  2.133 .      S
Zn38  N99   2.300 1_545  S
Zn38  N150  2.224 .      S
Zn38  N152  2.282 .      S
Zn38  N154  2.213 1_545  S
Zn39  N91   2.229 .      S
Zn39  N155  2.259 .      S
Zn39  N158  2.226 .      S
Zn39  N160  2.294 .      S
Zn40  N95   2.251 .      S
Zn40  N161  2.261 .      S
Zn40  N164  2.207 .      S
Zn40  N166  2.104 .      S
Zn41  N7    2.175 .      S
Zn41  N124  2.136 .      S
Zn41  N167  2.245 .      S
Zn41  N170  2.202 .      S
Zn42  N12   2.251 .      S
Zn42  N126  2.130 .      S
Zn42  N171  2.220 .      S
Zn42  N174  2.105 .      S
Zn43  N29   2.229 .      S
Zn43  N145  2.235 .      S
Zn43  N172  2.230 .      S
Zn43  N176  2.286 .      S
Zn44  N147  2.185 .      S
Zn44  N156  2.152 .      S
Zn44  N178  2.316 .      S
Zn44  N180  2.162 .      S
Zn45  N31   2.207 .      S
Zn45  N151  2.290 .      S
Zn45  N168  2.230 .      S
Zn45  N181  2.179 .      S
Zn46  N153  2.281 .      S
Zn46  N159  2.220 .      S
Zn46  N184  2.216 .      S
Zn46  N185  2.263 .      S
Zn47  N21   2.249 .      S
Zn47  N144  2.083 .      S
Zn47  N149  2.245 .      S
Zn47  N187  2.257 .      S
Zn48  N134  2.146 .      S
Zn48  N141  2.306 .      S
Zn48  N189  2.247 .      S
Zn48  N191  2.225 .      S
C1    C2    1.491 .      S
C1    H1    1.091 .      S
C1    H2    1.080 .      S
C1    H3    1.091 .      S
C2    C3    1.516 .      S
C2    C4    1.393 .      S
C2    H4    1.072 .      S
C3    H5    1.104 .      S
C3    H6    1.094 .      S
C3    H7    1.104 .      S
C6    H8    1.078 .      S
C7    H9    1.081 .      S
C8    C11   1.468 .      S
C9    H10   1.077 .      S
N2    Zn1   2.241 1_556  S
C11   O2    1.346 .      S
O2    H11   0.966 .      S
C12   C13   1.477 .      S
C12   H12   1.075 .      S
C12   H13   1.068 .      S
C12   H14   1.099 .      S
C13   C14   1.512 .      S
C13   C15   1.417 .      S
C13   H15   1.087 .      S
C14   H16   1.100 .      S
C14   H17   1.096 .      S
C14   H18   1.105 .      S
C17   H19   1.071 .      S
C18   H20   1.056 .      S
C19   C22   1.444 .      S
C20   H21   1.074 .      S
C22   O4    1.337 .      S
O4    H22   0.961 .      S
C23   C24   1.499 .      S
C23   H23   1.096 .      S
C23   H24   1.101 .      S
C23   H25   1.098 .      S
C24   C25   1.514 .      S
C24   C26   1.463 .      S
C24   H26   1.075 .      S
C25   H27   1.106 .      S
C25   H28   1.095 .      S
C25   H29   1.106 .      S
C28   H30   1.079 .      S
C29   H31   1.080 .      S
C30   C33   1.466 .      S
C31   H32   1.068 .      S
C33   O6    1.342 .      S
O6    H33   0.966 .      S
C34   C35   1.484 .      S
C34   H34   1.104 .      S
C34   H35   1.108 .      S
C34   H36   1.092 .      S
C35   C36   1.523 .      S
C35   C37   1.495 .      S
C35   H37   1.086 .      S
C36   H38   1.106 .      S
C36   H39   1.107 .      S
C36   H40   1.100 .      S
C39   H41   1.080 .      S
C40   H42   1.080 .      S
C41   C44   1.469 .      S
C42   H43   1.067 .      S
C44   O8    1.344 .      S
O8    H44   0.966 .      S
C45   C46   1.475 .      S
C45   H45   1.097 .      S
C45   H46   1.101 .      S
C45   H47   1.100 .      S
C46   C47   1.506 .      S
C46   C48   1.474 .      S
C46   H48   1.094 .      S
C47   H49   1.103 .      S
C47   H50   1.108 .      S
C47   H51   1.099 .      S
C50   H52   1.067 .      S
C51   H53   1.079 .      S
C52   C55   1.466 .      S
C53   H54   1.059 .      S
C55   O10   1.345 .      S
O10   H55   0.965 .      S
C56   C57   1.489 .      S
C56   H56   1.093 .      S
C56   H57   1.101 .      S
C56   H58   1.094 .      S
C57   C58   1.481 .      S
C57   C59   1.470 .      S
C57   H59   1.084 .      S
C58   H60   1.089 .      S
C58   H61   1.093 .      S
C58   H62   1.079 .      S
C61   H63   1.074 .      S
C62   H64   1.081 .      S
C63   C66   1.468 .      S
C64   H65   1.071 .      S
C66   O12   1.346 .      S
O12   H66   0.966 .      S
C67   C68   1.485 .      S
C67   H67   1.097 .      S
C67   H68   1.087 .      S
C67   H69   1.093 .      S
C68   C69   1.490 .      S
C68   C70   1.425 .      S
C68   H70   1.074 .      S
C69   H71   1.096 .      S
C69   H72   1.091 .      S
C69   H73   1.103 .      S
C72   H74   1.073 .      S
C73   H75   1.077 .      S
C74   C77   1.464 .      S
C75   H76   1.075 .      S
C77   O14   1.345 .      S
O14   H77   0.965 .      S
C78   C79   1.511 .      S
C78   H78   1.108 .      S
C78   H79   1.105 .      S
C78   H80   1.106 .      S
C79   C80   1.507 .      S
C79   C81   1.505 .      S
C79   H81   1.091 .      S
C80   H82   1.099 .      S
C80   H83   1.107 .      S
C80   H84   1.092 .      S
C83   H85   1.064 .      S
C84   H86   1.081 .      S
C85   C88   1.470 .      S
C86   H87   1.079 .      S
C88   O16   1.345 .      S
O16   H88   0.966 .      S
C89   C90   1.455 .      S
C89   H89   1.090 .      S
C89   H90   1.096 .      S
C89   H91   1.082 .      S
C90   C91   1.513 .      S
C90   C92   1.460 .      S
C90   H92   1.081 .      S
C91   H93   1.108 .      S
C91   H94   1.107 .      S
C91   H95   1.100 .      S
C94   H96   1.078 .      S
C95   H97   1.080 .      S
C96   C99   1.469 .      S
C97   H98   1.078 .      S
C99   O18   1.345 .      S
O18   H99   0.966 .      S
C100  C101  1.524 .      S
C100  H100  1.079 .      S
C100  H101  1.090 .      S
C100  H102  1.090 .      S
C101  C102  1.435 .      S
C101  C103  1.399 .      S
C101  H103  1.088 .      S
C102  H104  1.107 .      S
C102  H105  1.072 .      S
C102  H106  1.094 .      S
C105  H107  1.052 .      S
C106  H108  1.067 .      S
C107  C110  1.423 .      S
C108  H109  1.068 .      S
C110  O20   1.344 1_545  S
O20   C110  1.344 1_565  S
O20   H110  0.961 .      S
C111  C112  1.518 1_565  S
C111  H111  1.101 .      S
C111  H112  1.109 1_565  S
C111  H113  1.101 .      S
C112  C111  1.518 1_545  S
C112  C113  1.503 .      S
C112  C114  1.494 .      S
C112  H114  1.094 .      S
C113  H115  1.106 .      S
C113  H116  1.096 .      S
C113  H117  1.087 .      S
C116  H118  1.050 .      S
C117  H119  1.035 .      S
C118  C121  1.469 .      S
C119  H120  1.034 .      S
C121  O22   1.342 .      S
O22   H121  0.965 .      S
H112  C111  1.109 1_545  S
C122  C123  1.505 .      S
C122  H122  1.100 .      S
C122  H123  1.099 .      S
C122  H124  1.101 .      S
C123  C124  1.523 .      S
C123  C125  1.484 .      S
C123  H125  1.099 .      S
C124  H126  1.103 .      S
C124  H127  1.101 .      S
C124  H128  1.108 .      S
C127  H129  1.078 .      S
C128  H130  1.080 1_565  S
C129  C132  1.469 .      S
C130  H131  1.066 .      S
C132  O24   1.346 .      S
O24   H132  0.966 .      S
H130  C128  1.080 1_545  S
C133  C134  1.477 .      S
C133  H133  1.088 .      S
C133  H134  1.069 .      S
C133  H135  1.102 .      S
C134  C135  1.500 .      S
C134  C136  1.455 .      S
C134  H136  1.081 .      S
C135  H137  1.075 .      S
C135  H138  1.096 .      S
C135  H139  1.070 .      S
C138  H140  1.069 .      S
C139  H141  1.069 .      S
C140  C143  1.468 .      S
C141  H142  1.063 .      S
C143  O26   1.342 .      S
O26   H143  0.966 .      S
C144  C145  1.500 1_556  S
C144  H144  1.108 .      S
C144  H145  1.097 .      S
C144  H146  1.091 1_556  S
C145  C144  1.500 1_554  S
C145  C146  1.509 1_554  S
C145  C147  1.492 .      S
C145  H147  1.080 .      S
C146  C145  1.509 1_556  S
C146  H148  1.108 .      S
C146  H149  1.101 .      S
C146  H150  1.089 .      S
C149  H151  1.035 .      S
C150  H152  1.080 .      S
C151  C154  1.469 .      S
C152  H153  1.041 .      S
C154  O28   1.346 .      S
O28   H154  0.965 .      S
H146  C144  1.091 1_554  S
C155  C156  1.500 .      S
C155  H155  1.099 .      S
C155  H156  1.048 .      S
C155  H157  1.109 .      S
C156  C157  1.498 .      S
C156  C158  1.369 .      S
C156  H158  1.095 .      S
C157  H159  1.107 .      S
C157  H160  1.082 .      S
C157  H161  1.095 .      S
C160  H162  1.078 .      S
C161  H163  1.080 .      S
C162  C165  1.458 .      S
C163  H164  1.065 .      S
C165  O30   1.335 .      S
O30   H165  0.961 .      S
C166  C167  1.471 .      S
C166  H166  1.082 1_455  S
C166  H167  1.093 .      S
C166  H168  1.107 .      S
C167  C168  1.517 .      S
C167  C169  1.476 .      S
C167  H169  1.101 .      S
C168  H170  1.108 .      S
C168  H171  1.109 .      S
C168  H172  1.107 1_455  S
C171  H173  1.058 .      S
C172  H174  1.040 .      S
C173  C176  1.436 .      S
C174  H175  1.063 .      S
C176  O32   1.334 .      S
O32   H176  0.959 .      S
H166  C166  1.082 1_655  S
H172  C168  1.107 1_655  S
C177  C178  1.493 .      S
C177  H177  1.100 1_554  S
C177  H178  1.091 .      S
C177  H179  1.094 .      S
C178  C179  1.483 .      S
C178  C180  1.494 .      S
C178  H180  1.039 .      S
C179  H181  1.084 .      S
C179  H182  1.104 .      S
C179  H183  1.094 .      S
C182  H184  1.081 .      S
C183  H185  1.080 .      S
C184  C187  1.464 .      S
C185  H186  1.074 .      S
C187  O34   1.347 .      S
O34   H187  0.966 .      S
H177  C177  1.100 1_556  S
C188  C189  1.500 .      S
C188  H188  1.072 .      S
C188  H189  1.095 .      S
C188  H190  1.103 .      S
C189  C190  1.492 .      S
C189  C191  1.425 .      S
C189  H191  1.084 1_556  S
C190  H192  1.105 .      S
C190  H193  1.103 1_556  S
C190  H194  1.095 .      S
C193  H195  1.054 .      S
C194  H196  1.074 .      S
C195  C198  1.432 .      S
C196  H197  1.042 .      S
N36   Zn10  2.115 1_556  S
C198  O36   1.347 .      S
O36   H198  0.961 .      S
H191  C189  1.084 1_554  S
H193  C190  1.103 1_554  S
C199  C200  1.499 .      S
C199  H199  1.094 .      S
C199  H200  1.108 .      S
C199  H201  1.099 .      S
C200  C201  1.525 .      S
C200  C202  1.508 .      S
C200  H202  1.097 .      S
C201  H203  1.109 .      S
C201  H204  1.095 .      S
C201  H205  1.097 .      S
C204  H206  1.054 .      S
C205  H207  1.078 .      S
C206  C209  1.431 .      S
C207  H208  1.067 .      S
C209  O38   1.333 .      S
O38   H209  0.959 .      S
C210  C211  1.426 .      S
C210  H210  1.095 .      S
C210  H211  1.107 .      S
C210  H212  1.089 .      S
C211  C212  1.467 .      S
C211  C213  1.441 .      S
C211  H213  1.047 .      S
C212  H214  1.091 .      S
C212  H215  1.096 .      S
C212  H216  1.091 .      S
C215  H217  1.060 .      S
C216  H218  1.080 .      S
C217  C220  1.468 .      S
C218  H219  1.079 .      S
C220  O40   1.346 .      S
O40   H220  0.966 .      S
C221  C222  1.478 .      S
C221  H221  1.081 .      S
C221  H222  1.106 .      S
C221  H223  1.094 .      S
C222  C223  1.487 .      S
C222  C224  1.449 .      S
C222  H224  1.078 .      S
C223  H225  1.099 .      S
C223  H226  1.107 .      S
C223  H227  1.098 .      S
C226  H228  1.062 .      S
C227  H229  1.076 .      S
C228  C231  1.467 .      S
C229  H230  1.075 .      S
C231  O42   1.345 .      S
O42   H231  0.965 .      S
C232  C233  1.511 .      S
C232  H232  1.106 .      S
C232  H233  1.089 1_655  S
C232  H234  1.099 1_655  S
C233  C234  1.487 .      S
C233  C235  1.387 .      S
C233  H235  1.106 .      S
C234  H236  1.104 .      S
C234  H237  1.075 1_655  S
C234  H238  1.090 .      S
C237  H239  1.059 .      S
C238  H240  1.081 .      S
C239  C242  1.412 .      S
C240  H241  1.063 .      S
C242  O44   1.332 .      S
O44   H242  0.961 .      S
H233  C232  1.089 1_455  S
H234  C232  1.099 1_455  S
H237  C234  1.075 1_455  S
C243  C244  1.501 .      S
C243  H243  1.089 .      S
C243  H244  1.103 .      S
C243  H245  1.106 .      S
C244  C245  1.515 .      S
C244  C246  1.490 .      S
C244  H246  1.102 .      S
C245  H247  1.105 .      S
C245  H248  1.106 .      S
C245  H249  1.107 .      S
C248  H250  1.060 .      S
C249  H251  1.040 .      S
C250  C253  1.428 .      S
C251  H252  1.061 .      S
C253  O46   1.331 .      S
O46   H253  0.950 .      S
C254  C255  1.484 .      S
C254  H254  1.066 .      S
C254  H255  1.099 .      S
C254  H256  1.103 .      S
C255  C256  1.473 .      S
C255  C257  1.494 .      S
C255  H257  1.104 .      S
C256  H258  1.101 .      S
C256  H259  1.079 .      S
C256  H260  1.091 .      S
C259  H261  1.072 .      S
C260  H262  1.075 .      S
C261  C264  1.464 .      S
C262  H263  1.064 .      S
C264  O48   1.342 .      S
O48   H264  0.963 1_556  S
H264  O48   0.963 1_554  S
C265  C266  1.502 .      S
C265  H265  1.097 .      S
C265  H266  1.097 .      S
C265  H267  1.101 .      S
C266  C267  1.496 .      S
C266  C268  1.491 .      S
C266  H268  1.106 .      S
C267  H269  1.097 .      S
C267  H270  1.099 .      S
C267  H271  1.102 .      S
C270  H272  1.072 .      S
C271  H273  1.080 .      S
C272  C275  1.466 .      S
C273  H274  1.055 .      S
C275  O50   1.343 .      S
O50   H275  0.965 .      S
C276  C277  1.498 .      S
C276  H276  1.102 .      S
C276  H277  1.102 .      S
C276  H278  1.103 .      S
C277  C278  1.510 .      S
C277  C279  1.496 .      S
C277  H279  1.093 .      S
C278  H280  1.096 .      S
C278  H281  1.109 .      S
C278  H282  1.104 .      S
C281  H283  1.066 .      S
C282  H284  1.073 .      S
C283  C286  1.468 .      S
C284  H285  1.075 .      S
C286  O52   1.338 .      S
O52   H286  0.962 .      S
C287  C288  1.515 .      S
C287  H287  1.094 .      S
C287  H288  1.108 .      S
C287  H289  1.108 .      S
C288  C289  1.499 .      S
C288  C290  1.474 .      S
C288  H290  1.080 .      S
C289  H291  1.105 .      S
C289  H292  1.107 .      S
C289  H293  1.087 .      S
C292  H294  1.076 .      S
C293  H295  1.079 .      S
C294  C297  1.467 .      S
C295  H296  1.067 .      S
C297  O54   1.346 .      S
O54   H297  0.966 .      S
C298  C299  1.464 .      S
C298  H298  1.085 .      S
C298  H299  1.098 .      S
C298  H300  1.098 .      S
C299  C300  1.515 .      S
C299  C301  1.455 .      S
C299  H301  1.092 .      S
C300  H302  1.098 .      S
C300  H303  1.101 .      S
C300  H304  1.095 .      S
C303  H305  1.060 .      S
C304  H306  1.080 .      S
C305  C308  1.470 .      S
C306  H307  1.058 .      S
C308  O56   1.344 .      S
O56   H308  0.966 .      S
C309  C310  1.480 .      S
C309  H309  1.080 .      S
C309  H310  1.103 .      S
C309  H311  1.101 .      S
C310  C311  1.506 1_554  S
C310  C312  1.486 .      S
C310  H312  1.087 .      S
C311  C310  1.506 1_556  S
C311  H313  1.107 .      S
C311  H314  1.101 .      S
C311  H315  1.097 .      S
C314  H316  1.080 .      S
C315  H317  1.080 .      S
C316  C319  1.467 .      S
C317  H318  1.076 .      S
C319  O58   1.345 .      S
O58   H319  0.966 .      S
C320  C321  1.498 .      S
C320  H320  1.083 .      S
C320  H321  1.106 .      S
C320  H322  1.090 .      S
C321  C322  1.505 .      S
C321  C323  1.515 .      S
C321  H323  1.082 .      S
C322  H324  1.094 .      S
C322  H325  1.104 .      S
C322  H326  1.087 .      S
C325  H327  1.068 .      S
C326  H328  1.071 .      S
C327  C330  1.468 .      S
C328  H329  1.071 .      S
C330  O60   1.345 .      S
O60   H330  0.960 .      S
C331  C332  1.467 .      S
C331  H331  1.067 .      S
C331  H332  1.065 .      S
C331  H333  1.080 .      S
C332  C333  1.502 .      S
C332  C334  1.370 .      S
C332  H334  1.059 .      S
C333  H335  1.101 .      S
C333  H336  1.095 .      S
C333  H337  1.093 .      S
C336  H338  1.067 .      S
C337  H339  1.081 .      S
C338  C341  1.465 .      S
C339  H340  1.063 .      S
C341  O62   1.343 .      S
O62   H341  0.965 .      S
C342  C343  1.512 .      S
C342  H342  1.099 .      S
C342  H343  1.108 .      S
C342  H344  1.108 .      S
C343  C344  1.502 .      S
C343  C345  1.469 .      S
C343  H345  1.090 .      S
C344  H346  1.096 .      S
C344  H347  1.100 .      S
C344  H348  1.073 .      S
C347  H349  1.080 .      S
C348  H350  1.080 .      S
C349  C352  1.468 .      S
C350  H351  1.068 .      S
C352  O64   1.344 .      S
O64   H352  0.966 1_655  S
H352  O64   0.966 1_455  S
C353  C354  1.487 .      S
C353  H353  1.088 .      S
C353  H354  1.099 .      S
C353  H355  1.091 .      S
C354  C355  1.490 .      S
C354  C356  1.513 .      S
C354  H356  1.069 .      S
C355  H357  1.095 .      S
C355  H358  1.089 .      S
C355  H359  1.078 .      S
C358  H360  1.048 .      S
C359  H361  1.081 .      S
C360  C363  1.468 .      S
C361  H362  1.051 .      S
C363  O66   1.344 .      S
O66   H363  0.966 .      S
C364  C365  1.521 .      S
C364  H364  1.100 .      S
C364  H365  1.108 .      S
C364  H366  1.103 .      S
C365  C366  1.510 .      S
C365  C367  1.507 .      S
C365  H367  1.074 .      S
C366  H368  1.106 .      S
C366  H369  1.108 .      S
C366  H370  1.095 .      S
C369  H371  1.073 .      S
C370  H372  1.079 .      S
C371  C374  1.462 .      S
C372  H373  1.060 .      S
C374  O68   1.341 .      S
O68   H374  0.965 .      S
C375  C376  1.468 .      S
C375  H375  1.098 .      S
C375  H376  1.099 .      S
C375  H377  1.104 .      S
C376  C377  1.518 .      S
C376  C378  1.476 .      S
C376  H378  1.089 .      S
C377  H379  1.108 .      S
C377  H380  1.105 .      S
C377  H381  1.095 .      S
C380  H382  1.066 .      S
C381  H383  1.081 .      S
C382  C385  1.468 .      S
C383  H384  1.062 .      S
C385  O70   1.347 .      S
O70   H385  0.966 .      S
C386  C387  1.485 .      S
C386  H386  1.090 .      S
C386  H387  1.095 .      S
C386  H388  1.075 .      S
C387  C388  1.473 .      S
C387  C389  1.425 .      S
C387  H389  1.092 .      S
C388  H390  1.106 .      S
C388  H391  1.091 .      S
C388  H392  1.074 .      S
C391  H393  1.053 .      S
C392  H394  1.080 .      S
C393  C396  1.468 .      S
C394  H395  1.067 .      S
C396  O72   1.346 .      S
O72   H396  0.966 .      S
C397  C398  1.525 1_556  S
C397  H397  1.094 1_565  S
C397  H398  1.108 1_565  S
C397  H399  1.100 .      S
C398  C397  1.525 1_554  S
C398  C399  1.517 .      S
C398  C400  1.512 .      S
C398  H400  1.098 .      S
C399  H401  1.098 .      S
C399  H402  1.101 .      S
C399  H403  1.108 .      S
C402  H404  1.049 .      S
C403  H405  1.080 .      S
C404  C407  1.472 .      S
C405  H406  1.076 .      S
C407  O74   1.343 .      S
O74   H407  0.961 .      S
H397  C397  1.094 1_545  S
H398  C397  1.108 1_545  S
C408  C409  1.501 1_556  S
C408  H408  1.088 .      S
C408  H409  1.101 .      S
C408  H410  1.093 .      S
C409  C408  1.501 1_554  S
C409  C410  1.486 .      S
C409  C411  1.476 .      S
C409  H411  1.089 .      S
C410  H412  1.097 .      S
C410  H413  1.105 .      S
C410  H414  1.083 .      S
C413  H415  1.055 1_554  S
C414  H416  1.072 1_554  S
C415  C418  1.461 .      S
C416  H417  1.069 .      S
C418  O76   1.338 .      S
O76   H418  0.964 .      S
H415  C413  1.055 1_556  S
H416  C414  1.072 1_556  S
C419  C420  1.491 .      S
C419  H419  1.081 .      S
C419  H420  1.102 .      S
C419  H421  1.097 .      S
C420  C421  1.516 .      S
C420  C422  1.472 .      S
C420  H422  1.057 .      S
C421  H423  1.107 .      S
C421  H424  1.106 .      S
C421  H425  1.108 .      S
C424  H426  1.076 .      S
C425  H427  1.080 .      S
C426  C429  1.461 .      S
C427  H428  1.069 .      S
C429  O78   1.340 1_554  S
O78   C429  1.340 1_556  S
O78   H429  0.961 .      S
C430  C431  1.509 .      S
C430  H430  1.105 1_655  S
C430  H431  1.108 .      S
C430  H432  1.102 .      S
C431  C432  1.504 .      S
C431  C433  1.500 .      S
C431  H433  1.103 .      S
C432  H434  1.109 .      S
C432  H435  1.097 .      S
C432  H436  1.105 .      S
C435  H437  1.054 .      S
C436  H438  1.080 .      S
C437  C440  1.433 .      S
C438  H439  1.051 .      S
C440  O80   1.336 .      S
O80   H440  0.955 .      S
H430  C430  1.105 1_455  S
C441  C442  1.477 .      S
C441  H441  1.095 .      S
C441  H442  1.089 .      S
C441  H443  1.070 .      S
C442  C443  1.512 .      S
C442  C444  1.466 .      S
C442  H444  1.104 .      S
C443  H445  1.102 .      S
C443  H446  1.073 .      S
C443  H447  1.097 .      S
C446  H448  1.068 .      S
C447  H449  1.080 .      S
C448  C451  1.467 .      S
C449  H450  1.067 .      S
C451  O82   1.346 .      S
O82   H451  0.965 .      S
C452  C453  1.499 1_655  S
C452  H452  1.088 .      S
C452  H453  1.109 .      S
C452  H454  1.101 1_655  S
C453  C452  1.499 1_455  S
C453  C454  1.476 .      S
C453  C455  1.476 .      S
C453  H455  1.106 .      S
C454  H456  1.090 .      S
C454  H457  1.104 .      S
C454  H458  1.082 1_455  S
C457  H459  1.080 .      S
C458  H460  1.080 .      S
C459  C462  1.469 .      S
C460  H461  1.076 .      S
C462  O84   1.346 .      S
O84   H462  0.966 .      S
H454  C452  1.101 1_455  S
H458  C454  1.082 1_655  S
C463  C464  1.520 .      S
C463  H463  1.079 .      S
C463  H464  1.102 .      S
C463  H465  1.100 .      S
C464  C465  1.498 .      S
C464  C466  1.453 .      S
C464  H466  1.095 .      S
C465  H467  1.109 .      S
C465  H468  1.083 .      S
C465  H469  1.075 .      S
N85   Zn31  2.138 1_565  S
C468  H470  1.032 .      S
C469  H471  1.081 1_565  S
C470  C473  1.468 .      S
C471  H472  1.051 .      S
C473  O86   1.343 .      S
O86   H473  0.966 .      S
H471  C469  1.081 1_545  S
C474  C475  1.470 .      S
C474  H474  1.093 .      S
C474  H475  1.108 .      S
C474  H476  1.066 .      S
C475  C476  1.463 .      S
C475  C477  1.505 .      S
C475  H477  1.092 .      S
C476  H478  1.079 .      S
C476  H479  1.106 .      S
C476  H480  1.093 .      S
C479  H481  1.062 .      S
C480  H482  1.081 .      S
C481  C484  1.465 .      S
C482  H483  1.076 .      S
C484  O88   1.344 .      S
O88   H484  0.963 .      S
C485  C486  1.487 .      S
C485  H485  1.100 .      S
C485  H486  1.096 .      S
C485  H487  1.106 .      S
C486  C487  1.492 .      S
C486  C488  1.514 .      S
C486  H488  1.075 .      S
C487  H489  1.109 .      S
C487  H490  1.097 .      S
C487  H491  1.102 .      S
C490  H492  1.068 .      S
C491  H493  1.079 .      S
C492  C495  1.479 .      S
C493  H494  1.067 .      S
C495  O90   1.351 .      S
O90   H495  0.963 .      S
C496  C497  1.495 .      S
C496  H496  1.088 .      S
C496  H497  1.103 1_556  S
C496  H498  1.101 .      S
C497  C498  1.526 .      S
C497  C499  1.503 .      S
C497  H499  1.084 1_556  S
C498  H500  1.101 1_556  S
C498  H501  1.107 1_556  S
C498  H502  1.088 .      S
C501  H503  1.071 .      S
C502  H504  1.080 .      S
C503  C506  1.459 .      S
C504  H505  1.068 .      S
N92   Zn25  2.316 1_556  S
C506  O92   1.334 .      S
O92   H506  0.963 .      S
H497  C496  1.103 1_554  S
H499  C497  1.084 1_554  S
H500  C498  1.101 1_554  S
H501  C498  1.107 1_554  S
C507  C508  1.499 .      S
C507  H507  1.095 .      S
C507  H508  1.094 .      S
C507  H509  1.094 .      S
C508  C509  1.477 .      S
C508  C510  1.528 .      S
C508  H510  1.062 .      S
C509  H511  1.076 .      S
C509  H512  1.106 .      S
C509  H513  1.078 .      S
C512  H514  1.026 .      S
C513  H515  1.080 .      S
C514  C517  1.468 .      S
C515  H516  1.064 .      S
C517  O94   1.342 .      S
O94   H517  0.966 .      S
C518  C519  1.470 .      S
C518  H518  1.072 .      S
C518  H519  1.100 .      S
C518  H520  1.082 .      S
C519  C520  1.496 .      S
C519  C521  1.487 .      S
C519  H521  1.008 .      S
C520  H522  1.081 .      S
C520  H523  1.102 .      S
C520  H524  1.096 .      S
C523  H525  1.059 .      S
C524  H526  1.080 .      S
C525  C528  1.466 1_556  S
C526  H527  1.078 .      S
C528  C525  1.466 1_554  S
C528  O96   1.343 .      S
O96   H528  0.964 .      S
C529  C530  1.457 .      S
C529  H529  1.090 .      S
C529  H530  1.103 .      S
C529  H531  1.092 .      S
C530  C531  1.517 .      S
C530  C532  1.477 .      S
C530  H532  1.107 .      S
C531  H533  1.089 .      S
C531  H534  1.108 .      S
C531  H535  1.100 .      S
C534  H536  1.044 .      S
C535  H537  1.072 .      S
C536  C539  1.463 .      S
C537  H538  1.078 .      S
C539  O98   1.332 .      S
O98   H539  0.962 .      S
C540  C541  1.484 .      S
C540  H540  1.104 .      S
C540  H541  1.087 .      S
C540  H542  1.098 .      S
C541  C542  1.508 .      S
C541  C543  1.489 .      S
C541  H543  1.102 .      S
C542  H544  1.094 .      S
C542  H545  1.109 .      S
C542  H546  1.107 .      S
N99   Zn38  2.300 1_565  S
C545  H547  1.074 .      S
C546  H548  1.080 .      S
C547  C550  1.468 .      S
C548  H549  1.078 1_545  S
C550  O100  1.346 .      S
O100  H550  0.966 .      S
H549  C548  1.078 1_565  S
C551  C552  1.483 .      S
C551  H551  1.082 .      S
C551  H552  1.099 .      S
C551  H553  1.108 .      S
C552  C553  1.438 .      S
C552  C554  1.474 .      S
C552  H554  1.045 .      S
C553  H555  1.110 .      S
C553  H556  1.088 .      S
C553  H557  1.103 .      S
C556  H558  1.070 .      S
C557  H559  1.081 .      S
C558  C561  1.467 .      S
C559  H560  1.073 .      S
C561  O102  1.344 .      S
O102  H561  0.965 .      S
C562  C563  1.472 .      S
C562  H562  1.107 .      S
C562  H563  1.110 .      S
C562  H564  1.065 .      S
C563  C564  1.470 .      S
C563  C565  1.499 .      S
C563  H565  1.095 .      S
C564  H566  1.062 .      S
C564  H567  1.101 .      S
C564  H568  1.098 .      S
C567  H569  1.067 .      S
C568  H570  1.081 .      S
C569  C572  1.469 .      S
C570  H571  1.062 .      S
C572  O104  1.345 .      S
O104  H572  0.966 .      S
C573  C574  1.499 .      S
C573  H573  1.099 .      S
C573  H574  1.105 .      S
C573  H575  1.104 .      S
C574  C575  1.510 .      S
C574  C576  1.488 .      S
C574  H576  1.108 .      S
C575  H577  1.102 .      S
C575  H578  1.106 .      S
C575  H579  1.103 .      S
C578  H580  1.057 .      S
C579  H581  1.077 .      S
C580  C583  1.469 .      S
C581  H582  1.058 .      S
C583  O106  1.347 .      S
O106  H583  0.966 .      S
C584  C585  1.511 .      S
C584  H584  1.100 .      S
C584  H585  1.099 .      S
C584  H586  1.106 1_556  S
C585  C586  1.497 .      S
C585  C587  1.470 .      S
C585  H587  1.039 1_556  S
C586  H588  1.102 1_565  S
C586  H589  1.098 .      S
C586  H590  1.087 1_565  S
C589  H591  1.070 .      S
C590  H592  1.079 .      S
C591  C594  1.467 .      S
C592  H593  1.050 .      S
C594  O108  1.345 .      S
O108  H594  0.965 .      S
H586  C584  1.106 1_554  S
H587  C585  1.039 1_554  S
H588  C586  1.102 1_545  S
H590  C586  1.087 1_545  S
C595  C596  1.492 .      S
C595  H595  1.098 1_545  S
C595  H596  1.106 .      S
C595  H597  1.079 1_545  S
C596  C597  1.498 .      S
C596  C598  1.500 .      S
C596  H598  1.107 .      S
C597  H599  1.090 .      S
C597  H600  1.109 .      S
C597  H601  1.103 .      S
N109  Zn28  2.187 1_545  S
C600  H602  1.053 1_545  S
C601  H603  1.072 .      S
C602  C605  1.467 .      S
C603  H604  1.060 .      S
C605  O110  1.345 .      S
O110  H605  0.966 .      S
H595  C595  1.098 1_565  S
H597  C595  1.079 1_565  S
H602  C600  1.053 1_565  S
C606  C607  1.506 .      S
C606  H606  1.095 .      S
C606  H607  1.102 .      S
C606  H608  1.074 .      S
C607  C608  1.469 .      S
C607  C609  1.515 .      S
C607  H609  1.105 .      S
C608  H610  1.089 .      S
C608  H611  1.107 .      S
C608  H612  1.101 .      S
C611  H613  1.081 .      S
C612  H614  1.080 .      S
C613  C616  1.469 .      S
C614  H615  1.074 .      S
C616  O112  1.345 .      S
O112  H616  0.966 .      S
C617  C618  1.491 .      S
C617  H617  1.083 .      S
C617  H618  1.105 .      S
C617  H619  1.097 .      S
C618  C619  1.468 1_565  S
C618  C620  1.462 .      S
C618  H620  1.063 .      S
C619  C618  1.468 1_545  S
C619  H621  1.106 .      S
C619  H622  1.092 .      S
C619  H623  1.088 .      S
C622  H624  1.060 .      S
C623  H625  1.081 .      S
C624  C627  1.460 .      S
C625  H626  1.068 .      S
C627  O114  1.344 .      S
O114  H627  0.963 .      S
C628  C629  1.466 .      S
C628  H628  1.095 .      S
C628  H629  1.094 1_545  S
C628  H630  1.091 .      S
C629  C630  1.493 .      S
C629  C631  1.480 .      S
C629  H631  1.083 .      S
C630  H632  1.098 .      S
C630  H633  1.098 .      S
C630  H634  1.102 .      S
C633  H635  1.075 .      S
C634  H636  1.079 .      S
C635  C638  1.471 .      S
C636  H637  1.080 .      S
C638  O116  1.349 .      S
O116  H638  0.965 .      S
H629  C628  1.094 1_565  S
C639  C640  1.497 .      S
C639  H639  1.094 .      S
C639  H640  1.077 .      S
C639  H641  1.091 .      S
C640  C641  1.495 .      S
C640  C642  1.435 .      S
C640  H642  1.096 .      S
C641  H643  1.082 .      S
C641  H644  1.083 .      S
C641  H645  1.086 .      S
C644  H646  1.062 .      S
C645  H647  1.081 .      S
C646  C649  1.409 .      S
C647  H648  1.074 .      S
C649  O118  1.328 .      S
O118  H649  0.951 .      S
C650  C651  1.518 .      S
C650  H650  1.109 .      S
C650  H651  1.108 .      S
C650  H652  1.099 .      S
C651  C652  1.483 .      S
C651  C653  1.492 .      S
C651  H653  1.097 .      S
C652  H654  1.099 .      S
C652  H655  1.104 .      S
C652  H656  1.107 .      S
C655  H657  1.064 .      S
C656  H658  1.080 .      S
C657  C660  1.469 .      S
C658  H659  1.059 .      S
C660  O120  1.346 .      S
O120  H660  0.966 .      S
C661  C662  1.444 .      S
C661  H661  1.092 .      S
C661  H662  1.099 .      S
C661  H663  1.082 .      S
C662  C663  1.467 .      S
C662  C664  1.443 .      S
C662  H664  1.097 .      S
C663  H665  1.100 .      S
C663  H666  1.097 .      S
C663  H667  1.101 .      S
C666  H668  1.074 .      S
C667  H669  1.080 .      S
C668  C671  1.465 .      S
C669  H670  1.074 .      S
C671  O122  1.345 .      S
O122  H671  0.966 .      S
C672  C673  1.485 .      S
C672  H672  1.071 .      S
C672  H673  1.096 .      S
C672  H674  1.098 .      S
C673  C674  1.507 .      S
C673  C675  1.439 .      S
C673  H675  1.074 .      S
C674  H676  1.091 .      S
C674  H677  1.092 .      S
C674  H678  1.090 .      S
C677  H679  1.060 .      S
C678  H680  1.074 .      S
C679  C682  1.463 .      S
C680  H681  1.065 .      S
C682  O124  1.346 .      S
O124  H682  0.965 .      S
C683  C684  1.494 .      S
C683  H683  1.099 1_455  S
C683  H684  1.083 .      S
C683  H685  1.104 .      S
C684  C685  1.501 1_455  S
C684  C686  1.460 .      S
C684  H686  1.098 .      S
C685  C684  1.501 1_655  S
C685  H687  1.102 .      S
C685  H688  1.085 .      S
C685  H689  1.105 .      S
C688  H690  1.055 1_455  S
C689  H691  1.079 .      S
C690  C693  1.409 .      S
C691  H692  1.061 .      S
C693  O126  1.341 .      S
O126  H693  0.953 .      S
H683  C683  1.099 1_655  S
H690  C688  1.055 1_655  S
C694  C695  1.495 .      S
C694  H694  1.091 .      S
C694  H695  1.087 .      S
C694  H696  1.092 .      S
C695  C696  1.490 .      S
C695  C697  1.466 .      S
C695  H697  1.100 .      S
C696  H698  1.092 .      S
C696  H699  1.095 .      S
C696  H700  1.106 .      S
C699  H701  1.061 .      S
C700  H702  1.067 .      S
C701  C704  1.435 .      S
C702  H703  1.068 .      S
C704  O128  1.346 .      S
O128  H704  0.961 .      S
C705  C706  1.503 .      S
C705  H705  1.102 .      S
C705  H706  1.098 .      S
C705  H707  1.108 .      S
C706  C707  1.478 .      S
C706  C708  1.488 .      S
C706  H708  1.098 .      S
C707  H709  1.101 .      S
C707  H710  1.098 .      S
C707  H711  1.100 .      S
C710  H712  1.072 .      S
C711  H713  1.071 .      S
C712  C715  1.452 .      S
C713  H714  1.058 .      S
C715  O130  1.339 .      S
O130  H715  0.959 .      S
C716  C717  1.510 .      S
C716  H716  1.092 .      S
C716  H717  1.108 .      S
C716  H718  1.104 .      S
C717  C718  1.497 .      S
C717  C719  1.481 .      S
C717  H719  1.096 .      S
C718  H720  1.089 .      S
C718  H721  1.109 .      S
C718  H722  1.096 .      S
C721  H723  1.046 .      S
C722  H724  1.060 .      S
C723  C726  1.450 .      S
C724  H725  1.029 .      S
C726  O132  1.331 .      S
O132  H726  0.957 .      S
C727  C728  1.510 1_655  S
C727  H727  1.099 .      S
C727  H728  1.109 1_655  S
C727  H729  1.108 1_655  S
C728  C727  1.510 1_455  S
C728  C729  1.467 .      S
C728  C730  1.494 .      S
C728  H730  1.088 1_455  S
C729  H731  1.072 .      S
C729  H732  1.108 .      S
C729  H733  1.100 .      S
C732  H734  1.055 .      S
C733  H735  1.081 .      S
C734  C737  1.463 1_556  S
C735  H736  1.065 .      S
C737  C734  1.463 1_554  S
C737  O134  1.346 .      S
O134  H737  0.965 .      S
H728  C727  1.109 1_455  S
H729  C727  1.108 1_455  S
H730  C728  1.088 1_655  S
C738  C739  1.510 .      S
C738  H738  1.096 .      S
C738  H739  1.096 .      S
C738  H740  1.106 .      S
C739  C740  1.517 .      S
C739  C741  1.505 .      S
C739  H741  1.079 .      S
C740  H742  1.108 .      S
C740  H743  1.106 .      S
C740  H744  1.100 .      S
C743  H745  1.066 .      S
C744  H746  1.080 .      S
C745  C748  1.467 .      S
C746  H747  1.059 .      S
C748  O136  1.346 1_655  S
O136  C748  1.346 1_455  S
O136  H748  0.966 .      S
C749  C750  1.508 .      S
C749  H749  1.090 .      S
C749  H750  1.101 .      S
C749  H751  1.096 .      S
C750  C751  1.534 .      S
C750  C752  1.549 .      S
C750  H752  1.093 .      S
C751  H753  1.106 .      S
C751  H754  1.107 .      S
C751  H755  1.090 .      S
C754  H756  1.049 .      S
C755  H757  1.048 .      S
C756  C759  1.459 .      S
C757  H758  1.062 .      S
C759  O138  1.337 .      S
O138  H759  0.958 .      S
C760  C761  1.469 .      S
C760  H760  1.101 .      S
C760  H761  1.084 .      S
C760  H762  1.087 .      S
C761  C762  1.469 .      S
C761  C763  1.472 .      S
C761  H763  1.062 .      S
C762  H764  1.087 .      S
C762  H765  1.106 .      S
C762  H766  1.096 .      S
C765  H767  1.065 .      S
C766  H768  1.080 .      S
C767  C770  1.471 .      S
C768  H769  1.076 .      S
C770  O140  1.340 .      S
O140  H770  0.966 1_455  S
H770  O140  0.966 1_655  S
C771  C772  1.504 .      S
C771  H771  1.103 .      S
C771  H772  1.100 .      S
C771  H773  1.097 .      S
C772  C773  1.513 .      S
C772  C774  1.490 .      S
C772  H774  1.102 .      S
C773  H775  1.104 .      S
C773  H776  1.102 .      S
C773  H777  1.083 .      S
C776  H778  1.045 .      S
C777  H779  1.080 .      S
C778  C781  1.468 .      S
C779  H780  1.067 .      S
C781  O142  1.345 .      S
O142  H781  0.966 .      S
C782  C783  1.518 .      S
C782  H782  1.105 .      S
C782  H783  1.108 .      S
C782  H784  1.107 .      S
C783  C784  1.515 .      S
C783  C785  1.488 .      S
C783  H785  1.088 .      S
C784  H786  1.109 .      S
C784  H787  1.109 .      S
C784  H788  1.101 .      S
C787  H789  1.063 1_545  S
C788  H790  1.061 .      S
C789  C792  1.433 1_545  S
C790  H791  1.046 .      S
C792  C789  1.433 1_565  S
C792  O144  1.338 .      S
O144  H792  0.961 .      S
H789  C787  1.063 1_565  S
C793  C794  1.523 .      S
C793  H793  1.107 .      S
C793  H794  1.105 .      S
C793  H795  1.106 .      S
C794  C795  1.488 .      S
C794  C796  1.499 .      S
C794  H796  1.095 .      S
C795  H797  1.092 .      S
C795  H798  1.098 .      S
C795  H799  1.087 .      S
C798  H800  1.066 .      S
C799  H801  1.081 .      S
C800  C803  1.470 .      S
C801  H802  1.074 .      S
C803  O146  1.345 .      S
O146  H803  0.966 .      S
C804  C805  1.463 .      S
C804  H804  1.095 .      S
C804  H805  1.095 .      S
C804  H806  1.071 .      S
C805  C806  1.486 1_545  S
C805  C807  1.450 .      S
C805  H807  1.090 .      S
C806  C805  1.486 1_565  S
C806  H808  1.097 .      S
C806  H809  1.073 .      S
C806  H810  1.090 .      S
C809  H811  1.079 1_545  S
C810  H812  1.073 .      S
C811  C814  1.468 .      S
C812  H813  1.076 .      S
C814  O148  1.346 .      S
O148  H814  0.966 .      S
H811  C809  1.079 1_565  S
C815  C816  1.495 .      S
C815  H815  1.108 .      S
C815  H816  1.109 .      S
C815  H817  1.099 .      S
C816  C817  1.502 .      S
C816  C818  1.478 .      S
C816  H818  1.084 .      S
C817  H819  1.099 .      S
C817  H820  1.082 .      S
C817  H821  1.107 .      S
C820  H822  1.067 .      S
C821  H823  1.054 .      S
C822  C825  1.412 .      S
C823  H824  1.079 .      S
C825  O150  1.345 .      S
O150  H825  0.959 .      S
C826  C827  1.517 .      S
C826  H826  1.093 .      S
C826  H827  1.108 .      S
C826  H828  1.098 .      S
C827  C828  1.508 .      S
C827  C829  1.476 .      S
C827  H829  1.096 .      S
C828  H830  1.093 .      S
C828  H831  1.106 .      S
C828  H832  1.091 .      S
C831  H833  1.077 .      S
C832  H834  1.081 .      S
C833  C836  1.465 .      S
C834  H835  1.075 .      S
C836  O152  1.345 .      S
O152  H836  0.965 .      S
C837  C838  1.492 .      S
C837  H837  1.089 .      S
C837  H838  1.092 .      S
C837  H839  1.090 .      S
C838  C839  1.491 .      S
C838  C840  1.464 .      S
C838  H840  1.093 .      S
C839  H841  1.095 .      S
C839  H842  1.090 .      S
C839  H843  1.096 .      S
C842  H844  1.043 .      S
C843  H845  1.077 .      S
C844  C847  1.465 .      S
C845  H846  1.069 .      S
N154  Zn38  2.213 1_565  S
C847  O154  1.338 .      S
O154  H847  0.965 .      S
C848  C849  1.489 .      S
C848  H848  1.074 .      S
C848  H849  1.108 .      S
C848  H850  1.098 .      S
C849  C850  1.513 .      S
C849  C851  1.483 .      S
C849  H851  1.102 .      S
C850  H852  1.109 .      S
C850  H853  1.108 .      S
C850  H854  1.095 .      S
C853  H855  1.046 .      S
C854  H856  1.065 .      S
C855  C858  1.438 .      S
C856  H857  1.049 1_565  S
C858  O156  1.332 .      S
O156  H858  0.951 .      S
H857  C856  1.049 1_545  S
C859  C860  1.511 .      S
C859  H859  1.107 .      S
C859  H860  1.100 .      S
C859  H861  1.109 .      S
C860  C861  1.501 .      S
C860  C862  1.509 .      S
C860  H862  1.089 .      S
C861  H863  1.102 .      S
C861  H864  1.102 .      S
C861  H865  1.100 .      S
N157  Zn9   2.182 1_565  S
C864  H866  1.055 1_565  S
C865  H867  1.075 .      S
C866  C869  1.405 .      S
C867  H868  1.078 .      S
C869  O158  1.345 .      S
O158  H869  0.956 .      S
H866  C864  1.055 1_545  S
C870  C871  1.482 .      S
C870  H870  1.091 .      S
C870  H871  1.108 .      S
C870  H872  1.079 .      S
C871  C872  1.523 .      S
C871  C873  1.499 .      S
C871  H873  1.104 .      S
C872  H874  1.107 .      S
C872  H875  1.109 .      S
C872  H876  1.106 .      S
C875  H877  1.068 .      S
C876  H878  1.080 .      S
C877  C880  1.467 .      S
C878  H879  1.069 .      S
C880  O160  1.343 .      S
O160  H880  0.966 1_556  S
H880  O160  0.966 1_554  S
C881  C882  1.475 .      S
C881  H881  1.069 .      S
C881  H882  1.102 .      S
C881  H883  1.079 .      S
C882  C883  1.495 .      S
C882  C884  1.429 .      S
C882  H884  1.087 .      S
C883  H885  1.096 .      S
C883  H886  1.089 .      S
C883  H887  1.099 .      S
C886  H888  1.079 .      S
C887  H889  1.077 .      S
C888  C891  1.466 .      S
C889  H890  1.080 .      S
C891  O162  1.346 .      S
O162  H891  0.966 .      S
C892  C893  1.489 .      S
C892  H892  1.091 .      S
C892  H893  1.106 .      S
C892  H894  1.092 .      S
C893  C894  1.528 .      S
C893  C895  1.502 .      S
C893  H895  1.103 .      S
C894  H896  1.106 .      S
C894  H897  1.106 .      S
C894  H898  1.105 .      S
C897  H899  1.066 .      S
C898  H900  1.059 .      S
C899  C902  1.417 .      S
C900  H901  1.034 .      S
C902  O164  1.336 .      S
O164  H902  0.952 .      S
C903  C904  1.502 .      S
C903  H903  1.092 .      S
C903  H904  1.110 .      S
C903  H905  1.086 .      S
C904  C905  1.481 .      S
C904  C906  1.515 .      S
C904  H906  1.081 .      S
C905  H907  1.076 .      S
C905  H908  1.093 .      S
C905  H909  1.093 .      S
N165  Zn8   2.230 1_556  S
C908  H910  1.036 .      S
C909  H911  1.078 .      S
C910  C913  1.462 .      S
C911  H912  1.059 .      S
C913  O166  1.346 .      S
O166  H913  0.966 .      S
C914  C915  1.497 .      S
C914  H914  1.095 .      S
C914  H915  1.092 .      S
C914  H916  1.081 .      S
C915  C916  1.478 .      S
C915  C917  1.485 .      S
C915  H917  1.063 .      S
C916  H918  1.099 .      S
C916  H919  1.102 .      S
C916  H920  1.090 .      S
C919  H921  1.064 .      S
C920  H922  1.080 .      S
C921  C924  1.468 .      S
C922  H923  1.074 .      S
C924  O168  1.346 .      S
O168  H924  0.966 .      S
C925  C926  1.523 .      S
C925  H925  1.078 .      S
C925  H926  1.099 .      S
C925  H927  1.093 .      S
C926  C927  1.519 .      S
C926  C928  1.473 .      S
C926  H928  1.106 .      S
C927  H929  1.109 .      S
C927  H930  1.106 .      S
C927  H931  1.105 .      S
C930  H932  1.057 .      S
C931  H933  1.079 .      S
C932  C935  1.421 .      S
C933  H934  1.027 .      S
C935  O170  1.339 .      S
O170  H935  0.957 .      S
C936  C937  1.505 .      S
C936  H936  1.091 .      S
C936  H937  1.107 .      S
C936  H938  1.097 .      S
C937  C938  1.508 .      S
C937  C939  1.453 .      S
C937  H939  1.088 .      S
C938  H940  1.109 .      S
C938  H941  1.104 .      S
C938  H942  1.103 .      S
C941  H943  1.079 .      S
C942  H944  1.081 .      S
C943  C946  1.468 .      S
C944  H945  1.076 .      S
C946  O172  1.346 .      S
O172  H946  0.966 .      S
C947  C948  1.471 .      S
C947  H947  1.087 .      S
C947  H948  1.066 .      S
C947  H949  1.091 .      S
C948  C949  1.506 .      S
C948  C950  1.458 .      S
C948  H950  1.070 .      S
C949  H951  1.091 .      S
C949  H952  1.099 .      S
C949  H953  1.095 .      S
C952  H954  1.061 .      S
C953  H955  1.073 .      S
C954  C957  1.466 .      S
C955  H956  1.078 .      S
C957  O174  1.346 .      S
O174  H957  0.966 .      S
C958  C959  1.524 1_655  S
C958  H958  1.102 .      S
C958  H959  1.102 1_655  S
C958  H960  1.104 1_655  S
C959  C958  1.524 1_455  S
C959  C960  1.490 1_455  S
C959  C961  1.484 .      S
C959  H961  1.093 .      S
C960  C959  1.490 1_655  S
C960  H962  1.103 1_655  S
C960  H963  1.071 .      S
C960  H964  1.089 .      S
C963  H965  1.055 .      S
C964  H966  1.080 .      S
C965  C968  1.460 .      S
C966  H967  1.063 .      S
C968  O176  1.346 .      S
O176  H968  0.965 .      S
H959  C958  1.102 1_455  S
H960  C958  1.104 1_455  S
H962  C960  1.103 1_455  S
C969  C970  1.491 .      S
C969  H969  1.092 .      S
C969  H970  1.084 .      S
C969  H971  1.097 1_455  S
C970  C971  1.494 .      S
C970  C972  1.455 .      S
C970  H972  1.099 .      S
C971  H973  1.098 1_455  S
C971  H974  1.106 .      S
C971  H975  1.106 .      S
C974  H976  1.073 .      S
C975  H977  1.080 .      S
C976  C979  1.465 .      S
C977  H978  1.061 .      S
C979  O178  1.342 .      S
O178  H979  0.965 .      S
H971  C969  1.097 1_655  S
H973  C971  1.098 1_655  S
C980  C981  1.510 .      S
C980  H980  1.107 .      S
C980  H981  1.107 .      S
C980  H982  1.096 .      S
C981  C982  1.467 .      S
C981  C983  1.475 .      S
C981  H983  1.105 .      S
C982  H984  1.100 .      S
C982  H985  1.091 .      S
C982  H986  1.097 .      S
C985  H987  1.068 .      S
C986  H988  1.081 .      S
C987  C990  1.466 .      S
C988  H989  1.068 .      S
C990  O180  1.347 .      S
O180  H990  0.966 1_455  S
H990  O180  0.966 1_655  S
C991  C992  1.504 .      S
C991  H991  1.079 .      S
C991  H992  1.087 1_655  S
C991  H993  1.094 .      S
C992  C993  1.450 .      S
C992  C994  1.407 .      S
C992  H994  1.082 .      S
C993  H995  1.096 .      S
C993  H996  1.081 1_655  S
C993  H997  1.082 1_655  S
C996  H998  1.078 .      S
C997  H999  1.079 .      S
C998  C1001 1.446 .      S
C999  H1000 1.067 .      S
C1001 O182  1.346 .      S
O182  H1001 0.965 .      S
H992  C991  1.087 1_455  S
H996  C993  1.081 1_455  S
H997  C993  1.082 1_455  S
C1002 C1003 1.482 .      S
C1002 H1002 1.098 .      S
C1002 H1003 1.104 .      S
C1002 H1004 1.084 .      S
C1003 C1004 1.504 .      S
C1003 C1005 1.485 .      S
C1003 H1005 1.104 .      S
C1004 H1006 1.103 .      S
C1004 H1007 1.108 .      S
C1004 H1008 1.087 .      S
N183  Zn12  2.316 1_565  S
C1007 H1009 1.048 .      S
C1008 H1010 1.074 .      S
C1009 C1012 1.443 .      S
C1010 H1011 1.066 .      S
C1012 O184  1.331 1_565  S
O184  C1012 1.331 1_545  S
O184  H1012 0.960 .      S
C1013 C1014 1.520 .      S
C1013 H1013 1.107 .      S
C1013 H1014 1.109 .      S
C1013 H1015 1.105 .      S
C1014 C1015 1.513 .      S
C1014 C1016 1.503 .      S
C1014 H1016 1.100 .      S
C1015 H1017 1.096 .      S
C1015 H1018 1.108 .      S
C1015 H1019 1.101 .      S
C1018 H1020 1.076 .      S
C1019 H1021 1.081 .      S
C1020 C1023 1.465 .      S
C1021 H1022 1.063 .      S
C1023 O186  1.346 .      S
O186  H1023 0.964 .      S
C1024 C1025 1.510 .      S
C1024 H1024 1.093 .      S
C1024 H1025 1.108 .      S
C1024 H1026 1.109 .      S
C1025 C1026 1.508 .      S
C1025 C1027 1.508 .      S
C1025 H1027 1.098 .      S
C1026 H1028 1.102 .      S
C1026 H1029 1.095 .      S
C1026 H1030 1.106 .      S
C1029 H1031 1.041 .      S
C1030 H1032 1.081 .      S
C1031 C1034 1.466 .      S
C1032 H1033 1.052 .      S
C1034 O188  1.346 .      S
O188  H1034 0.966 .      S
C1035 C1036 1.489 .      S
C1035 H1035 1.097 .      S
C1035 H1036 1.108 1_556  S
C1035 H1037 1.099 1_556  S
C1036 C1037 1.479 .      S
C1036 C1038 1.462 .      S
C1036 H1038 1.108 1_556  S
C1037 H1039 1.089 .      S
C1037 H1040 1.081 .      S
C1037 H1041 1.101 .      S
C1040 H1042 1.071 .      S
C1041 H1043 1.081 .      S
C1042 C1045 1.468 .      S
C1043 H1044 1.056 .      S
N190  Zn2   2.255 1_556  S
C1045 O190  1.346 .      S
O190  H1045 0.966 .      S
H1036 C1035 1.108 1_554  S
H1037 C1035 1.099 1_554  S
H1038 C1036 1.108 1_554  S
C1046 C1047 1.515 .      S
C1046 H1046 1.081 .      S
C1046 H1047 1.104 .      S
C1046 H1048 1.109 .      S
C1047 C1048 1.507 .      S
C1047 C1049 1.533 .      S
C1047 H1049 1.106 .      S
C1048 H1050 1.105 .      S
C1048 H1051 1.101 .      S
C1048 H1052 1.096 .      S
C1051 H1053 1.047 .      S
C1052 H1054 1.068 .      S
C1053 C1056 1.445 .      S
C1054 H1055 1.051 .      S
C1056 O192  1.347 .      S
O192  H1056 0.964 .      S
C4    N1    1.386 .      A
C4    N2    1.379 .      A
N1    C5    1.351 .      A
C5    C6    1.369 .      A
C5    C10   1.388 .      A
C6    C7    1.385 .      A
C7    C8    1.396 1_556  A
C8    C7    1.396 1_554  A
C8    C9    1.388 .      A
C9    C10   1.371 1_554  A
C10   C9    1.371 1_556  A
C10   N2    1.354 .      A
C15   N3    1.387 .      A
C15   N4    1.380 .      A
N3    C16   1.370 1_554  A
C16   N3    1.370 1_556  A
C16   C17   1.370 .      A
C16   C21   1.357 .      A
C17   C18   1.377 .      A
C18   C19   1.375 .      A
C19   C20   1.350 .      A
C20   C21   1.347 .      A
C21   N4    1.311 1_556  A
N4    C21   1.311 1_554  A
C26   N5    1.393 .      A
C26   N6    1.408 .      A
N5    C27   1.341 .      A
C27   C28   1.368 .      A
C27   C32   1.378 .      A
C28   C29   1.371 .      A
C29   C30   1.387 .      A
C30   C31   1.401 .      A
C31   C32   1.374 .      A
C32   N6    1.363 .      A
C37   N7    1.395 .      A
C37   N8    1.392 .      A
N7    C38   1.348 .      A
C38   C39   1.375 .      A
C38   C43   1.365 .      A
C39   C40   1.380 .      A
C40   C41   1.392 .      A
C41   C42   1.392 .      A
C42   C43   1.366 .      A
C43   N8    1.352 .      A
C48   N9    1.394 .      A
C48   N10   1.402 .      A
N9    C49   1.342 .      A
C49   C50   1.356 .      A
C49   C54   1.355 .      A
C50   C51   1.380 .      A
C51   C52   1.384 .      A
C52   C53   1.384 .      A
C53   C54   1.368 .      A
C54   N10   1.346 .      A
C59   N11   1.417 .      A
C59   N12   1.399 .      A
N11   C60   1.354 .      A
C60   C61   1.371 .      A
C60   C65   1.384 .      A
C61   C62   1.384 .      A
C62   C63   1.393 .      A
C63   C64   1.387 .      A
C64   C65   1.369 .      A
C65   N12   1.350 .      A
C70   N13   1.388 .      A
C70   N14   1.407 .      A
N13   C71   1.348 .      A
C71   C72   1.371 .      A
C71   C76   1.376 .      A
C72   C73   1.377 .      A
C73   C74   1.385 .      A
C74   C75   1.385 .      A
C75   C76   1.369 .      A
C76   N14   1.357 .      A
C81   N15   1.418 .      A
C81   N16   1.426 .      A
N15   C82   1.359 .      A
C82   C83   1.366 .      A
C82   C87   1.376 .      A
C83   C84   1.378 1_545  A
C84   C83   1.378 1_565  A
C84   C85   1.388 .      A
C85   C86   1.392 .      A
C86   C87   1.375 1_565  A
C87   C86   1.375 1_545  A
C87   N16   1.345 .      A
C92   N17   1.398 .      A
C92   N18   1.392 .      A
N17   C93   1.351 .      A
C93   C94   1.370 .      A
C93   C98   1.382 .      A
C94   C95   1.380 .      A
C95   C96   1.392 .      A
C96   C97   1.392 .      A
C97   C98   1.375 .      A
C98   N18   1.357 .      A
C103  N19   1.381 .      A
C103  N20   1.365 .      A
N19   C104  1.353 .      A
C104  C105  1.366 .      A
C104  C109  1.367 .      A
C105  C106  1.374 .      A
C106  C107  1.379 .      A
C107  C108  1.351 .      A
C108  C109  1.346 .      A
C109  N20   1.311 .      A
C114  N21   1.410 .      A
C114  N22   1.397 1_545  A
N21   C115  1.345 .      A
C115  C116  1.351 .      A
C115  C120  1.351 1_545  A
C116  C117  1.363 1_545  A
C117  C116  1.363 1_565  A
C117  C118  1.371 .      A
C118  C119  1.351 .      A
C119  C120  1.352 .      A
C120  C115  1.351 1_565  A
C120  N22   1.326 .      A
N22   C114  1.397 1_565  A
C125  N23   1.385 .      A
C125  N24   1.395 .      A
N23   C126  1.345 .      A
C126  C127  1.370 .      A
C126  C131  1.370 .      A
C127  C128  1.380 .      A
C128  C129  1.390 .      A
C129  C130  1.386 .      A
C130  C131  1.375 .      A
C131  N24   1.357 .      A
C136  N25   1.391 .      A
C136  N26   1.394 .      A
N25   C137  1.348 .      A
C137  C138  1.355 .      A
C137  C142  1.368 .      A
C138  C139  1.384 .      A
C139  C140  1.379 .      A
C140  C141  1.379 .      A
C141  C142  1.366 .      A
C142  N26   1.340 .      A
C147  N27   1.383 .      A
C147  N28   1.389 .      A
N27   C148  1.337 .      A
C148  C149  1.353 .      A
C148  C153  1.331 .      A
C149  C150  1.368 .      A
C150  C151  1.366 .      A
C151  C152  1.380 .      A
C152  C153  1.392 .      A
C153  N28   1.366 .      A
C158  N29   1.379 .      A
C158  N30   1.380 .      A
N29   C159  1.325 .      A
C159  C160  1.350 .      A
C159  C164  1.375 .      A
C160  C161  1.365 .      A
C161  C162  1.381 .      A
C162  C163  1.402 .      A
C163  C164  1.374 .      A
C164  N30   1.375 .      A
C169  N31   1.404 1_455  A
C169  N32   1.399 .      A
N31   C169  1.404 1_655  A
N31   C170  1.317 .      A
C170  C171  1.332 .      A
C170  C175  1.364 1_655  A
C171  C172  1.332 .      A
C172  C173  1.356 1_655  A
C173  C172  1.356 1_455  A
C173  C174  1.364 .      A
C174  C175  1.372 .      A
C175  C170  1.364 1_455  A
C175  N32   1.349 .      A
C180  N33   1.404 .      A
C180  N34   1.403 .      A
N33   C181  1.347 1_554  A
C181  N33   1.347 1_556  A
C181  C182  1.369 .      A
C181  C186  1.367 1_556  A
C182  C183  1.384 .      A
C183  C184  1.392 .      A
C184  C185  1.384 .      A
C185  C186  1.367 1_556  A
C186  C181  1.367 1_554  A
C186  C185  1.367 1_554  A
C186  N34   1.347 .      A
C191  N35   1.381 .      A
C191  N36   1.369 .      A
N35   C192  1.318 .      A
C192  C193  1.336 .      A
C192  C197  1.351 .      A
C193  C194  1.359 .      A
C194  C195  1.359 .      A
C195  C196  1.377 .      A
C196  C197  1.361 .      A
C197  N36   1.353 .      A
C202  N37   1.424 .      A
C202  N38   1.383 .      A
N37   C203  1.345 .      A
C203  C204  1.350 .      A
C203  C208  1.341 .      A
C204  C205  1.369 .      A
C205  C206  1.380 .      A
C206  C207  1.366 .      A
C207  C208  1.346 .      A
C208  N38   1.313 .      A
C213  N39   1.387 .      A
C213  N40   1.395 .      A
N39   C214  1.360 .      A
C214  C215  1.356 .      A
C214  C219  1.365 .      A
C215  C216  1.386 .      A
C216  C217  1.387 .      A
C217  C218  1.381 .      A
C218  C219  1.369 .      A
C219  N40   1.332 .      A
C224  N41   1.385 .      A
C224  N42   1.374 .      A
N41   C225  1.354 .      A
C225  C226  1.353 .      A
C225  C230  1.359 .      A
C226  C227  1.389 .      A
C227  C228  1.387 .      A
C228  C229  1.381 .      A
C229  C230  1.368 .      A
C230  N42   1.338 .      A
C235  N43   1.407 .      A
C235  N44   1.373 .      A
N43   C236  1.321 .      A
C236  C237  1.353 .      A
C236  C241  1.362 .      A
C237  C238  1.364 .      A
C238  C239  1.385 .      A
C239  C240  1.370 .      A
C240  C241  1.312 .      A
C241  N44   1.337 .      A
C246  N45   1.415 .      A
C246  N46   1.411 .      A
N45   C247  1.325 .      A
C247  C248  1.321 .      A
C247  C252  1.348 .      A
C248  C249  1.363 .      A
C249  C250  1.361 .      A
C250  C251  1.354 .      A
C251  C252  1.344 .      A
C252  N46   1.317 .      A
C257  N47   1.399 .      A
C257  N48   1.390 .      A
N47   C258  1.344 .      A
C258  C259  1.371 .      A
C258  C263  1.371 .      A
C259  C260  1.376 .      A
C260  C261  1.381 .      A
C261  C262  1.383 .      A
C262  C263  1.373 .      A
C263  N48   1.352 .      A
C268  N49   1.414 .      A
C268  N50   1.392 .      A
N49   C269  1.344 .      A
C269  C270  1.370 .      A
C269  C274  1.368 .      A
C270  C271  1.373 .      A
C271  C272  1.384 .      A
C272  C273  1.389 .      A
C273  C274  1.377 .      A
C274  N50   1.363 .      A
C279  N51   1.398 .      A
C279  N52   1.396 .      A
N51   C280  1.339 .      A
C280  C281  1.362 .      A
C280  C285  1.367 .      A
C281  C282  1.366 .      A
C282  C283  1.381 .      A
C283  C284  1.402 .      A
C284  C285  1.378 .      A
C285  N52   1.358 .      A
C290  N53   1.389 .      A
C290  N54   1.391 .      A
N53   C291  1.343 .      A
C291  C292  1.372 .      A
C291  C296  1.365 .      A
C292  C293  1.380 .      A
C293  C294  1.389 .      A
C294  C295  1.388 .      A
C295  C296  1.371 .      A
C296  N54   1.350 .      A
C301  N55   1.385 1_556  A
C301  N56   1.359 .      A
N55   C301  1.385 1_554  A
N55   C302  1.374 .      A
C302  C303  1.391 .      A
C302  C307  1.363 1_554  A
C303  C304  1.376 .      A
C304  C305  1.376 1_554  A
C305  C304  1.376 1_556  A
C305  C306  1.382 .      A
C306  C307  1.371 .      A
C307  C302  1.363 1_556  A
C307  N56   1.340 .      A
C312  N57   1.396 .      A
C312  N58   1.370 .      A
N57   C313  1.346 .      A
C313  C314  1.375 .      A
C313  C318  1.362 .      A
C314  C315  1.381 .      A
C315  C316  1.390 .      A
C316  C317  1.388 .      A
C317  C318  1.380 .      A
C318  N58   1.358 .      A
C323  N59   1.385 .      A
C323  N60   1.403 .      A
N59   C324  1.354 .      A
C324  C325  1.369 .      A
C324  C329  1.342 .      A
C325  C326  1.390 .      A
C326  C327  1.383 .      A
C327  C328  1.369 .      A
C328  C329  1.363 .      A
C329  N60   1.325 .      A
C334  N61   1.374 .      A
C334  N62   1.372 .      A
N61   C335  1.358 .      A
C335  C336  1.377 .      A
C335  C340  1.386 .      A
C336  C337  1.372 .      A
C337  C338  1.380 .      A
C338  C339  1.389 .      A
C339  C340  1.378 .      A
C340  N62   1.363 .      A
C345  N63   1.391 .      A
C345  N64   1.397 .      A
N63   C346  1.351 .      A
C346  C347  1.377 .      A
C346  C351  1.373 .      A
C347  C348  1.378 .      A
C348  C349  1.388 .      A
C349  C350  1.389 .      A
C350  C351  1.375 .      A
C351  N64   1.357 .      A
C356  N65   1.387 .      A
C356  N66   1.418 .      A
N65   C357  1.349 .      A
C357  C358  1.358 .      A
C357  C362  1.360 .      A
C358  C359  1.375 .      A
C359  C360  1.382 .      A
C360  C361  1.386 .      A
C361  C362  1.371 .      A
C362  N66   1.353 .      A
C367  N67   1.384 .      A
C367  N68   1.415 .      A
N67   C368  1.333 .      A
C368  C369  1.372 .      A
C368  C373  1.350 .      A
C369  C370  1.385 .      A
C370  C371  1.387 .      A
C371  C372  1.375 .      A
C372  C373  1.363 .      A
C373  N68   1.346 .      A
C378  N69   1.408 .      A
C378  N70   1.386 .      A
N69   C379  1.346 .      A
C379  C380  1.364 .      A
C379  C384  1.371 .      A
C380  C381  1.380 .      A
C381  C382  1.387 .      A
C382  C383  1.385 .      A
C383  C384  1.374 .      A
C384  N70   1.357 .      A
C389  N71   1.396 .      A
C389  N72   1.368 .      A
N71   C390  1.355 .      A
C390  C391  1.353 .      A
C390  C395  1.369 .      A
C391  C392  1.383 .      A
C392  C393  1.387 .      A
C393  C394  1.382 .      A
C394  C395  1.370 .      A
C395  N72   1.344 .      A
C400  N73   1.416 .      A
C400  N74   1.369 .      A
N73   C401  1.349 .      A
C401  C402  1.364 .      A
C401  C406  1.333 .      A
C402  C403  1.364 .      A
C403  C404  1.366 .      A
C404  C405  1.392 .      A
C405  C406  1.392 .      A
C406  N74   1.362 .      A
C411  N75   1.365 .      A
C411  N76   1.394 .      A
N75   C412  1.353 .      A
C412  C413  1.346 .      A
C412  C417  1.344 .      A
C413  C414  1.384 .      A
C414  C415  1.373 .      A
C415  C416  1.374 .      A
C416  C417  1.369 .      A
C417  N76   1.325 .      A
C422  N77   1.396 1_556  A
C422  N78   1.406 .      A
N77   C422  1.396 1_554  A
N77   C423  1.339 .      A
C423  C424  1.367 .      A
C423  C428  1.376 1_554  A
C424  C425  1.376 .      A
C425  C426  1.389 .      A
C426  C427  1.391 1_554  A
C427  C426  1.391 1_556  A
C427  C428  1.370 .      A
C428  C423  1.376 1_556  A
C428  N78   1.357 .      A
C433  N79   1.416 .      A
C433  N80   1.403 .      A
N79   C434  1.339 .      A
C434  C435  1.358 .      A
C434  C439  1.345 .      A
C435  C436  1.364 .      A
C436  C437  1.368 .      A
C437  C438  1.380 .      A
C438  C439  1.340 .      A
C439  N80   1.338 .      A
C444  N81   1.400 .      A
C444  N82   1.387 .      A
N81   C445  1.350 .      A
C445  C446  1.373 .      A
C445  C450  1.366 .      A
C446  C447  1.379 .      A
C447  C448  1.384 .      A
C448  C449  1.384 .      A
C449  C450  1.374 .      A
C450  N82   1.354 .      A
C455  N83   1.414 1_455  A
C455  N84   1.379 .      A
N83   C455  1.414 1_655  A
N83   C456  1.347 1_655  A
C456  N83   1.347 1_455  A
C456  C457  1.371 1_455  A
C456  C461  1.372 .      A
C457  C456  1.371 1_655  A
C457  C458  1.381 .      A
C458  C459  1.391 1_655  A
C459  C458  1.391 1_455  A
C459  C460  1.390 .      A
C460  C461  1.371 .      A
C461  N84   1.349 .      A
C466  N85   1.397 .      A
C466  N86   1.379 .      A
N85   C467  1.355 .      A
C467  C468  1.365 1_565  A
C467  C472  1.347 .      A
C468  C467  1.365 1_545  A
C468  C469  1.369 1_545  A
C469  C468  1.369 1_565  A
C469  C470  1.370 .      A
C470  C471  1.380 .      A
C471  C472  1.378 .      A
C472  N86   1.351 .      A
C477  N87   1.396 .      A
C477  N88   1.384 .      A
N87   C478  1.371 .      A
C478  C479  1.380 .      A
C478  C483  1.362 .      A
C479  C480  1.381 .      A
C480  C481  1.384 .      A
C481  C482  1.379 .      A
C482  C483  1.378 .      A
C483  N88   1.345 .      A
C488  N89   1.405 .      A
C488  N90   1.394 .      A
N89   C489  1.352 .      A
C489  C490  1.360 .      A
C489  C494  1.357 .      A
C490  C491  1.379 .      A
C491  C492  1.389 .      A
C492  C493  1.391 .      A
C493  C494  1.373 .      A
C494  N90   1.341 .      A
C499  N91   1.401 .      A
C499  N92   1.419 .      A
N91   C500  1.326 .      A
C500  C501  1.355 .      A
C500  C505  1.367 .      A
C501  C502  1.363 .      A
C502  C503  1.383 .      A
C503  C504  1.401 .      A
C504  C505  1.382 .      A
C505  N92   1.374 .      A
C510  N93   1.386 .      A
C510  N94   1.405 .      A
N93   C511  1.370 .      A
C511  C512  1.368 .      A
C511  C516  1.349 .      A
C512  C513  1.374 .      A
C513  C514  1.374 .      A
C514  C515  1.383 .      A
C515  C516  1.379 .      A
C516  N94   1.333 .      A
C521  N95   1.391 .      A
C521  N96   1.439 .      A
N95   C522  1.350 .      A
C522  C523  1.361 .      A
C522  C527  1.377 .      A
C523  C524  1.377 .      A
C524  C525  1.390 .      A
C525  C526  1.391 .      A
C526  C527  1.375 .      A
C527  N96   1.350 .      A
C532  N97   1.389 .      A
C532  N98   1.409 1_545  A
N97   C533  1.358 1_545  A
C533  N97   1.358 1_565  A
C533  C534  1.345 .      A
C533  C538  1.351 .      A
C534  C535  1.376 .      A
C535  C536  1.366 .      A
C536  C537  1.375 .      A
C537  C538  1.367 .      A
C538  N98   1.322 .      A
N98   C532  1.409 1_565  A
C543  N99   1.425 .      A
C543  N100  1.409 .      A
N99   C544  1.355 1_565  A
C544  N99   1.355 1_545  A
C544  C545  1.372 .      A
C544  C549  1.380 1_545  A
C545  C546  1.384 .      A
C546  C547  1.393 .      A
C547  C548  1.387 .      A
C548  C549  1.373 1_545  A
C549  C544  1.380 1_565  A
C549  C548  1.373 1_565  A
C549  N100  1.349 .      A
C554  N101  1.405 .      A
C554  N102  1.384 .      A
N101  C555  1.355 .      A
C555  C556  1.373 .      A
C555  C560  1.372 .      A
C556  C557  1.379 .      A
C557  C558  1.385 .      A
C558  C559  1.386 .      A
C559  C560  1.376 .      A
C560  N102  1.352 .      A
C565  N103  1.398 .      A
C565  N104  1.383 .      A
N103  C566  1.365 .      A
C566  C567  1.384 .      A
C566  C571  1.370 .      A
C567  C568  1.375 .      A
C568  C569  1.381 .      A
C569  C570  1.385 .      A
C570  C571  1.379 .      A
C571  N104  1.357 .      A
C576  N105  1.402 .      A
C576  N106  1.384 .      A
N105  C577  1.345 .      A
C577  C578  1.356 .      A
C577  C582  1.350 .      A
C578  C579  1.378 .      A
C579  C580  1.374 .      A
C580  C581  1.379 .      A
C581  C582  1.382 .      A
C582  N106  1.359 .      A
C587  N107  1.392 1_565  A
C587  N108  1.397 1_556  A
N107  C587  1.392 1_545  A
N107  C588  1.340 .      A
C588  C589  1.368 .      A
C588  C593  1.370 1_556  A
C589  C590  1.376 .      A
C590  C591  1.381 1_556  A
C591  C590  1.381 1_554  A
C591  C592  1.384 .      A
C592  C593  1.379 .      A
C593  C588  1.370 1_554  A
C593  N108  1.369 1_545  A
N108  C587  1.397 1_554  A
N108  C593  1.369 1_565  A
C598  N109  1.393 .      A
C598  N110  1.405 .      A
N109  C599  1.347 .      A
C599  C600  1.344 .      A
C599  C604  1.357 .      A
C600  C601  1.381 .      A
C601  C602  1.374 .      A
C602  C603  1.377 .      A
C603  C604  1.372 .      A
C604  N110  1.345 .      A
C609  N111  1.412 .      A
C609  N112  1.382 .      A
N111  C610  1.350 .      A
C610  C611  1.376 .      A
C610  C615  1.363 .      A
C611  C612  1.379 .      A
C612  C613  1.389 1_545  A
C613  C612  1.389 1_565  A
C613  C614  1.389 .      A
C614  C615  1.378 1_565  A
C615  C614  1.378 1_545  A
C615  N112  1.354 .      A
C620  N113  1.397 1_565  A
C620  N114  1.392 .      A
N113  C620  1.397 1_545  A
N113  C621  1.356 1_545  A
C621  N113  1.356 1_565  A
C621  C622  1.369 1_565  A
C621  C626  1.368 .      A
C622  C621  1.369 1_545  A
C622  C623  1.378 1_545  A
C623  C622  1.378 1_565  A
C623  C624  1.383 .      A
C624  C625  1.381 .      A
C625  C626  1.371 .      A
C626  N114  1.345 .      A
C631  N115  1.388 .      A
C631  N116  1.379 .      A
N115  C632  1.351 .      A
C632  C633  1.367 .      A
C632  C637  1.368 .      A
C633  C634  1.382 .      A
C634  C635  1.395 .      A
C635  C636  1.390 .      A
C636  C637  1.372 .      A
C637  N116  1.352 .      A
C642  N117  1.381 .      A
C642  N118  1.392 .      A
N117  C643  1.325 .      A
C643  C644  1.363 .      A
C643  C648  1.369 .      A
C644  C645  1.352 .      A
C645  C646  1.372 .      A
C646  C647  1.383 .      A
C647  C648  1.350 .      A
C648  N118  1.353 .      A
C653  N119  1.417 .      A
C653  N120  1.414 .      A
N119  C654  1.345 .      A
C654  C655  1.363 .      A
C654  C659  1.375 .      A
C655  C656  1.376 .      A
C656  C657  1.387 .      A
C657  C658  1.387 .      A
C658  C659  1.370 .      A
C659  N120  1.354 .      A
C664  N121  1.422 .      A
C664  N122  1.365 .      A
N121  C665  1.344 .      A
C665  C666  1.362 .      A
C665  C670  1.374 .      A
C666  C667  1.382 .      A
C667  C668  1.392 .      A
C668  C669  1.390 .      A
C669  C670  1.376 .      A
C670  N122  1.354 .      A
C675  N123  1.399 .      A
C675  N124  1.381 .      A
N123  C676  1.359 .      A
C676  C677  1.356 .      A
C676  C681  1.364 .      A
C677  C678  1.392 .      A
C678  C679  1.382 .      A
C679  C680  1.368 .      A
C680  C681  1.358 .      A
C681  N124  1.326 .      A
C686  N125  1.404 1_455  A
C686  N126  1.378 .      A
N125  C686  1.404 1_655  A
N125  C687  1.341 1_655  A
C687  N125  1.341 1_455  A
C687  C688  1.369 .      A
C687  C692  1.350 .      A
C688  C689  1.366 .      A
C689  C690  1.373 .      A
C690  C691  1.358 .      A
C691  C692  1.325 .      A
C692  N126  1.327 .      A
C697  N127  1.402 .      A
C697  N128  1.393 .      A
N127  C698  1.331 .      A
C698  C699  1.356 .      A
C698  C703  1.358 .      A
C699  C700  1.358 .      A
C700  C701  1.374 .      A
C701  C702  1.376 .      A
C702  C703  1.363 .      A
C703  N128  1.350 .      A
C708  N129  1.407 .      A
C708  N130  1.368 .      A
N129  C709  1.350 .      A
C709  C710  1.370 .      A
C709  C714  1.344 .      A
C710  C711  1.387 .      A
C711  C712  1.389 .      A
C712  C713  1.353 .      A
C713  C714  1.327 .      A
C714  N130  1.322 .      A
C719  N131  1.412 .      A
C719  N132  1.408 .      A
N131  C720  1.319 .      A
C720  C721  1.364 .      A
C720  C725  1.373 .      A
C721  C722  1.333 .      A
C722  C723  1.337 .      A
C723  C724  1.354 .      A
C724  C725  1.344 .      A
C725  N132  1.350 .      A
C730  N133  1.378 1_455  A
C730  N134  1.398 .      A
N133  C730  1.378 1_655  A
N133  C731  1.361 1_655  A
C731  N133  1.361 1_455  A
C731  C732  1.376 1_455  A
C731  C736  1.364 .      A
C732  C731  1.376 1_655  A
C732  C733  1.379 1_655  A
C733  C732  1.379 1_455  A
C733  C734  1.382 .      A
C734  C735  1.379 .      A
C735  C736  1.371 .      A
C736  N134  1.339 .      A
C741  N135  1.395 .      A
C741  N136  1.406 .      A
N135  C742  1.345 .      A
C742  C743  1.372 .      A
C742  C747  1.359 .      A
C743  C744  1.377 .      A
C744  C745  1.385 .      A
C745  C746  1.387 .      A
C746  C747  1.371 .      A
C747  N136  1.353 .      A
C752  N137  1.435 .      A
C752  N138  1.409 .      A
N137  C753  1.350 .      A
C753  C754  1.346 .      A
C753  C758  1.343 .      A
C754  C755  1.356 .      A
C755  C756  1.356 .      A
C756  C757  1.376 .      A
C757  C758  1.371 .      A
C758  N138  1.333 .      A
C763  N139  1.410 .      A
C763  N140  1.411 .      A
N139  C764  1.351 .      A
C764  C765  1.363 .      A
C764  C769  1.385 .      A
C765  C766  1.373 .      A
C766  C767  1.389 .      A
C767  C768  1.400 .      A
C768  C769  1.383 .      A
C769  N140  1.359 .      A
C774  N141  1.409 .      A
C774  N142  1.403 .      A
N141  C775  1.361 .      A
C775  C776  1.359 .      A
C775  C780  1.365 .      A
C776  C777  1.379 .      A
C777  C778  1.385 .      A
C778  C779  1.383 .      A
C779  C780  1.372 .      A
C780  N142  1.340 .      A
C785  N143  1.411 .      A
C785  N144  1.388 .      A
N143  C786  1.336 .      A
C786  C787  1.344 .      A
C786  C791  1.342 .      A
C787  C788  1.367 1_545  A
C788  C787  1.367 1_565  A
C788  C789  1.368 1_565  A
C789  C788  1.368 1_545  A
C789  C790  1.334 .      A
C790  C791  1.347 .      A
C791  N144  1.323 .      A
C796  N145  1.414 .      A
C796  N146  1.395 .      A
N145  C797  1.344 .      A
C797  C798  1.358 .      A
C797  C802  1.361 .      A
C798  C799  1.378 .      A
C799  C800  1.390 .      A
C800  C801  1.396 .      A
C801  C802  1.366 .      A
C802  N146  1.345 .      A
C807  N147  1.404 1_545  A
C807  N148  1.366 .      A
N147  C807  1.404 1_565  A
N147  C808  1.352 1_565  A
C808  N147  1.352 1_545  A
C808  C809  1.369 .      A
C808  C813  1.371 .      A
C809  C810  1.382 .      A
C810  C811  1.389 .      A
C811  C812  1.386 .      A
C812  C813  1.368 .      A
C813  N148  1.342 .      A
C818  N149  1.407 .      A
C818  N150  1.396 .      A
N149  C819  1.319 .      A
C819  C820  1.344 .      A
C819  C824  1.369 .      A
C820  C821  1.342 .      A
C821  C822  1.358 .      A
C822  C823  1.378 .      A
C823  C824  1.358 .      A
C824  N150  1.348 .      A
C829  N151  1.424 .      A
C829  N152  1.403 .      A
N151  C830  1.345 .      A
C830  C831  1.369 .      A
C830  C835  1.381 .      A
C831  C832  1.378 .      A
C832  C833  1.389 .      A
C833  C834  1.389 .      A
C834  C835  1.375 .      A
C835  N152  1.360 .      A
C840  N153  1.396 .      A
C840  N154  1.412 .      A
N153  C841  1.355 .      A
C841  C842  1.354 .      A
C841  C846  1.369 .      A
C842  C843  1.371 .      A
C843  C844  1.377 .      A
C844  C845  1.389 .      A
C845  C846  1.378 .      A
C846  N154  1.346 .      A
C851  N155  1.424 .      A
C851  N156  1.394 .      A
N155  C852  1.348 .      A
C852  C853  1.355 .      A
C852  C857  1.349 .      A
C853  C854  1.378 1_565  A
C854  C853  1.378 1_545  A
C854  C855  1.382 .      A
C855  C856  1.327 1_545  A
C856  C855  1.327 1_565  A
C856  C857  1.331 .      A
C857  N156  1.309 .      A
C862  N157  1.403 .      A
C862  N158  1.415 .      A
N157  C863  1.306 .      A
C863  C864  1.328 .      A
C863  C868  1.357 .      A
C864  C865  1.326 .      A
C865  C866  1.354 .      A
C866  C867  1.392 .      A
C867  C868  1.371 .      A
C868  N158  1.356 .      A
C873  N159  1.393 1_455  A
C873  N160  1.425 .      A
N159  C873  1.393 1_655  A
N159  C874  1.341 1_655  A
C874  N159  1.341 1_455  A
C874  C875  1.370 1_455  A
C874  C879  1.371 .      A
C875  C874  1.370 1_655  A
C875  C876  1.377 1_655  A
C876  C875  1.377 1_455  A
C876  C877  1.389 .      A
C877  C878  1.393 .      A
C878  C879  1.369 .      A
C879  N160  1.359 .      A
C884  N161  1.389 .      A
C884  N162  1.388 .      A
N161  C885  1.350 .      A
C885  C886  1.371 .      A
C885  C890  1.364 .      A
C886  C887  1.384 .      A
C887  C888  1.393 .      A
C888  C889  1.386 .      A
C889  C890  1.367 .      A
C890  N162  1.346 .      A
C895  N163  1.394 .      A
C895  N164  1.404 .      A
N163  C896  1.323 .      A
C896  C897  1.349 .      A
C896  C901  1.344 .      A
C897  C898  1.363 .      A
C898  C899  1.354 .      A
C899  C900  1.341 .      A
C900  C901  1.337 .      A
C901  N164  1.343 .      A
C906  N165  1.413 .      A
C906  N166  1.391 .      A
N165  C907  1.340 .      A
C907  C908  1.334 1_556  A
C907  C912  1.348 .      A
C908  C907  1.334 1_554  A
C908  C909  1.371 .      A
C909  C910  1.376 .      A
C910  C911  1.388 1_554  A
C911  C910  1.388 1_556  A
C911  C912  1.367 .      A
C912  N166  1.341 .      A
C917  N167  1.407 .      A
C917  N168  1.409 .      A
N167  C918  1.356 .      A
C918  C919  1.366 .      A
C918  C923  1.376 .      A
C919  C920  1.384 .      A
C920  C921  1.391 .      A
C921  C922  1.385 .      A
C922  C923  1.369 .      A
C923  N168  1.343 .      A
C928  N169  1.413 .      A
C928  N170  1.384 1_455  A
N169  C929  1.323 .      A
C929  C930  1.358 .      A
C929  C934  1.348 1_455  A
C930  C931  1.351 .      A
C931  C932  1.360 1_455  A
C932  C931  1.360 1_655  A
C932  C933  1.362 .      A
C933  C934  1.344 .      A
C934  C929  1.348 1_655  A
C934  N170  1.350 .      A
N170  C928  1.384 1_655  A
C939  N171  1.409 .      A
C939  N172  1.389 .      A
N171  C940  1.349 .      A
C940  C941  1.375 .      A
C940  C945  1.377 .      A
C941  C942  1.382 .      A
C942  C943  1.391 .      A
C943  C944  1.387 .      A
C944  C945  1.376 .      A
C945  N172  1.359 .      A
C950  N173  1.392 .      A
C950  N174  1.379 .      A
N173  C951  1.364 .      A
C951  C952  1.377 .      A
C951  C956  1.362 .      A
C952  C953  1.381 .      A
C953  C954  1.383 .      A
C954  C955  1.380 .      A
C955  C956  1.362 .      A
C956  N174  1.335 .      A
C961  N175  1.404 1_455  A
C961  N176  1.406 .      A
N175  C961  1.404 1_655  A
N175  C962  1.336 1_655  A
C962  N175  1.336 1_455  A
C962  C963  1.346 1_455  A
C962  C967  1.371 .      A
C963  C962  1.346 1_655  A
C963  C964  1.376 1_655  A
C964  C963  1.376 1_455  A
C964  C965  1.383 .      A
C965  C966  1.391 .      A
C966  C967  1.377 .      A
C967  N176  1.354 .      A
C972  N177  1.412 1_465  A
C972  N178  1.398 .      A
N177  C972  1.412 1_645  A
N177  C973  1.334 1_655  A
C973  N177  1.334 1_455  A
C973  C974  1.358 1_455  A
C973  C978  1.382 .      A
C974  C973  1.358 1_655  A
C974  C975  1.375 .      A
C975  C976  1.390 1_655  A
C976  C975  1.390 1_455  A
C976  C977  1.395 .      A
C977  C978  1.375 .      A
C978  N178  1.367 1_545  A
N178  C978  1.367 1_565  A
C983  N179  1.377 .      A
C983  N180  1.403 .      A
N179  C984  1.350 .      A
C984  C985  1.370 .      A
C984  C989  1.370 .      A
C985  C986  1.382 .      A
C986  C987  1.391 .      A
C987  C988  1.386 .      A
C988  C989  1.370 .      A
C989  N180  1.348 .      A
C994  N181  1.380 .      A
C994  N182  1.382 .      A
N181  C995  1.327 .      A
C995  C996  1.354 .      A
C995  C1000 1.376 .      A
C996  C997  1.359 .      A
C997  C998  1.370 .      A
C998  C999  1.392 .      A
C999  C1000 1.390 .      A
C1000 N182  1.377 .      A
C1005 N183  1.426 .      A
C1005 N184  1.406 .      A
N183  C1006 1.357 .      A
C1006 C1007 1.355 1_565  A
C1006 C1011 1.360 .      A
C1007 C1006 1.355 1_545  A
C1007 C1008 1.378 .      A
C1008 C1009 1.374 1_545  A
C1009 C1008 1.374 1_565  A
C1009 C1010 1.350 .      A
C1010 C1011 1.348 .      A
C1011 N184  1.318 .      A
C1016 N185  1.413 .      A
C1016 N186  1.419 .      A
N185  C1017 1.339 .      A
C1017 C1018 1.365 .      A
C1017 C1022 1.382 .      A
C1018 C1019 1.378 .      A
C1019 C1020 1.385 .      A
C1020 C1021 1.386 .      A
C1021 C1022 1.375 .      A
C1022 N186  1.361 .      A
C1027 N187  1.415 .      A
C1027 N188  1.417 .      A
N187  C1028 1.359 .      A
C1028 C1029 1.371 .      A
C1028 C1033 1.363 .      A
C1029 C1030 1.379 .      A
C1030 C1031 1.379 .      A
C1031 C1032 1.373 .      A
C1032 C1033 1.361 .      A
C1033 N188  1.342 .      A
C1038 N189  1.406 .      A
C1038 N190  1.394 .      A
N189  C1039 1.345 .      A
C1039 C1040 1.375 .      A
C1039 C1044 1.367 .      A
C1040 C1041 1.378 .      A
C1041 C1042 1.387 .      A
C1042 C1043 1.387 .      A
C1043 C1044 1.371 .      A
C1044 N190  1.362 .      A
C1049 N191  1.418 .      A
C1049 N192  1.416 .      A
N191  C1050 1.338 .      A
C1050 C1051 1.346 .      A
C1050 C1055 1.347 .      A
C1051 C1052 1.361 .      A
C1052 C1053 1.367 .      A
C1053 C1054 1.357 .      A
C1054 C1055 1.353 .      A
C1055 N192  1.330 .      A
C11   O1    1.219 .      D
C22   O3    1.211 .      D
C33   O5    1.219 .      D
C44   O7    1.219 .      D
C55   O9    1.219 .      D
C66   O11   1.219 .      D
C77   O13   1.219 .      D
C88   O15   1.219 .      D
C99   O17   1.219 .      D
C110  O19   1.211 .      D
C121  O21   1.214 .      D
C132  O23   1.219 1_565  D
O23   C132  1.219 1_545  D
C143  O25   1.219 .      D
C154  O27   1.219 .      D
C165  O29   1.219 .      D
C176  O31   1.216 1_545  D
O31   C176  1.216 1_565  D
C187  O33   1.219 .      D
C198  O35   1.210 .      D
C209  O37   1.217 .      D
C220  O39   1.219 .      D
C231  O41   1.219 .      D
C242  O43   1.212 .      D
C253  O45   1.210 .      D
C264  O47   1.218 .      D
C275  O49   1.219 .      D
C286  O51   1.219 .      D
C297  O53   1.218 .      D
C308  O55   1.219 1_556  D
O55   C308  1.219 1_554  D
C319  O57   1.219 .      D
C330  O59   1.216 .      D
C341  O61   1.219 .      D
C352  O63   1.219 .      D
C363  O65   1.219 .      D
C374  O67   1.216 .      D
C385  O69   1.219 .      D
C396  O71   1.219 .      D
C407  O73   1.219 .      D
C418  O75   1.218 .      D
C429  O77   1.219 .      D
C440  O79   1.215 .      D
C451  O81   1.219 .      D
C462  O83   1.219 .      D
C473  O85   1.218 .      D
C484  O87   1.219 .      D
C495  O89   1.219 .      D
C506  O91   1.219 .      D
C517  O93   1.219 .      D
C528  O95   1.219 .      D
C539  O97   1.213 .      D
C550  O99   1.219 .      D
C561  O101  1.219 .      D
C572  O103  1.219 .      D
C583  O105  1.219 .      D
C594  O107  1.219 .      D
C605  O109  1.219 .      D
C616  O111  1.219 .      D
C627  O113  1.219 .      D
C638  O115  1.219 .      D
C649  O117  1.216 .      D
C660  O119  1.219 .      D
C671  O121  1.219 .      D
C682  O123  1.217 .      D
C693  O125  1.214 .      D
C704  O127  1.216 .      D
C715  O129  1.209 .      D
C726  O131  1.210 .      D
C737  O133  1.219 .      D
C748  O135  1.219 .      D
C759  O137  1.218 .      D
C770  O139  1.219 .      D
C781  O141  1.219 .      D
C792  O143  1.201 .      D
C803  O145  1.219 .      D
C814  O147  1.219 .      D
C825  O149  1.212 .      D
C836  O151  1.219 .      D
C847  O153  1.219 .      D
C858  O155  1.219 .      D
C869  O157  1.202 .      D
C880  O159  1.219 1_556  D
O159  C880  1.219 1_554  D
C891  O161  1.218 .      D
C902  O163  1.215 .      D
C913  O165  1.219 .      D
C924  O167  1.219 .      D
C935  O169  1.217 .      D
C946  O171  1.219 .      D
C957  O173  1.218 .      D
C968  O175  1.218 .      D
C979  O177  1.219 .      D
C990  O179  1.219 .      D
C1001 O181  1.217 .      D
C1012 O183  1.214 .      D
C1023 O185  1.219 .      D
C1034 O187  1.216 .      D
C1045 O189  1.219 .      D
C1056 O191  1.213 .      D
