data_str_m1_o12004_STW
_audit_creation_date              2015-10-01T06:33:42-0700
_symmetry_space_group_name_H-M    P1
_symmetry_Int_Tables_number       1
_space_group_crystal_system       triclinic
loop_
_symmetry_equiv_pos_as_xyz
  x,y,z
_cell_length_a                    24.6036011
_cell_length_b                    24.0454291
_cell_length_c                    62.7193560
_cell_angle_alpha                 90.9011760
_cell_angle_beta                  88.3021622
_cell_angle_gamma                 63.2039170
_cell_volume                      33088.4330919

loop_
_atom_site_label
_atom_site_type_symbol
_atom_site_description
_atom_site_fract_x
_atom_site_fract_y
_atom_site_fract_z
_atom_type_partial_charge
Zn1   Zn    Zn3+2 0.419576 0.458998 0.453057 0.000000
Zn2   Zn    Zn3+2 0.121475 0.478329 0.793797 0.000000
Zn3   Zn    Zn3+2 0.690797 0.694377 0.802019 0.000000
Zn4   Zn    Zn3+2 0.487303 0.858215 0.737790 0.000000
Zn5   Zn    Zn3+2 0.127734 0.523284 0.894060 0.000000
Zn6   Zn    Zn3+2 0.307647 0.277921 0.729249 0.000000
Zn7   Zn    Zn3+2 0.656553 0.265488 0.400300 0.000000
Zn8   Zn    Zn3+2 0.183605 0.439948 0.131007 0.000000
Zn9   Zn    Zn3+2 0.437083 0.857666 0.634438 0.000000
Zn10  Zn    Zn3+2 0.213082 0.067937 0.747625 0.000000
Zn11  Zn    Zn3+2 0.723116 0.865275 0.410824 0.000000
Zn12  Zn    Zn3+2 0.913688 0.449326 0.912939 0.000000
Zn13  Zn    Zn3+2 0.406266 0.269030 0.247025 0.000000
Zn14  Zn    Zn3+2 0.136815 0.888731 0.047142 0.000000
Zn15  Zn    Zn3+2 0.576985 0.058935 0.721602 0.000000
Zn16  Zn    Zn3+2 0.918817 0.801413 0.887388 0.000000
Zn17  Zn    Zn3+2 0.503077 0.536455 0.078231 0.000000
Zn18  Zn    Zn3+2 0.184876 0.482683 0.566132 0.000000
Zn19  Zn    Zn3+2 0.130618 0.458920 0.233074 0.000000
Zn20  Zn    Zn3+2 0.696880 0.728308 0.900806 0.000000
Zn21  Zn    Zn3+2 0.224035 0.591020 0.058464 0.000000
Zn22  Zn    Zn3+2 0.090640 0.775981 0.580999 0.000000
Zn23  Zn    Zn3+2 0.122706 0.212923 0.122856 0.000000
Zn24  Zn    Zn3+2 0.335204 0.043214 0.238121 0.000000
Zn25  Zn    Zn3+2 0.371806 0.697786 0.568433 0.000000
Zn26  Zn    Zn3+2 0.854716 0.268941 0.968801 0.000000
Zn27  Zn    Zn3+2 0.657815 0.193522 0.297409 0.000000
Zn28  Zn    Zn3+2 0.924163 0.022167 0.633343 0.000000
Zn29  Zn    Zn3+2 0.685760 0.308936 0.133175 0.000000
Zn30  Zn    Zn3+2 0.972867 0.127001 0.802928 0.000000
Zn31  Zn    Zn3+2 0.775737 0.313626 0.230384 0.000000
Zn32  Zn    Zn3+2 0.783497 0.041488 0.466947 0.000000
Zn33  Zn    Zn3+2 0.928212 0.167229 0.068229 0.000000
Zn34  Zn    Zn3+2 0.698746 0.131929 0.567746 0.000000
Zn35  Zn    Zn3+2 0.406784 0.836499 0.067685 0.000000
Zn36  Zn    Zn3+2 0.338622 0.749726 0.466414 0.000000
Zn37  Zn    Zn3+2 0.390493 0.032883 0.137494 0.000000
Zn38  Zn    Zn3+2 0.713296 0.491303 0.382509 0.000000
Zn39  Zn    Zn3+2 0.699140 0.560736 0.284519 0.000000
Zn40  Zn    Zn3+2 0.984761 0.026909 0.902610 0.000000
Zn41  Zn    Zn3+2 0.852600 0.002801 0.736006 0.000000
Zn42  Zn    Zn3+2 0.157148 0.066173 0.651983 0.000000
Zn43  Zn    Zn3+2 0.574079 0.488597 0.980314 0.000000
Zn44  Zn    Zn3+2 0.898921 0.416197 0.816479 0.000000
Zn45  Zn    Zn3+2 0.714532 0.915070 0.312119 0.000000
Zn46  Zn    Zn3+2 0.058551 0.832112 0.484589 0.000000
Zn47  Zn    Zn3+2 0.460393 0.254753 0.148943 0.000000
Zn48  Zn    Zn3+2 0.465877 0.406710 0.549969 0.000000
Zn49  Zn    Zn3+2 0.065434 0.234515 0.222058 0.000000
Zn50  Zn    Zn3+2 0.218771 0.846330 0.949669 0.000000
Zn51  Zn    Zn3+2 0.129913 0.540291 0.467130 0.000000
Zn52  Zn    Zn3+2 0.502148 0.837544 0.300513 0.000000
Zn53  Zn    Zn3+2 0.915446 0.634856 0.300332 0.000000
Zn54  Zn    Zn3+2 0.249561 0.268997 0.634110 0.000000
Zn55  Zn    Zn3+2 0.291664 0.563428 0.960505 0.000000
Zn56  Zn    Zn3+2 0.917634 0.758988 0.788014 0.000000
Zn57  Zn    Zn3+2 0.492601 0.779414 0.969854 0.000000
Zn58  Zn    Zn3+2 0.521762 0.057890 0.623626 0.000000
Zn59  Zn    Zn3+2 0.926817 0.583793 0.398741 0.000000
Zn60  Zn    Zn3+2 0.513337 0.774863 0.399099 0.000000
C1    C     C_3   0.578225 0.268038 0.463028 0.000000
N1    N     N_3   0.578056 0.328212 0.464578 0.000000
C2    C     C_3   0.591834 0.347318 0.444041 0.000000
C3    C     C_R   0.546004 0.356638 0.428282 0.000000
N2    N     N_R   0.482985 0.393124 0.430196 0.000000
C4    C     C_R   0.465021 0.369681 0.413503 0.000000
C5    C     C_R   0.407178 0.387607 0.406597 0.000000
C6    C     C_R   0.398641 0.348282 0.392184 0.000000
C7    C     C_R   0.447703 0.293524 0.384545 0.000000
C8    C     C_R   0.506540 0.280786 0.389513 0.000000
C9    C     C_R   0.513827 0.321584 0.403257 0.000000
N3    N     N_R   0.566073 0.316317 0.410982 0.000000
H1    H     H_    0.562073 0.258677 0.478575 0.000000
H2    H     H_    0.547289 0.267039 0.450736 0.000000
H3    H     H_    0.625479 0.231845 0.459994 0.000000
H4    H     H_    0.613899 0.321957 0.474350 0.000000
H5    H     H_    0.603048 0.386647 0.445034 0.000000
H6    H     H_    0.632277 0.308736 0.437138 0.000000
H7    H     H_    0.368927 0.429385 0.412762 0.000000
H8    H     H_    0.353216 0.359499 0.387267 0.000000
H9    H     H_    0.440179 0.262352 0.373782 0.000000
H10   H     H_    0.545210 0.239226 0.383246 0.000000
C10   C     C_3   0.531568 0.601404 0.482705 0.000000
N4    N     N_3   0.476306 0.625066 0.470818 0.000000
C11   C     C_3   0.437152 0.598707 0.478792 0.000000
C12   C     C_R   0.394530 0.603809 0.462381 0.000000
N5    N     N_R   0.370655 0.659295 0.452196 0.000000
C13   C     C_R   0.375145 0.639801 0.431580 0.000000
C14   C     C_R   0.371321 0.671941 0.413428 0.000000
C15   C     C_R   0.377026 0.641440 0.394040 0.000000
C16   C     C_R   0.391160 0.579137 0.392756 0.000000
C17   C     C_R   0.403623 0.545373 0.410968 0.000000
C18   C     C_R   0.394678 0.576967 0.430111 0.000000
N6    N     N_R   0.404821 0.552196 0.449424 0.000000
H11   H     H_    0.567804 0.561735 0.473567 0.000000
H12   H     H_    0.547025 0.637876 0.484215 0.000000
H13   H     H_    0.523583 0.587370 0.498790 0.000000
H14   H     H_    0.489915 0.608713 0.455078 0.000000
H15   H     H_    0.463747 0.550103 0.480601 0.000000
H16   H     H_    0.413611 0.622156 0.493862 0.000000
H17   H     H_    0.368391 0.717691 0.413820 0.000000
H18   H     H_    0.373295 0.665159 0.379589 0.000000
H19   H     H_    0.395632 0.556355 0.377358 0.000000
H20   H     H_    0.418544 0.496101 0.410132 0.000000
C19   C     C_3   0.253606 0.574118 0.399480 0.000000
N7    N     N_3   0.229972 0.558446 0.418748 0.000000
C20   C     C_3   0.267459 0.558727 0.436308 0.000000
C21   C     C_R   0.272411 0.511722 0.451917 0.000000
N8    N     N_R   0.330081 0.461287 0.452068 0.000000
C22   C     C_R   0.316268 0.413138 0.449803 0.000000
C23   C     C_R   0.355017 0.352172 0.444147 0.000000
C24   C     C_R   0.330238 0.312329 0.439199 0.000000
C25   C     C_R   0.267702 0.333669 0.439976 0.000000
C26   C     C_R   0.229409 0.395096 0.445665 0.000000
C27   C     C_R   0.254494 0.433772 0.450803 0.000000
N9    N     N_R   0.224504 0.496001 0.454474 0.000000
H21   H     H_    0.264229 0.613442 0.402879 0.000000
H22   H     H_    0.295249 0.532879 0.393332 0.000000
H23   H     H_    0.219011 0.587630 0.387114 0.000000
H24   H     H_    0.236476 0.512955 0.415915 0.000000
H25   H     H_    0.313588 0.541238 0.429654 0.000000
H26   H     H_    0.253333 0.605337 0.443678 0.000000
H27   H     H_    0.403567 0.335414 0.442895 0.000000
H28   H     H_    0.359910 0.264471 0.434343 0.000000
H29   H     H_    0.248746 0.302732 0.435374 0.000000
H30   H     H_    0.181625 0.413417 0.443883 0.000000
C28   C     C_3   0.537412 0.698864 0.846219 0.000000
N10   N     N_3   0.584889 0.662896 0.860708 0.000000
C29   C     C_3   0.644152 0.651387 0.851409 0.000000
C30   C     C_R   0.651675 0.709769 0.851640 0.000000
N11   N     N_R   0.652093 0.737342 0.832539 0.000000
C31   C     C_R   0.645197 0.793673 0.839361 0.000000
C32   C     C_R   0.627207 0.847244 0.828234 0.000000
C33   C     C_R   0.622889 0.900198 0.838732 0.000000
C34   C     C_R   0.634360 0.899406 0.860219 0.000000
C35   C     C_R   0.647032 0.846458 0.871459 0.000000
C36   C     C_R   0.650425 0.795187 0.860835 0.000000
N12   N     N_R   0.659150 0.741209 0.869447 0.000000
H31   H     H_    0.549557 0.678657 0.829745 0.000000
H32   H     H_    0.494548 0.697592 0.851417 0.000000
H33   H     H_    0.529574 0.747998 0.846657 0.000000
H34   H     H_    0.584890 0.619639 0.861939 0.000000
H35   H     H_    0.680766 0.613657 0.859574 0.000000
H36   H     H_    0.647857 0.634742 0.834637 0.000000
H37   H     H_    0.609458 0.850737 0.812781 0.000000
H38   H     H_    0.609030 0.942959 0.830308 0.000000
H39   H     H_    0.630693 0.940985 0.868358 0.000000
H40   H     H_    0.653064 0.844901 0.888105 0.000000
C37   C     C_3   0.424500 0.835879 0.813068 0.000000
N13   N     N_3   0.468393 0.838883 0.797679 0.000000
C38   C     C_3   0.522440 0.779397 0.796328 0.000000
C39   C     C_R   0.564452 0.771643 0.777377 0.000000
N14   N     N_R   0.545166 0.779567 0.756300 0.000000
C40   C     C_R   0.592798 0.731552 0.745968 0.000000
C41   C     C_R   0.597879 0.710309 0.725226 0.000000
C42   C     C_R   0.651918 0.660667 0.717950 0.000000
C43   C     C_R   0.699945 0.632786 0.731405 0.000000
C44   C     C_R   0.693499 0.653464 0.752409 0.000000
C45   C     C_R   0.639359 0.702084 0.759216 0.000000
N15   N     N_R   0.624106 0.726253 0.779085 0.000000
H41   H     H_    0.382199 0.880627 0.813365 0.000000
H42   H     H_    0.413130 0.797701 0.808584 0.000000
H43   H     H_    0.443408 0.828347 0.829172 0.000000
H44   H     H_    0.449622 0.847821 0.782831 0.000000
H45   H     H_    0.548188 0.774481 0.810904 0.000000
H46   H     H_    0.509243 0.741049 0.795442 0.000000
H47   H     H_    0.560756 0.729103 0.714939 0.000000
H48   H     H_    0.656552 0.643328 0.701655 0.000000
H49   H     H_    0.741941 0.594027 0.725581 0.000000
H50   H     H_    0.729312 0.631371 0.763325 0.000000
C46   C     C_3   0.659754 0.809874 0.667439 0.000000
N16   N     N_3   0.595164 0.847155 0.672896 0.000000
C47   C     C_3   0.567376 0.806533 0.677176 0.000000
C48   C     C_R   0.500192 0.840265 0.682335 0.000000
N17   N     N_R   0.484001 0.833238 0.703546 0.000000
C49   C     C_R   0.454695 0.798348 0.700084 0.000000
C50   C     C_R   0.440918 0.765095 0.714907 0.000000
C51   C     C_R   0.418899 0.724517 0.708022 0.000000
C52   C     C_R   0.415023 0.715043 0.686372 0.000000
C53   C     C_R   0.431119 0.747715 0.671622 0.000000
C54   C     C_R   0.447125 0.792056 0.678869 0.000000
N18   N     N_R   0.467191 0.826052 0.667116 0.000000
H51   H     H_    0.686945 0.806790 0.681481 0.000000
H52   H     H_    0.669787 0.761991 0.662066 0.000000
H53   H     H_    0.673661 0.832580 0.654780 0.000000
H54   H     H_    0.572557 0.880548 0.661878 0.000000
H55   H     H_    0.574884 0.773883 0.663620 0.000000
H56   H     H_    0.590263 0.777571 0.690620 0.000000
H57   H     H_    0.453025 0.766024 0.731066 0.000000
H58   H     H_    0.409106 0.696662 0.719423 0.000000
H59   H     H_    0.402773 0.679428 0.680974 0.000000
H60   H     H_    0.438429 0.733190 0.655161 0.000000
C55   C     C_3   0.147566 0.335310 0.867470 0.000000
N19   N     N_3   0.160715 0.387198 0.863512 0.000000
C56   C     C_3   0.115902 0.429030 0.849273 0.000000
C57   C     C_R   0.131350 0.480686 0.845166 0.000000
N20   N     N_R   0.149371 0.507415 0.861378 0.000000
C58   C     C_R   0.184301 0.528490 0.850587 0.000000
C59   C     C_R   0.221269 0.551807 0.858787 0.000000
C60   C     C_R   0.257860 0.565132 0.844706 0.000000
C61   C     C_R   0.258478 0.553049 0.822965 0.000000
C62   C     C_R   0.221836 0.528331 0.815063 0.000000
C63   C     C_R   0.183836 0.518316 0.829155 0.000000
N21   N     N_R   0.148892 0.489989 0.824931 0.000000
H61   H     H_    0.181107 0.303195 0.878471 0.000000
H62   H     H_    0.101350 0.353346 0.875003 0.000000
H63   H     H_    0.150768 0.309795 0.852245 0.000000
H64   H     H_    0.203290 0.369432 0.855515 0.000000
H65   H     H_    0.118828 0.403912 0.833989 0.000000
H66   H     H_    0.069591 0.446733 0.856504 0.000000
H67   H     H_    0.223209 0.558315 0.875679 0.000000
H68   H     H_    0.287502 0.583391 0.850753 0.000000
H69   H     H_    0.288907 0.561499 0.812212 0.000000
H70   H     H_    0.225571 0.513992 0.798499 0.000000
C64   C     C_3   0.116079 0.372607 0.714420 0.000000
N22   N     N_3   0.158971 0.347507 0.731514 0.000000
C65   C     C_3   0.154341 0.398542 0.745359 0.000000
C66   C     C_R   0.207802 0.384143 0.758236 0.000000
N23   N     N_R   0.199161 0.411025 0.778235 0.000000
C67   C     C_R   0.256121 0.383743 0.785695 0.000000
C68   C     C_R   0.274256 0.381401 0.806367 0.000000
C69   C     C_R   0.335728 0.350953 0.810146 0.000000
C70   C     C_R   0.377844 0.321677 0.793517 0.000000
C71   C     C_R   0.358363 0.318344 0.773341 0.000000
C72   C     C_R   0.296962 0.347703 0.770072 0.000000
N24   N     N_R   0.267941 0.344876 0.752555 0.000000
H71   H     H_    0.070967 0.377147 0.719506 0.000000
H72   H     H_    0.108847 0.419329 0.709770 0.000000
H73   H     H_    0.133578 0.340797 0.700181 0.000000
H74   H     H_    0.202510 0.324543 0.724711 0.000000
H75   H     H_    0.145759 0.440919 0.736667 0.000000
H76   H     H_    0.117438 0.408380 0.757268 0.000000
H77   H     H_    0.242669 0.398121 0.819729 0.000000
H78   H     H_    0.350912 0.349463 0.826219 0.000000
H79   H     H_    0.425946 0.298710 0.796525 0.000000
H80   H     H_    0.391203 0.294601 0.760696 0.000000
C73   C     C_3   0.184680 0.242469 0.805834 0.000000
N25   N     N_3   0.191031 0.212382 0.784985 0.000000
C74   C     C_3   0.249679 0.201334 0.775821 0.000000
C75   C     C_R   0.254108 0.185075 0.752697 0.000000
N26   N     N_R   0.243400 0.137051 0.744107 0.000000
C76   C     C_R   0.260996 0.137373 0.723772 0.000000
C77   C     C_R   0.266735 0.097879 0.707411 0.000000
C78   C     C_R   0.265316 0.120096 0.687221 0.000000
C79   C     C_R   0.273374 0.172398 0.684989 0.000000
C80   C     C_R   0.296603 0.189702 0.701614 0.000000
C81   C     C_R   0.278241 0.181306 0.720533 0.000000
N27   N     N_R   0.275812 0.213362 0.737814 0.000000
H81   H     H_    0.145823 0.241822 0.814932 0.000000
H82   H     H_    0.226527 0.216867 0.814808 0.000000
H83   H     H_    0.176635 0.291379 0.804019 0.000000
H84   H     H_    0.157844 0.242592 0.775182 0.000000
H85   H     H_    0.256140 0.243823 0.777816 0.000000
H86   H     H_    0.285543 0.162847 0.784178 0.000000
H87   H     H_    0.264844 0.055785 0.710538 0.000000
H88   H     H_    0.255664 0.099163 0.673532 0.000000
H89   H     H_    0.269920 0.194224 0.670108 0.000000
H90   H     H_    0.331076 0.204658 0.700836 0.000000
C82   C     C_3   0.366458 0.004539 0.787697 0.000000
N28   N     N_3   0.349656 0.048568 0.770462 0.000000
C83   C     C_3   0.371552 0.016656 0.749772 0.000000
C84   C     C_R   0.351893 0.967912 0.747312 0.000000
N29   N     N_R   0.392812 0.905225 0.748335 0.000000
C85   C     C_R   0.355936 0.881608 0.756311 0.000000
C86   C     C_R   0.372092 0.822562 0.763541 0.000000
C87   C     C_R   0.327841 0.811061 0.773803 0.000000
C88   C     C_R   0.269605 0.858747 0.777849 0.000000
C89   C     C_R   0.254309 0.918230 0.771109 0.000000
C90   C     C_R   0.296952 0.927688 0.759127 0.000000
N30   N     N_R   0.291832 0.982452 0.752025 0.000000
H91   H     H_    0.377419 0.025287 0.801832 0.000000
H92   H     H_    0.328668 0.993560 0.792231 0.000000
H93   H     H_    0.405876 0.960522 0.782965 0.000000
H94   H     H_    0.372565 0.075120 0.772798 0.000000
H95   H     H_    0.354675 0.049684 0.737020 0.000000
H96   H     H_    0.420320 0.996976 0.748386 0.000000
H97   H     H_    0.418581 0.786832 0.762983 0.000000
H98   H     H_    0.339754 0.765308 0.779831 0.000000
H99   H     H_    0.236510 0.849605 0.786826 0.000000
H100  H     H_    0.210276 0.956200 0.775527 0.000000
C91   C     C_3   0.953062 0.796805 0.384880 0.000000
N31   N     N_3   0.928163 0.768000 0.399871 0.000000
C92   C     C_3   0.881592 0.757970 0.389250 0.000000
C93   C     C_R   0.848418 0.735562 0.404131 0.000000
N32   N     N_R   0.873032 0.674946 0.411101 0.000000
C94   C     C_R   0.845706 0.683242 0.430586 0.000000
C95   C     C_R   0.854224 0.638620 0.445288 0.000000
C96   C     C_R   0.822760 0.657938 0.464795 0.000000
C97   C     C_R   0.783573 0.720550 0.469034 0.000000
C98   C     C_R   0.773718 0.764219 0.453574 0.000000
C99   C     C_R   0.804483 0.744271 0.434230 0.000000
N33   N     N_R   0.799528 0.777662 0.416568 0.000000
H101  H     H_    0.000332 0.785202 0.388871 0.000000
H102  H     H_    0.952207 0.780884 0.368302 0.000000
H103  H     H_    0.925664 0.847795 0.386113 0.000000
H104  H     H_    0.906096 0.801696 0.411940 0.000000
H105  H     H_    0.847639 0.803043 0.384093 0.000000
H106  H     H_    0.902594 0.724156 0.376013 0.000000
H107  H     H_    0.885215 0.590183 0.441955 0.000000
H108  H     H_    0.829327 0.624231 0.476902 0.000000
H109  H     H_    0.760269 0.735282 0.484498 0.000000
H110  H     H_    0.745355 0.812478 0.457067 0.000000
C100  C     C_3   0.638394 0.837905 0.347547 0.000000
N34   N     N_3   0.639905 0.851586 0.369832 0.000000
C101  C     C_3   0.639658 0.800581 0.381302 0.000000
C102  C     C_R   0.616273 0.823220 0.402648 0.000000
N35   N     N_R   0.632458 0.864950 0.412754 0.000000
C103  C     C_R   0.577128 0.904627 0.422310 0.000000
C104  C     C_R   0.556746 0.964338 0.430928 0.000000
C105  C     C_R   0.497014 0.997555 0.438406 0.000000
C106  C     C_R   0.456462 0.972945 0.436524 0.000000
C107  C     C_R   0.475450 0.915236 0.426783 0.000000
C108  C     C_R   0.535337 0.882074 0.419896 0.000000
N36   N     N_R   0.559418 0.828612 0.408189 0.000000
H111  H     H_    0.654035 0.865250 0.337923 0.000000
H112  H     H_    0.667221 0.788523 0.343897 0.000000
H113  H     H_    0.592111 0.850604 0.343088 0.000000
H114  H     H_    0.598747 0.890317 0.373822 0.000000
H115  H     H_    0.606266 0.787552 0.374480 0.000000
H116  H     H_    0.685425 0.762221 0.381467 0.000000
H117  H     H_    0.584847 0.987109 0.432145 0.000000
H118  H     H_    0.481723 0.043760 0.445439 0.000000
H119  H     H_    0.409513 0.999652 0.442075 0.000000
H120  H     H_    0.443392 0.897571 0.424432 0.000000
C109  C     C_3   0.861743 0.619145 0.965961 0.000000
N37   N     N_3   0.876328 0.587423 0.945102 0.000000
C110  C     C_3   0.833355 0.629174 0.930137 0.000000
C111  C     C_R   0.805840 0.597659 0.916547 0.000000
N38   N     N_R   0.827059 0.533329 0.916470 0.000000
C112  C     C_R   0.777220 0.528075 0.911441 0.000000
C113  C     C_R   0.768052 0.476733 0.913948 0.000000
C114  C     C_R   0.712683 0.479962 0.909083 0.000000
C115  C     C_R   0.669557 0.533194 0.900325 0.000000
C116  C     C_R   0.678395 0.585857 0.898736 0.000000
C117  C     C_R   0.732248 0.583457 0.905344 0.000000
N39   N     N_R   0.748300 0.630334 0.908226 0.000000
H121  H     H_    0.817770 0.622787 0.972487 0.000000
H122  H     H_    0.897757 0.591496 0.977032 0.000000
H123  H     H_    0.859223 0.666207 0.964820 0.000000
H124  H     H_    0.869811 0.548094 0.947349 0.000000
H125  H     H_    0.794927 0.663969 0.939646 0.000000
H126  H     H_    0.855601 0.651516 0.920262 0.000000
H127  H     H_    0.801706 0.436411 0.920739 0.000000
H128  H     H_    0.704240 0.439905 0.911064 0.000000
H129  H     H_    0.628538 0.533221 0.894922 0.000000
H130  H     H_    0.642186 0.628308 0.893593 0.000000
C118  C     C_3   0.904799 0.546813 0.887044 0.000000
N40   N     N_3   0.962645 0.515623 0.876486 0.000000
C119  C     C_3   0.998154 0.535523 0.888606 0.000000
C120  C     C_R   0.027657 0.488129 0.903853 0.000000
N41   N     N_R   0.004960 0.449956 0.913260 0.000000
C121  C     C_R   0.057994 0.404793 0.920810 0.000000
C122  C     C_R   0.069184 0.349479 0.930281 0.000000
C123  C     C_R   0.127987 0.310105 0.935897 0.000000
C124  C     C_R   0.175576 0.324766 0.931686 0.000000
C125  C     C_R   0.164947 0.379037 0.921575 0.000000
C126  C     C_R   0.106254 0.417676 0.916392 0.000000
N42   N     N_R   0.087918 0.470158 0.905647 0.000000
H131  H     H_    0.873685 0.530643 0.880345 0.000000
H132  H     H_    0.912815 0.537930 0.903861 0.000000
H133  H     H_    0.885775 0.597894 0.885855 0.000000
H134  H     H_    0.979358 0.467598 0.876888 0.000000
H135  H     H_    0.032804 0.539020 0.877889 0.000000
H136  H     H_    0.970513 0.581344 0.896510 0.000000
H137  H     H_    0.034618 0.335147 0.933316 0.000000
H138  H     H_    0.136996 0.266919 0.943487 0.000000
H139  H     H_    0.221230 0.293155 0.936021 0.000000
H140  H     H_    0.201798 0.390305 0.917662 0.000000
C127  C     C_3   0.270929 0.474673 0.215736 0.000000
N43   N     N_3   0.314185 0.409543 0.217077 0.000000
C128  C     C_3   0.285028 0.368534 0.217383 0.000000
C129  C     C_R   0.269044 0.364607 0.239643 0.000000
N44   N     N_R   0.315181 0.340396 0.254080 0.000000
C130  C     C_R   0.288581 0.378259 0.271553 0.000000
C131  C     C_R   0.313554 0.380712 0.290759 0.000000
C132  C     C_R   0.282344 0.432024 0.304327 0.000000
C133  C     C_R   0.228500 0.480857 0.298329 0.000000
C134  C     C_R   0.202732 0.476536 0.279499 0.000000
C135  C     C_R   0.231087 0.422523 0.267243 0.000000
N45   N     N_R   0.215220 0.411929 0.247788 0.000000
H141  H     H_    0.253828 0.483275 0.199610 0.000000
H142  H     H_    0.233503 0.488730 0.227884 0.000000
H143  H     H_    0.294912 0.503465 0.218545 0.000000
H144  H     H_    0.333101 0.407783 0.231736 0.000000
H145  H     H_    0.244082 0.387424 0.207918 0.000000
H146  H     H_    0.316653 0.321461 0.211106 0.000000
H147  H     H_    0.357713 0.346310 0.295099 0.000000
H148  H     H_    0.301991 0.435692 0.319151 0.000000
H149  H     H_    0.206549 0.522517 0.308427 0.000000
H150  H     H_    0.162733 0.515737 0.274244 0.000000
C136  C     C_3   0.565722 0.016514 0.235254 0.000000
N46   N     N_3   0.505984 0.050179 0.245937 0.000000
C137  C     C_3   0.464457 0.084948 0.229779 0.000000
C138  C     C_R   0.404467 0.130209 0.239907 0.000000
N47   N     N_R   0.366676 0.106917 0.248149 0.000000
C139  C     C_R   0.343628 0.142629 0.265964 0.000000
C140  C     C_R   0.324405 0.125672 0.284163 0.000000
C141  C     C_R   0.308632 0.164873 0.302085 0.000000
C142  C     C_R   0.320928 0.215666 0.302286 0.000000
C143  C     C_R   0.350207 0.225700 0.284748 0.000000
C144  C     C_R   0.359615 0.189634 0.266689 0.000000
N48   N     N_R   0.395885 0.186176 0.249848 0.000000
H151  H     H_    0.599139 0.987095 0.246801 0.000000
H152  H     H_    0.563195 0.988002 0.221726 0.000000
H153  H     H_    0.581194 0.049057 0.228373 0.000000
H154  H     H_    0.508104 0.082131 0.256849 0.000000
H155  H     H_    0.486941 0.107954 0.221063 0.000000
H156  H     H_    0.457318 0.052028 0.219082 0.000000
H157  H     H_    0.330818 0.078784 0.285238 0.000000
H158  H     H_    0.292856 0.152236 0.316621 0.000000
H159  H     H_    0.313529 0.243246 0.316839 0.000000
H160  H     H_    0.370826 0.256236 0.285752 0.000000
C145  C     C_3   0.068997 0.805060 0.989413 0.000000
N49   N     N_3   0.104911 0.809963 0.006614 0.000000
C146  C     C_3   0.166407 0.795335 0.998857 0.000000
C147  C     C_R   0.170949 0.853997 0.998071 0.000000
N50   N     N_R   0.146174 0.897507 0.014487 0.000000
C148  C     C_R   0.137104 0.950773 0.004731 0.000000
C149  C     C_R   0.104649 0.011676 0.011790 0.000000
C150  C     C_R   0.102556 0.058686 0.998964 0.000000
C151  C     C_R   0.132460 0.044392 0.979216 0.000000
C152  C     C_R   0.160217 0.983701 0.971576 0.000000
C153  C     C_R   0.161239 0.937922 0.984528 0.000000
N51   N     N_R   0.183960 0.876831 0.979658 0.000000
H161  H     H_    0.020251 0.827027 0.994760 0.000000
H162  H     H_    0.074369 0.828823 0.975313 0.000000
H163  H     H_    0.083276 0.755696 0.985171 0.000000
H164  H     H_    0.107387 0.777273 0.017620 0.000000
H165  H     H_    0.199371 0.766257 0.010367 0.000000
H166  H     H_    0.176557 0.771509 0.983085 0.000000
H167  H     H_    0.078263 0.024284 0.026173 0.000000
H168  H     H_    0.077521 0.106827 0.004403 0.000000
H169  H     H_    0.133268 0.080549 0.969532 0.000000
H170  H     H_    0.182953 0.972729 0.956210 0.000000
C154  C     C_3   0.182392 0.744038 0.102300 0.000000
N52   N     N_3   0.241514 0.716522 0.090748 0.000000
C155  C     C_3   0.239168 0.737808 0.068963 0.000000
C156  C     C_R   0.185954 0.741445 0.057927 0.000000
N53   N     N_R   0.137477 0.800022 0.055555 0.000000
C157  C     C_R   0.089984 0.787270 0.059723 0.000000
C158  C     C_R   0.032402 0.828313 0.067127 0.000000
C159  C     C_R   0.991522 0.805284 0.072344 0.000000
C160  C     C_R   0.009647 0.741643 0.071434 0.000000
C161  C     C_R   0.069702 0.700237 0.066413 0.000000
C162  C     C_R   0.109305 0.724025 0.060930 0.000000
N54   N     N_R   0.170619 0.692450 0.059216 0.000000
H171  H     H_    0.189503 0.747714 0.119511 0.000000
H172  H     H_    0.152188 0.790745 0.096802 0.000000
H173  H     H_    0.158918 0.714675 0.100521 0.000000
H174  H     H_    0.258614 0.668381 0.090155 0.000000
H175  H     H_    0.238229 0.783003 0.069202 0.000000
H176  H     H_    0.280259 0.707513 0.060074 0.000000
H177  H     H_    0.020623 0.876369 0.070627 0.000000
H178  H     H_    0.945727 0.836973 0.077965 0.000000
H179  H     H_    0.977596 0.724212 0.076015 0.000000
H180  H     H_    0.085056 0.650989 0.067599 0.000000
C163  C     C_3   0.294705 0.787688 0.026341 0.000000
N55   N     N_3   0.323399 0.827746 0.023507 0.000000
C164  C     C_3   0.279730 0.888515 0.031427 0.000000
C165  C     C_R   0.266934 0.885016 0.054233 0.000000
N56   N     N_R   0.210425 0.892956 0.061621 0.000000
C166  C     C_R   0.217666 0.886818 0.082650 0.000000
C167  C     C_R   0.176243 0.884769 0.097245 0.000000
C168  C     C_R   0.196685 0.862005 0.117053 0.000000
C169  C     C_R   0.257259 0.842087 0.121587 0.000000
C170  C     C_R   0.297154 0.849267 0.107094 0.000000
C171  C     C_R   0.276872 0.870368 0.087336 0.000000
N57   N     N_R   0.310660 0.867672 0.069514 0.000000
H181  H     H_    0.246678 0.812004 0.031940 0.000000
H182  H     H_    0.292586 0.768728 0.010595 0.000000
H183  H     H_    0.320189 0.753337 0.038139 0.000000
H184  H     H_    0.329721 0.829078 0.007143 0.000000
H185  H     H_    0.294929 0.923816 0.028744 0.000000
H186  H     H_    0.238330 0.904211 0.022661 0.000000
H187  H     H_    0.129939 0.897455 0.093018 0.000000
H188  H     H_    0.165625 0.858617 0.128909 0.000000
H189  H     H_    0.272632 0.823425 0.137045 0.000000
H190  H     H_    0.344193 0.832529 0.110439 0.000000
C172  C     C_3   0.438576 0.051943 0.706288 0.000000
N58   N     N_3   0.461953 0.048104 0.684715 0.000000
C173  C     C_3   0.478536 0.097887 0.680701 0.000000
C174  C     C_R   0.542097 0.069176 0.674194 0.000000
N59   N     N_R   0.586648 0.040175 0.688464 0.000000
C175  C     C_R   0.633615 0.001418 0.675196 0.000000
C176  C     C_R   0.679809 0.944070 0.679132 0.000000
C177  C     C_R   0.721574 0.910044 0.663220 0.000000
C178  C     C_R   0.713756 0.930919 0.642855 0.000000
C179  C     C_R   0.660852 0.982298 0.638216 0.000000
C180  C     C_R   0.619262 0.013063 0.654547 0.000000
N60   N     N_R   0.559891 0.051704 0.653134 0.000000
H191  H     H_    0.436729 0.007803 0.709679 0.000000
H192  H     H_    0.468106 0.059442 0.717360 0.000000
H193  H     H_    0.392736 0.090587 0.708118 0.000000
H194  H     H_    0.500550 0.005389 0.682391 0.000000
H195  H     H_    0.457808 0.123310 0.666592 0.000000
H196  H     H_    0.465599 0.131645 0.693906 0.000000
H197  H     H_    0.681276 0.921668 0.693389 0.000000
H198  H     H_    0.757860 0.864793 0.666434 0.000000
H199  H     H_    0.745309 0.902457 0.630406 0.000000
H200  H     H_    0.652543 0.995704 0.622083 0.000000
C181  C     C_3   0.409183 0.165369 0.792274 0.000000
N61   N     N_3   0.436416 0.175367 0.772770 0.000000
C182  C     C_3   0.422815 0.146395 0.754443 0.000000
C183  C     C_R   0.440025 0.169209 0.734816 0.000000
N62   N     N_R   0.402962 0.229509 0.729368 0.000000
C184  C     C_R   0.443326 0.247498 0.721011 0.000000
C185  C     C_R   0.432638 0.306292 0.715436 0.000000
C186  C     C_R   0.480885 0.313596 0.706309 0.000000
C187  C     C_R   0.538049 0.262721 0.703167 0.000000
C188  C     C_R   0.548423 0.204115 0.709759 0.000000
C189  C     C_R   0.500254 0.198398 0.719177 0.000000
N63   N     N_R   0.500389 0.146874 0.727373 0.000000
H201  H     H_    0.428699 0.178013 0.806156 0.000000
H202  H     H_    0.359455 0.195708 0.792850 0.000000
H203  H     H_    0.419093 0.115930 0.793302 0.000000
H204  H     H_    0.483241 0.155777 0.774333 0.000000
H205  H     H_    0.446216 0.095629 0.754750 0.000000
H206  H     H_    0.373747 0.160970 0.754818 0.000000
H207  H     H_    0.388134 0.345399 0.718146 0.000000
H208  H     H_    0.473958 0.359165 0.701437 0.000000
H209  H     H_    0.574860 0.269321 0.695784 0.000000
H210  H     H_    0.592933 0.164603 0.707800 0.000000
C190  C     C_3   0.663304 0.810898 0.727545 0.000000
N64   N     N_3   0.650661 0.871006 0.719078 0.000000
C191  C     C_3   0.588342 0.902368 0.712052 0.000000
C192  C     C_R   0.549335 0.944708 0.728539 0.000000
N65   N     N_R   0.558094 0.994015 0.735952 0.000000
C193  C     C_R   0.542970 0.996726 0.756688 0.000000
C194  C     C_R   0.551470 0.031850 0.772429 0.000000
C195  C     C_R   0.538182 0.023497 0.793318 0.000000
C196  C     C_R   0.519855 0.978208 0.797920 0.000000
C197  C     C_R   0.515625 0.940897 0.781725 0.000000
C198  C     C_R   0.524259 0.952809 0.761102 0.000000
N66   N     N_R   0.523345 0.921568 0.743062 0.000000
H211  H     H_    0.631031 0.817590 0.741058 0.000000
H212  H     H_    0.660400 0.779857 0.714946 0.000000
H213  H     H_    0.710272 0.788910 0.733376 0.000000
H214  H     H_    0.655235 0.897459 0.731473 0.000000
H215  H     H_    0.585236 0.929295 0.697737 0.000000
H216  H     H_    0.570614 0.868249 0.710481 0.000000
H217  H     H_    0.569710 0.063355 0.768662 0.000000
H218  H     H_    0.543855 0.050910 0.806085 0.000000
H219  H     H_    0.511052 0.970327 0.814287 0.000000
H220  H     H_    0.508349 0.902109 0.785176 0.000000
C199  C     C_3   0.028567 0.790609 0.807939 0.000000
N67   N     N_3   0.045186 0.755012 0.827338 0.000000
C200  C     C_3   0.001396 0.731242 0.832527 0.000000
C201  C     C_R   0.939913 0.782057 0.835649 0.000000
N68   N     N_R   0.913331 0.811336 0.855027 0.000000
C202  C     C_R   0.860033 0.856352 0.849284 0.000000
C203  C     C_R   0.817322 0.902785 0.862355 0.000000
C204  C     C_R   0.761364 0.940250 0.854336 0.000000
C205  C     C_R   0.748319 0.927456 0.834104 0.000000
C206  C     C_R   0.791898 0.879374 0.821538 0.000000
C207  C     C_R   0.850370 0.847565 0.828608 0.000000
N69   N     N_R   0.901471 0.800546 0.819038 0.000000
H221  H     H_    0.069719 0.790765 0.800289 0.000000
H222  H     H_    0.007478 0.771092 0.796750 0.000000
H223  H     H_    0.994960 0.838839 0.811324 0.000000
H224  H     H_    0.044121 0.785112 0.839598 0.000000
H225  H     H_    0.001064 0.700436 0.819558 0.000000
H226  H     H_    0.011922 0.704647 0.846992 0.000000
H227  H     H_    0.826800 0.909740 0.878421 0.000000
H228  H     H_    0.726941 0.977521 0.864167 0.000000
H229  H     H_    0.703794 0.955340 0.828015 0.000000
H230  H     H_    0.779793 0.870244 0.806305 0.000000
C208  C     C_3   0.852206 0.718206 0.835939 0.000000
N70   N     N_3   0.859822 0.734008 0.857641 0.000000
C209  C     C_3   0.799527 0.771060 0.866833 0.000000
C210  C     C_R   0.801820 0.773883 0.890175 0.000000
N71   N     N_R   0.761411 0.763232 0.903223 0.000000
C211  C     C_R   0.772117 0.780345 0.922527 0.000000
C212  C     C_R   0.744297 0.778571 0.941602 0.000000
C213  C     C_R   0.757954 0.799703 0.960093 0.000000
C214  C     C_R   0.800111 0.822171 0.959275 0.000000
C215  C     C_R   0.829551 0.821795 0.940195 0.000000
C216  C     C_R   0.816289 0.799705 0.921361 0.000000
N72   N     N_R   0.838893 0.794349 0.900695 0.000000
H231  H     H_    0.894209 0.704441 0.826031 0.000000
H232  H     H_    0.812919 0.757124 0.828976 0.000000
H233  H     H_    0.844367 0.677912 0.835835 0.000000
H234  H     H_    0.879926 0.693896 0.866417 0.000000
H235  H     H_    0.779193 0.818424 0.860813 0.000000
H236  H     H_    0.769472 0.751483 0.862043 0.000000
H237  H     H_    0.713484 0.759130 0.942356 0.000000
H238  H     H_    0.735898 0.798421 0.975112 0.000000
H239  H     H_    0.811214 0.839222 0.973725 0.000000
H240  H     H_    0.861833 0.839344 0.941400 0.000000
C217  C     C_3   0.171578 0.706309 0.878377 0.000000
N73   N     N_3   0.144496 0.667304 0.886011 0.000000
C218  C     C_3   0.090992 0.680357 0.873884 0.000000
C219  C     C_R   0.046188 0.668712 0.887097 0.000000
N74   N     N_R   0.063712 0.614797 0.898453 0.000000
C220  C     C_R   0.023870 0.634559 0.915383 0.000000
C221  C     C_R   0.020121 0.602937 0.933048 0.000000
C222  C     C_R   0.983083 0.636726 0.950259 0.000000
C223  C     C_R   0.952753 0.700979 0.949772 0.000000
C224  C     C_R   0.955681 0.730140 0.931276 0.000000
C225  C     C_R   0.984832 0.695300 0.913725 0.000000
N75   N     N_R   0.993429 0.717996 0.895324 0.000000
H241  H     H_    0.217032 0.690584 0.885216 0.000000
H242  H     H_    0.176987 0.702262 0.860717 0.000000
H243  H     H_    0.142419 0.755591 0.883534 0.000000
H244  H     H_    0.130424 0.680202 0.901857 0.000000
H245  H     H_    0.069279 0.730337 0.870177 0.000000
H246  H     H_    0.104520 0.650918 0.859089 0.000000
H247  H     H_    0.045302 0.553818 0.934236 0.000000
H248  H     H_    0.982297 0.613335 0.964736 0.000000
H249  H     H_    0.930499 0.728032 0.964151 0.000000
H250  H     H_    0.945427 0.778194 0.930935 0.000000
C226  C     C_3   0.421499 0.517539 0.128075 0.000000
N76   N     N_3   0.360523 0.538643 0.120383 0.000000
C227  C     C_3   0.361879 0.502501 0.101472 0.000000
C228  C     C_R   0.362594 0.537108 0.082193 0.000000
N77   N     N_R   0.313490 0.563221 0.068663 0.000000
C229  C     C_R   0.338130 0.581676 0.053195 0.000000
C230  C     C_R   0.307888 0.615845 0.036891 0.000000
C231  C     C_R   0.334195 0.642439 0.024412 0.000000
C232  C     C_R   0.389777 0.636906 0.029685 0.000000
C233  C     C_R   0.421016 0.598741 0.045456 0.000000
C234  C     C_R   0.394654 0.571331 0.057131 0.000000
N78   N     N_R   0.413602 0.544424 0.075707 0.000000
H251  H     H_    0.420584 0.550414 0.140832 0.000000
H252  H     H_    0.437102 0.470892 0.134932 0.000000
H253  H     H_    0.452806 0.516540 0.114960 0.000000
H254  H     H_    0.345366 0.584108 0.115713 0.000000
H255  H     H_    0.402167 0.456582 0.101121 0.000000
H256  H     H_    0.320853 0.494800 0.101618 0.000000
H257  H     H_    0.260775 0.634410 0.036969 0.000000
H258  H     H_    0.306344 0.674803 0.013142 0.000000
H259  H     H_    0.405479 0.668201 0.023553 0.000000
H260  H     H_    0.459067 0.600154 0.051418 0.000000
C235  C     C_3   0.402171 0.691725 0.123469 0.000000
N79   N     N_3   0.386288 0.664410 0.105362 0.000000
C236  C     C_3   0.382678 0.698822 0.086161 0.000000
C237  C     C_R   0.443342 0.690303 0.079226 0.000000
N80   N     N_R   0.456316 0.740697 0.077238 0.000000
C238  C     C_R   0.516791 0.713044 0.080482 0.000000
C239  C     C_R   0.553755 0.741298 0.083457 0.000000
C240  C     C_R   0.615197 0.703692 0.086027 0.000000
C241  C     C_R   0.638437 0.639225 0.085842 0.000000
C242  C     C_R   0.600177 0.611527 0.083920 0.000000
C243  C     C_R   0.538944 0.649673 0.082001 0.000000
N81   N     N_R   0.493652 0.632553 0.080730 0.000000
H261  H     H_    0.416050 0.658288 0.136572 0.000000
H262  H     H_    0.440036 0.702947 0.119467 0.000000
H263  H     H_    0.361721 0.734093 0.129182 0.000000
H264  H     H_    0.341996 0.672038 0.109016 0.000000
H265  H     H_    0.364311 0.681754 0.073674 0.000000
H266  H     H_    0.352125 0.747851 0.088768 0.000000
H267  H     H_    0.535707 0.791363 0.084063 0.000000
H268  H     H_    0.645429 0.724713 0.088096 0.000000
H269  H     H_    0.686660 0.610485 0.087601 0.000000
H270  H     H_    0.618113 0.561438 0.083970 0.000000
C244  C     C_3   0.256438 0.528233 0.500732 0.000000
N82   N     N_3   0.266881 0.478680 0.514952 0.000000
C245  C     C_3   0.232038 0.448812 0.507611 0.000000
C246  C     C_R   0.168000 0.486984 0.514247 0.000000
N83   N     N_R   0.146912 0.489411 0.535236 0.000000
C247  C     C_R   0.088620 0.501754 0.532372 0.000000
C248  C     C_R   0.045652 0.507643 0.547957 0.000000
C249  C     C_R   0.990678 0.511797 0.541744 0.000000
C250  C     C_R   0.979858 0.509743 0.520279 0.000000
C251  C     C_R   0.022463 0.506714 0.504800 0.000000
C252  C     C_R   0.076241 0.506032 0.511112 0.000000
N84   N     N_R   0.124202 0.504252 0.499036 0.000000
H271  H     H_    0.253387 0.566396 0.510723 0.000000
H272  H     H_    0.295923 0.514859 0.489779 0.000000
H273  H     H_    0.213844 0.543723 0.492120 0.000000
H274  H     H_    0.246144 0.501165 0.529278 0.000000
H275  H     H_    0.236565 0.442601 0.490308 0.000000
H276  H     H_    0.248880 0.401871 0.513809 0.000000
H277  H     H_    0.055740 0.506050 0.564627 0.000000
H278  H     H_    0.956654 0.515007 0.553660 0.000000
H279  H     H_    0.937143 0.511751 0.515545 0.000000
H280  H     H_    0.011529 0.506977 0.488356 0.000000
C253  C     C_3   0.226091 0.328450 0.161811 0.000000
N85   N     N_3   0.161873 0.349984 0.164212 0.000000
C254  C     C_3   0.139463 0.389651 0.182691 0.000000
C255  C     C_R   0.149856 0.445670 0.182082 0.000000
N86   N     N_R   0.152963 0.474853 0.163369 0.000000
C256  C     C_R   0.141733 0.531744 0.171133 0.000000
C257  C     C_R   0.121169 0.586044 0.160326 0.000000
C258  C     C_R   0.111747 0.639778 0.171634 0.000000
C259  C     C_R   0.125793 0.637382 0.192969 0.000000
C260  C     C_R   0.140297 0.583472 0.203986 0.000000
C261  C     C_R   0.140904 0.533312 0.192943 0.000000
N87   N     N_R   0.142944 0.480344 0.200724 0.000000
H281  H     H_    0.245115 0.294247 0.148386 0.000000
H282  H     H_    0.230316 0.367660 0.156579 0.000000
H283  H     H_    0.249104 0.312973 0.177033 0.000000
H284  H     H_    0.150927 0.314086 0.166949 0.000000
H285  H     H_    0.090524 0.405850 0.182057 0.000000
H286  H     H_    0.159303 0.362534 0.196961 0.000000
H287  H     H_    0.110769 0.587092 0.143722 0.000000
H288  H     H_    0.094995 0.683615 0.163674 0.000000
H289  H     H_    0.120987 0.679020 0.201387 0.000000
H290  H     H_    0.146275 0.582730 0.220991 0.000000
C262  C     C_3   0.694092 0.610528 0.952607 0.000000
N88   N     N_3   0.653606 0.676107 0.953607 0.000000
C263  C     C_3   0.615449 0.694344 0.935472 0.000000
C264  C     C_R   0.591145 0.760057 0.934547 0.000000
N89   N     N_R   0.552558 0.798727 0.950469 0.000000
C265  C     C_R   0.564425 0.848186 0.949408 0.000000
C266  C     C_R   0.553637 0.892314 0.965282 0.000000
C267  C     C_R   0.574046 0.936507 0.962210 0.000000
C268  C     C_R   0.608842 0.933270 0.944104 0.000000
C269  C     C_R   0.626326 0.883955 0.929550 0.000000
C270  C     C_R   0.604115 0.840814 0.932468 0.000000
N90   N     N_R   0.623576 0.783341 0.922945 0.000000
H291  H     H_    0.703433 0.594585 0.968695 0.000000
H292  H     H_    0.674502 0.584054 0.943855 0.000000
H293  H     H_    0.738733 0.603407 0.946915 0.000000
H294  H     H_    0.680305 0.699202 0.953947 0.000000
H295  H     H_    0.642730 0.679761 0.921063 0.000000
H296  H     H_    0.578614 0.681046 0.936220 0.000000
H297  H     H_    0.535148 0.889424 0.980644 0.000000
H298  H     H_    0.565485 0.971841 0.974496 0.000000
H299  H     H_    0.626753 0.966596 0.942233 0.000000
H300  H     H_    0.660302 0.878772 0.917557 0.000000
C271  C     C_3   0.227619 0.625562 0.141031 0.000000
N91   N     N_3   0.233519 0.570250 0.129158 0.000000
C272  C     C_3   0.195102 0.590390 0.111201 0.000000
C273  C     C_R   0.192893 0.538486 0.098959 0.000000
N92   N     N_R   0.187716 0.547705 0.077472 0.000000
C274  C     C_R   0.148911 0.525443 0.071994 0.000000
C275  C     C_R   0.123224 0.529495 0.052559 0.000000
C276  C     C_R   0.077744 0.511339 0.050992 0.000000
C277  C     C_R   0.058156 0.491295 0.068847 0.000000
C278  C     C_R   0.085852 0.486115 0.088084 0.000000
C279  C     C_R   0.132504 0.502288 0.089322 0.000000
N93   N     N_R   0.162344 0.506042 0.106750 0.000000
H301  H     H_    0.241542 0.613829 0.157638 0.000000
H302  H     H_    0.256864 0.644060 0.133383 0.000000
H303  H     H_    0.180308 0.662995 0.141334 0.000000
H304  H     H_    0.218099 0.544675 0.138458 0.000000
H305  H     H_    0.147856 0.624186 0.116113 0.000000
H306  H     H_    0.214256 0.612218 0.100055 0.000000
H307  H     H_    0.136048 0.548366 0.039036 0.000000
H308  H     H_    0.055521 0.515494 0.036073 0.000000
H309  H     H_    0.019441 0.481725 0.067920 0.000000
H310  H     H_    0.066760 0.475408 0.101796 0.000000
C280  C     C_3   0.944073 0.666847 0.573613 0.000000
N94   N     N_3   0.005160 0.643186 0.581495 0.000000
C281  C     C_3   0.045670 0.646112 0.564636 0.000000
C282  C     C_R   0.104950 0.633165 0.573925 0.000000
N95   N     N_R   0.105010 0.681841 0.586080 0.000000
C283  C     C_R   0.128346 0.653172 0.604187 0.000000
C284  C     C_R   0.127277 0.681170 0.623539 0.000000
C285  C     C_R   0.151211 0.643217 0.640606 0.000000
C286  C     C_R   0.172405 0.579225 0.638223 0.000000
C287  C     C_R   0.169780 0.552472 0.618810 0.000000
C288  C     C_R   0.149538 0.590069 0.601722 0.000000
N96   N     N_R   0.140236 0.574500 0.581834 0.000000
H311  H     H_    0.915034 0.656597 0.585159 0.000000
H312  H     H_    0.924360 0.718049 0.571990 0.000000
H313  H     H_    0.945337 0.644053 0.557992 0.000000
H314  H     H_    0.019711 0.596691 0.585260 0.000000
H315  H     H_    0.051709 0.612460 0.551724 0.000000
H316  H     H_    0.025294 0.693888 0.558547 0.000000
H317  H     H_    0.108876 0.731170 0.625373 0.000000
H318  H     H_    0.152133 0.663602 0.655991 0.000000
H319  H     H_    0.189267 0.550357 0.651851 0.000000
H320  H     H_    0.178172 0.504939 0.617708 0.000000
C289  C     C_3   0.303876 0.641233 0.633505 0.000000
N97   N     N_3   0.304104 0.665210 0.612342 0.000000
C290  C     C_3   0.242666 0.689855 0.605069 0.000000
C291  C     C_R   0.233316 0.731364 0.586778 0.000000
N98   N     N_R   0.279468 0.738506 0.576027 0.000000
C292  C     C_R   0.247638 0.790544 0.565307 0.000000
C293  C     C_R   0.269738 0.827184 0.556000 0.000000
C294  C     C_R   0.229987 0.882984 0.547695 0.000000
C295  C     C_R   0.168057 0.903166 0.550400 0.000000
C296  C     C_R   0.146512 0.866246 0.560421 0.000000
C297  C     C_R   0.187235 0.809503 0.567573 0.000000
N99   N     N_R   0.175781 0.771573 0.580418 0.000000
H321  H     H_    0.349914 0.623048 0.639927 0.000000
H322  H     H_    0.272062 0.678744 0.644682 0.000000
H323  H     H_    0.290395 0.603071 0.632539 0.000000
H324  H     H_    0.329434 0.626765 0.602293 0.000000
H325  H     H_    0.233772 0.650530 0.600590 0.000000
H326  H     H_    0.210660 0.718572 0.618071 0.000000
H327  H     H_    0.316226 0.814752 0.557062 0.000000
H328  H     H_    0.247028 0.912591 0.540292 0.000000
H329  H     H_    0.136233 0.949170 0.545777 0.000000
H330  H     H_    0.099326 0.885501 0.564587 0.000000
C298  C     C_3   0.278833 0.126736 0.055691 0.000000
N100  N     N_3   0.252166 0.125622 0.076462 0.000000
C299  C     C_3   0.293400 0.127348 0.092238 0.000000
C300  C     C_R   0.266599 0.129935 0.113918 0.000000
N101  N     N_R   0.207241 0.138830 0.113999 0.000000
C301  C     C_R   0.213872 0.084104 0.120763 0.000000
C302  C     C_R   0.181643 0.053952 0.114596 0.000000
C303  C     C_R   0.193968 0.998929 0.124224 0.000000
C304  C     C_R   0.245879 0.970267 0.135770 0.000000
C305  C     C_R   0.287592 0.993453 0.135412 0.000000
C306  C     C_R   0.268948 0.051820 0.128765 0.000000
N102  N     N_R   0.302854 0.081739 0.126652 0.000000
H331  H     H_    0.326585 0.089895 0.054594 0.000000
H332  H     H_    0.251865 0.118914 0.043197 0.000000
H333  H     H_    0.278825 0.172084 0.053343 0.000000
H334  H     H_    0.252495 0.082097 0.077177 0.000000
H335  H     H_    0.336291 0.083451 0.090541 0.000000
H336  H     H_    0.301462 0.167881 0.089618 0.000000
H337  H     H_    0.145628 0.074799 0.103709 0.000000
H338  H     H_    0.162207 0.979899 0.123149 0.000000
H339  H     H_    0.254683 0.929770 0.144877 0.000000
H340  H     H_    0.329908 0.971516 0.142844 0.000000
C307  C     C_3   0.221677 0.300255 0.062462 0.000000
N103  N     N_3   0.191674 0.336324 0.081763 0.000000
C308  C     C_3   0.208751 0.295164 0.099711 0.000000
C309  C     C_R   0.160172 0.322863 0.116264 0.000000
N104  N     N_R   0.141049 0.383065 0.124109 0.000000
C310  C     C_R   0.082978 0.398787 0.130797 0.000000
C311  C     C_R   0.040020 0.455125 0.139271 0.000000
C312  C     C_R   0.981308 0.462357 0.142693 0.000000
C313  C     C_R   0.967912 0.412604 0.139259 0.000000
C314  C     C_R   0.013173 0.354647 0.132614 0.000000
C315  C     C_R   0.069898 0.349813 0.127936 0.000000
N105  N     N_R   0.118580 0.299833 0.119591 0.000000
H341  H     H_    0.218249 0.332497 0.049549 0.000000
H342  H     H_    0.270356 0.269785 0.065270 0.000000
H343  H     H_    0.198639 0.272019 0.057571 0.000000
H344  H     H_    0.144954 0.352674 0.080055 0.000000
H345  H     H_    0.211071 0.250048 0.094707 0.000000
H346  H     H_    0.251446 0.290662 0.106261 0.000000
H347  H     H_    0.050380 0.493857 0.141684 0.000000
H348  H     H_    0.945456 0.507155 0.148102 0.000000
H349  H     H_    0.921824 0.419086 0.142021 0.000000
H350  H     H_    0.003208 0.315733 0.130038 0.000000
C316  C     C_3   0.581730 0.868539 0.237995 0.000000
N106  N     N_3   0.529759 0.870411 0.250071 0.000000
C317  C     C_3   0.487020 0.934627 0.255745 0.000000
C318  C     C_R   0.430798 0.936404 0.265963 0.000000
N107  N     N_R   0.374301 0.968811 0.257492 0.000000
C319  C     C_R   0.340383 0.947633 0.268437 0.000000
C320  C     C_R   0.282729 0.956790 0.264379 0.000000
C321  C     C_R   0.252431 0.939077 0.279627 0.000000
C322  C     C_R   0.279717 0.916284 0.298741 0.000000
C323  C     C_R   0.339766 0.903745 0.301463 0.000000
C324  C     C_R   0.371687 0.912313 0.284646 0.000000
N108  N     N_R   0.430991 0.900119 0.282878 0.000000
H351  H     H_    0.611361 0.819948 0.232402 0.000000
H352  H     H_    0.566591 0.896562 0.223656 0.000000
H353  H     H_    0.607522 0.885435 0.248203 0.000000
H354  H     H_    0.546089 0.847154 0.264068 0.000000
H355  H     H_    0.508262 0.955622 0.266054 0.000000
H356  H     H_    0.474083 0.962536 0.241341 0.000000
H357  H     H_    0.262256 0.977194 0.249803 0.000000
H358  H     H_    0.206118 0.947162 0.277308 0.000000
H359  H     H_    0.253932 0.908571 0.311605 0.000000
H360  H     H_    0.358300 0.893775 0.316930 0.000000
C325  C     C_3   0.266726 0.805617 0.635020 0.000000
N109  N     N_3   0.306775 0.787981 0.615977 0.000000
C326  C     C_3   0.367682 0.764258 0.623440 0.000000
C327  C     C_R   0.410955 0.763793 0.606399 0.000000
N110  N     N_R   0.407622 0.750056 0.585061 0.000000
C328  C     C_R   0.439365 0.776982 0.575373 0.000000
C329  C     C_R   0.428366 0.806698 0.555991 0.000000
C330  C     C_R   0.461347 0.837113 0.549506 0.000000
C331  C     C_R   0.505137 0.837588 0.562184 0.000000
C332  C     C_R   0.506374 0.819732 0.582861 0.000000
C333  C     C_R   0.469298 0.793974 0.589914 0.000000
N111  N     N_R   0.447955 0.792084 0.610000 0.000000
H361  H     H_    0.225067 0.801262 0.631702 0.000000
H362  H     H_    0.289385 0.774637 0.648279 0.000000
H363  H     H_    0.254215 0.854413 0.639858 0.000000
H364  H     H_    0.298683 0.828480 0.608024 0.000000
H365  H     H_    0.366776 0.796982 0.636163 0.000000
H366  H     H_    0.381893 0.717270 0.629651 0.000000
H367  H     H_    0.394971 0.808790 0.545334 0.000000
H368  H     H_    0.454198 0.858595 0.534161 0.000000
H369  H     H_    0.534113 0.857916 0.556750 0.000000
H370  H     H_    0.538216 0.824873 0.592068 0.000000
C334  C     C_3   0.856544 0.084285 0.994648 0.000000
N112  N     N_3   0.846373 0.143339 0.004421 0.000000
C335  C     C_3   0.905087 0.142485 0.007089 0.000000
C336  C     C_R   0.894721 0.203456 0.016256 0.000000
N113  N     N_R   0.875160 0.255720 0.003578 0.000000
C337  C     C_R   0.873750 0.299018 0.018345 0.000000
C338  C     C_R   0.862235 0.360137 0.015916 0.000000
C339  C     C_R   0.866197 0.394896 0.032955 0.000000
C340  C     C_R   0.884093 0.368225 0.052372 0.000000
C341  C     C_R   0.898413 0.306441 0.054656 0.000000
C342  C     C_R   0.891469 0.273516 0.037851 0.000000
N114  N     N_R   0.904333 0.213210 0.037712 0.000000
H371  H     H_    0.812962 0.081141 0.994934 0.000000
H372  H     H_    0.874991 0.080285 0.978155 0.000000
H373  H     H_    0.890697 0.045354 0.003164 0.000000
H374  H     H_    0.825623 0.147480 0.019498 0.000000
H375  H     H_    0.933224 0.105387 0.017744 0.000000
H376  H     H_    0.929728 0.134747 0.991389 0.000000
H377  H     H_    0.855921 0.380599 0.001026 0.000000
H378  H     H_    0.857777 0.442568 0.030768 0.000000
H379  H     H_    0.888797 0.395164 0.065497 0.000000
H380  H     H_    0.914722 0.284534 0.069410 0.000000
C343  C     C_3   0.056513 0.190896 0.952906 0.000000
N115  N     N_3   0.013239 0.165824 0.956461 0.000000
C344  C     C_3   0.997719 0.151362 0.935617 0.000000
C345  C     C_R   0.939121 0.146933 0.936566 0.000000
N116  N     N_R   0.929690 0.106199 0.922883 0.000000
C346  C     C_R   0.870837 0.121316 0.927699 0.000000
C347  C     C_R   0.833492 0.102299 0.917298 0.000000
C348  C     C_R   0.777077 0.116675 0.926873 0.000000
C349  C     C_R   0.760515 0.147308 0.946752 0.000000
C350  C     C_R   0.796389 0.171481 0.955825 0.000000
C351  C     C_R   0.849493 0.161484 0.944958 0.000000
N117  N     N_R   0.888713 0.184017 0.949964 0.000000
H381  H     H_    0.074209 0.196723 0.968401 0.000000
H382  H     H_    0.094979 0.158559 0.942240 0.000000
H383  H     H_    0.033898 0.236888 0.945473 0.000000
H384  H     H_    0.974526 0.200830 0.964083 0.000000
H385  H     H_    0.994944 0.186836 0.924155 0.000000
H386  H     H_    0.034236 0.105889 0.929754 0.000000
H387  H     H_    0.849019 0.073476 0.902939 0.000000
H388  H     H_    0.747474 0.100428 0.919493 0.000000
H389  H     H_    0.717597 0.155745 0.954540 0.000000
H390  H     H_    0.781668 0.199428 0.970451 0.000000
C352  C     C_3   0.820941 0.284788 0.898785 0.000000
N118  N     N_3   0.823888 0.316654 0.918193 0.000000
C353  C     C_3   0.880731 0.319719 0.916606 0.000000
C354  C     C_R   0.891666 0.346180 0.936524 0.000000
N119  N     N_R   0.911944 0.390896 0.935931 0.000000
C355  C     C_R   0.935978 0.386669 0.955162 0.000000
C356  C     C_R   0.963399 0.420729 0.963245 0.000000
C357  C     C_R   0.993125 0.402004 0.982137 0.000000
C358  C     C_R   0.995898 0.349597 0.992072 0.000000
C359  C     C_R   0.965536 0.317846 0.984055 0.000000
C360  C     C_R   0.931956 0.340378 0.966290 0.000000
N120  N     N_R   0.898447 0.317882 0.955826 0.000000
H391  H     H_    0.772971 0.304000 0.894008 0.000000
H392  H     H_    0.849099 0.290774 0.885830 0.000000
H393  H     H_    0.839126 0.234343 0.901601 0.000000
H394  H     H_    0.828954 0.287085 0.930627 0.000000
H395  H     H_    0.918274 0.272654 0.913248 0.000000
H396  H     H_    0.879006 0.349741 0.903540 0.000000
H397  H     H_    0.964115 0.459126 0.954791 0.000000
H398  H     H_    0.016598 0.426642 0.988692 0.000000
H399  H     H_    0.021818 0.333561 0.006236 0.000000
H400  H     H_    0.969303 0.276174 0.991439 0.000000
C361  C     C_3   0.792449 0.484259 0.972645 0.000000
N121  N     N_3   0.742497 0.468257 0.969822 0.000000
C362  C     C_3   0.752064 0.414893 0.982493 0.000000
C363  C     C_R   0.719729 0.382621 0.973726 0.000000
N122  N     N_R   0.657319 0.408554 0.970154 0.000000
C364  C     C_R   0.655732 0.364834 0.956878 0.000000
C365  C     C_R   0.605118 0.361371 0.949610 0.000000
C366  C     C_R   0.612327 0.318792 0.933535 0.000000
C367  C     C_R   0.669802 0.281070 0.924978 0.000000
C368  C     C_R   0.720282 0.280969 0.934053 0.000000
C369  C     C_R   0.713062 0.319134 0.951688 0.000000
N123  N     N_R   0.755474 0.325475 0.963761 0.000000
H401  H     H_    0.801455 0.503077 0.957755 0.000000
H402  H     H_    0.781902 0.518346 0.986025 0.000000
H403  H     H_    0.834421 0.444066 0.976233 0.000000
H404  H     H_    0.744437 0.453986 0.953961 0.000000
H405  H     H_    0.798556 0.378822 0.979117 0.000000
H406  H     H_    0.742824 0.425716 0.999809 0.000000
H407  H     H_    0.560615 0.389753 0.956457 0.000000
H408  H     H_    0.572995 0.316444 0.927207 0.000000
H409  H     H_    0.675652 0.249692 0.911605 0.000000
H410  H     H_    0.763476 0.250603 0.926908 0.000000
C370  C     C_3   0.473698 0.355203 0.341342 0.000000
N124  N     N_3   0.526824 0.294905 0.342798 0.000000
C371  C     C_3   0.578907 0.304542 0.348441 0.000000
C372  C     C_R   0.634147 0.244177 0.349762 0.000000
N125  N     N_R   0.662901 0.224827 0.369064 0.000000
C373  C     C_R   0.710929 0.170813 0.363052 0.000000
C374  C     C_R   0.757841 0.133710 0.375469 0.000000
C375  C     C_R   0.808930 0.086296 0.365734 0.000000
C376  C     C_R   0.812166 0.076387 0.343954 0.000000
C377  C     C_R   0.763469 0.111818 0.331823 0.000000
C378  C     C_R   0.712156 0.159205 0.341580 0.000000
N126  N     N_R   0.663766 0.204711 0.332076 0.000000
H411  H     H_    0.438771 0.349667 0.332003 0.000000
H412  H     H_    0.454336 0.374688 0.357395 0.000000
H413  H     H_    0.486137 0.389020 0.333741 0.000000
H414  H     H_    0.536111 0.272417 0.327942 0.000000
H415  H     H_    0.587650 0.334403 0.337019 0.000000
H416  H     H_    0.569842 0.326244 0.364484 0.000000
H417  H     H_    0.756725 0.142190 0.392241 0.000000
H418  H     H_    0.847937 0.059241 0.374914 0.000000
H419  H     H_    0.854279 0.043006 0.336213 0.000000
H420  H     H_    0.770698 0.107960 0.314940 0.000000
C379  C     C_3   0.655850 0.093796 0.244589 0.000000
N127  N     N_3   0.600372 0.112214 0.257749 0.000000
C380  C     C_3   0.556980 0.173355 0.251556 0.000000
C381  C     C_R   0.532152 0.218837 0.269985 0.000000
N128  N     N_R   0.474542 0.267290 0.267711 0.000000
C382  C     C_R   0.478413 0.314655 0.278385 0.000000
C383  C     C_R   0.439557 0.377349 0.277916 0.000000
C384  C     C_R   0.458076 0.419148 0.286377 0.000000
C385  C     C_R   0.515384 0.398263 0.294585 0.000000
C386  C     C_R   0.553961 0.335190 0.295163 0.000000
C387  C     C_R   0.533992 0.294437 0.287322 0.000000
N129  N     N_R   0.568743 0.233066 0.283637 0.000000
H421  H     H_    0.688253 0.045020 0.247862 0.000000
H422  H     H_    0.645681 0.095754 0.227438 0.000000
H423  H     H_    0.676509 0.125276 0.248023 0.000000
H424  H     H_    0.608790 0.115627 0.273623 0.000000
H425  H     H_    0.577736 0.191934 0.239517 0.000000
H426  H     H_    0.518495 0.170015 0.243994 0.000000
H427  H     H_    0.396965 0.394631 0.270144 0.000000
H428  H     H_    0.428449 0.468620 0.285891 0.000000
H429  H     H_    0.529702 0.431426 0.300770 0.000000
H430  H     H_    0.599759 0.318534 0.300575 0.000000
C388  C     C_3   0.534734 0.151480 0.335565 0.000000
N130  N     N_3   0.579067 0.134761 0.317791 0.000000
C389  C     C_3   0.634377 0.081072 0.323495 0.000000
C390  C     C_R   0.680422 0.058568 0.305616 0.000000
N131  N     N_R   0.718025 0.995907 0.301367 0.000000
C391  C     C_R   0.761032 0.997987 0.287881 0.000000
C392  C     C_R   0.817443 0.950637 0.281958 0.000000
C393  C     C_R   0.856104 0.963980 0.268975 0.000000
C394  C     C_R   0.839140 0.024320 0.262705 0.000000
C395  C     C_R   0.784432 0.072352 0.270100 0.000000
C396  C     C_R   0.746502 0.058127 0.282977 0.000000
N132  N     N_R   0.695519 0.098034 0.294066 0.000000
H431  H     H_    0.493959 0.195184 0.332057 0.000000
H432  H     H_    0.520416 0.114457 0.337717 0.000000
H433  H     H_    0.554464 0.158730 0.350400 0.000000
H434  H     H_    0.589578 0.171629 0.316479 0.000000
H435  H     H_    0.653097 0.091226 0.338006 0.000000
H436  H     H_    0.624281 0.042852 0.326290 0.000000
H437  H     H_    0.834019 0.905200 0.288326 0.000000
H438  H     H_    0.900528 0.927290 0.264112 0.000000
H439  H     H_    0.869965 0.034221 0.252703 0.000000
H440  H     H_    0.772545 0.119108 0.265615 0.000000
C397  C     C_3   0.568256 0.344301 0.235137 0.000000
N133  N     N_3   0.624106 0.330249 0.245502 0.000000
C398  C     C_3   0.659757 0.263574 0.245623 0.000000
C399  C     C_R   0.709287 0.250830 0.259928 0.000000
N134  N     N_R   0.756664 0.264427 0.254517 0.000000
C400  C     C_R   0.791606 0.244067 0.271618 0.000000
C401  C     C_R   0.848070 0.240414 0.274732 0.000000
C402  C     C_R   0.878165 0.212410 0.292776 0.000000
C403  C     C_R   0.847441 0.198670 0.308968 0.000000
C404  C     C_R   0.788011 0.210000 0.306491 0.000000
C405  C     C_R   0.763918 0.224907 0.286865 0.000000
N135  N     N_R   0.711460 0.227223 0.280079 0.000000
H441  H     H_    0.537774 0.394581 0.238041 0.000000
H442  H     H_    0.577753 0.333481 0.217788 0.000000
H443  H     H_    0.546423 0.316837 0.241893 0.000000
H444  H     H_    0.612754 0.346371 0.261254 0.000000
H445  H     H_    0.632540 0.240990 0.251666 0.000000
H446  H     H_    0.679485 0.245351 0.229459 0.000000
H447  H     H_    0.869563 0.257855 0.263715 0.000000
H448  H     H_    0.923662 0.206824 0.295139 0.000000
H449  H     H_    0.868414 0.183386 0.324078 0.000000
H450  H     H_    0.760564 0.211537 0.319984 0.000000
C406  C     C_3   0.791870 0.921106 0.594249 0.000000
N136  N     N_3   0.776505 0.984691 0.601386 0.000000
C407  C     C_3   0.824545 0.998349 0.593060 0.000000
C408  C     C_R   0.813295 0.062824 0.598780 0.000000
N137  N     N_R   0.774271 0.113523 0.587239 0.000000
C409  C     C_R   0.792756 0.156536 0.592334 0.000000
C410  C     C_R   0.773948 0.214013 0.583758 0.000000
C411  C     C_R   0.797816 0.252092 0.591600 0.000000
C412  C     C_R   0.838056 0.232805 0.608111 0.000000
C413  C     C_R   0.857716 0.173826 0.616128 0.000000
C414  C     C_R   0.836874 0.134878 0.607096 0.000000
N138  N     N_R   0.852485 0.074605 0.611614 0.000000
H451  H     H_    0.749926 0.915151 0.593546 0.000000
H452  H     H_    0.815572 0.909716 0.578339 0.000000
H453  H     H_    0.822706 0.887655 0.605305 0.000000
H454  H     H_    0.777592 0.985751 0.617997 0.000000
H455  H     H_    0.868280 0.965362 0.599283 0.000000
H456  H     H_    0.827610 0.993764 0.575455 0.000000
H457  H     H_    0.742421 0.228524 0.571016 0.000000
H458  H     H_    0.784410 0.297499 0.585054 0.000000
H459  H     H_    0.854810 0.263822 0.614578 0.000000
H460  H     H_    0.888068 0.159490 0.629193 0.000000
C415  C     C_3   0.017552 0.037289 0.703356 0.000000
N139  N     N_3   0.031622 0.063387 0.684451 0.000000
C416  C     C_3   0.030875 0.025165 0.666634 0.000000
C417  C     C_R   0.032795 0.051915 0.646430 0.000000
N140  N     N_R   0.989858 0.057389 0.631977 0.000000
C418  C     C_R   0.005659 0.083288 0.615502 0.000000
C419  C     C_R   0.983642 0.092481 0.595314 0.000000
C420  C     C_R   0.004710 0.122604 0.581153 0.000000
C421  C     C_R   0.047377 0.142079 0.587264 0.000000
C422  C     C_R   0.072388 0.128155 0.607125 0.000000
C423  C     C_R   0.053314 0.095180 0.620560 0.000000
N141  N     N_R   0.075364 0.071354 0.639634 0.000000
H461  H     H_    0.022547 0.059398 0.717723 0.000000
H462  H     H_    0.969598 0.045463 0.703567 0.000000
H463  H     H_    0.050328 0.987578 0.704490 0.000000
H464  H     H_    0.995290 0.107410 0.682616 0.000000
H465  H     H_    0.066288 0.976661 0.666884 0.000000
H466  H     H_    0.986017 0.026899 0.666675 0.000000
H467  H     H_    0.951425 0.076330 0.590449 0.000000
H468  H     H_    0.987398 0.131545 0.565278 0.000000
H469  H     H_    0.062712 0.166457 0.576154 0.000000
H470  H     H_    0.107167 0.141161 0.611494 0.000000
C424  C     C_3   0.157863 0.913238 0.607948 0.000000
N142  N     N_3   0.123102 0.878450 0.607518 0.000000
C425  C     C_3   0.061045 0.925041 0.606646 0.000000
C426  C     C_R   0.020349 0.897466 0.610954 0.000000
N143  N     N_R   0.031958 0.837941 0.604410 0.000000
C427  C     C_R   0.984940 0.832385 0.614039 0.000000
C428  C     C_R   0.973291 0.781745 0.613685 0.000000
C429  C     C_R   0.924616 0.785019 0.626183 0.000000
C430  C     C_R   0.887376 0.839125 0.637931 0.000000
C431  C     C_R   0.896381 0.891831 0.636543 0.000000
C432  C     C_R   0.946750 0.886481 0.624919 0.000000
N144  N     N_R   0.967038 0.929690 0.622780 0.000000
H471  H     H_    0.203696 0.884471 0.600809 0.000000
H472  H     H_    0.135587 0.954728 0.598108 0.000000
H473  H     H_    0.160206 0.927841 0.624604 0.000000
H474  H     H_    0.127239 0.857415 0.622198 0.000000
H475  H     H_    0.054141 0.957056 0.619930 0.000000
H476  H     H_    0.050608 0.949469 0.591379 0.000000
H477  H     H_    0.001832 0.739938 0.604623 0.000000
H478  H     H_    0.915538 0.745073 0.626834 0.000000
H479  H     H_    0.849979 0.840559 0.647691 0.000000
H480  H     H_    0.866544 0.934538 0.645185 0.000000
C433  C     C_3   0.046177 0.847497 0.668672 0.000000
N145  N     N_3   0.981421 0.890223 0.669351 0.000000
C434  C     C_3   0.968745 0.936651 0.686328 0.000000
C435  C     C_R   0.907095 0.991552 0.684567 0.000000
N146  N     N_R   0.889269 0.024843 0.665763 0.000000
C436  C     C_R   0.834256 0.070725 0.671939 0.000000
C437  C     C_R   0.796777 0.119990 0.660231 0.000000
C438  C     C_R   0.741474 0.162963 0.668950 0.000000
C439  C     C_R   0.724478 0.156202 0.689432 0.000000
C440  C     C_R   0.763328 0.107606 0.701309 0.000000
C441  C     C_R   0.819184 0.065349 0.692635 0.000000
N147  N     N_R   0.864626 0.016338 0.701902 0.000000
H481  H     H_    0.054295 0.804937 0.659205 0.000000
H482  H     H_    0.072194 0.869719 0.660912 0.000000
H483  H     H_    0.061981 0.834236 0.685045 0.000000
H484  H     H_    0.957428 0.864811 0.672152 0.000000
H485  H     H_    0.974953 0.918453 0.702408 0.000000
H486  H     H_    0.005264 0.948935 0.685104 0.000000
H487  H     H_    0.810351 0.127085 0.644948 0.000000
H488  H     H_    0.711814 0.202083 0.659825 0.000000
H489  H     H_    0.681185 0.189791 0.696421 0.000000
H490  H     H_    0.748301 0.105316 0.716959 0.000000
C442  C     C_3   0.770890 0.415451 0.101499 0.000000
N148  N     N_3   0.754490 0.364458 0.100856 0.000000
C443  C     C_3   0.805899 0.310624 0.091326 0.000000
C444  C     C_R   0.805845 0.252094 0.098213 0.000000
N149  N     N_R   0.847722 0.193724 0.089676 0.000000
C445  C     C_R   0.831671 0.155465 0.101237 0.000000
C446  C     C_R   0.854650 0.091262 0.100082 0.000000
C447  C     C_R   0.833057 0.062466 0.114593 0.000000
C448  C     C_R   0.789754 0.097094 0.130301 0.000000
C449  C     C_R   0.766473 0.161044 0.131130 0.000000
C450  C     C_R   0.786446 0.189019 0.116143 0.000000
N150  N     N_R   0.766308 0.250681 0.114313 0.000000
H491  H     H_    0.729305 0.460205 0.104327 0.000000
H492  H     H_    0.802458 0.408928 0.114561 0.000000
H493  H     H_    0.792520 0.417477 0.086000 0.000000
H494  H     H_    0.719978 0.376481 0.089987 0.000000
H495  H     H_    0.801800 0.312550 0.073831 0.000000
H496  H     H_    0.848562 0.310530 0.096468 0.000000
H497  H     H_    0.890099 0.062331 0.088903 0.000000
H498  H     H_    0.851412 0.012268 0.113998 0.000000
H499  H     H_    0.774416 0.074078 0.141964 0.000000
H500  H     H_    0.734760 0.188729 0.143571 0.000000
C451  C     C_3   0.507395 0.340844 0.093633 0.000000
N151  N     N_3   0.521493 0.390965 0.098956 0.000000
C452  C     C_3   0.584494 0.373005 0.093260 0.000000
C453  C     C_R   0.597834 0.417523 0.104181 0.000000
N152  N     N_R   0.563894 0.481120 0.102053 0.000000
C454  C     C_R   0.585560 0.502913 0.118027 0.000000
C455  C     C_R   0.564692 0.563359 0.125329 0.000000
C456  C     C_R   0.594848 0.575395 0.141674 0.000000
C457  C     C_R   0.644577 0.527230 0.150522 0.000000
C458  C     C_R   0.662972 0.466010 0.143871 0.000000
C459  C     C_R   0.631086 0.454893 0.128120 0.000000
N153  N     N_R   0.637798 0.399297 0.120463 0.000000
H501  H     H_    0.496068 0.325630 0.108799 0.000000
H502  H     H_    0.466784 0.358978 0.083855 0.000000
H503  H     H_    0.545541 0.302906 0.084472 0.000000
H504  H     H_    0.517744 0.395648 0.115558 0.000000
H505  H     H_    0.614600 0.328095 0.099388 0.000000
H506  H     H_    0.595196 0.372683 0.076218 0.000000
H507  H     H_    0.525209 0.600332 0.118967 0.000000
H508  H     H_    0.579654 0.622780 0.147552 0.000000
H509  H     H_    0.668018 0.537570 0.163092 0.000000
H510  H     H_    0.700925 0.428429 0.150976 0.000000
C460  C     C_3   0.846301 0.302092 0.151413 0.000000
N154  N     N_3   0.850195 0.273699 0.171988 0.000000
C461  C     C_3   0.808920 0.245374 0.173002 0.000000
C462  C     C_R   0.747315 0.292350 0.180110 0.000000
N155  N     N_R   0.732698 0.318815 0.200726 0.000000
C463  C     C_R   0.675855 0.364869 0.198309 0.000000
C464  C     C_R   0.640050 0.411342 0.212790 0.000000
C465  C     C_R   0.587701 0.460132 0.206034 0.000000
C466  C     C_R   0.569530 0.459476 0.185447 0.000000
C467  C     C_R   0.601838 0.408561 0.171838 0.000000
C468  C     C_R   0.657373 0.364293 0.178051 0.000000
N156  N     N_R   0.701208 0.318745 0.165793 0.000000
H511  H     H_    0.871766 0.330158 0.151725 0.000000
H512  H     H_    0.867144 0.265274 0.138664 0.000000
H513  H     H_    0.798258 0.333012 0.147950 0.000000
H514  H     H_    0.837482 0.308140 0.183944 0.000000
H515  H     H_    0.807414 0.226218 0.157070 0.000000
H516  H     H_    0.824306 0.207286 0.184433 0.000000
H517  H     H_    0.651538 0.410719 0.229038 0.000000
H518  H     H_    0.560379 0.498537 0.216973 0.000000
H519  H     H_    0.529096 0.498482 0.180193 0.000000
H520  H     H_    0.584870 0.405631 0.156462 0.000000
C469  C     C_3   0.657581 0.183964 0.193210 0.000000
N157  N     N_3   0.656394 0.209223 0.172265 0.000000
C470  C     C_3   0.596052 0.259994 0.169883 0.000000
C471  C     C_R   0.582689 0.269618 0.146808 0.000000
N158  N     N_R   0.627564 0.266583 0.132427 0.000000
C472  C     C_R   0.623401 0.230376 0.116374 0.000000
C473  C     C_R   0.658458 0.208872 0.097682 0.000000
C474  C     C_R   0.647014 0.169917 0.084063 0.000000
C475  C     C_R   0.601140 0.153321 0.089106 0.000000
C476  C     C_R   0.564696 0.177577 0.107406 0.000000
C477  C     C_R   0.575522 0.217642 0.120371 0.000000
N159  N     N_R   0.544610 0.247476 0.138457 0.000000
H521  H     H_    0.641801 0.147515 0.192195 0.000000
H522  H     H_    0.704872 0.162853 0.198760 0.000000
H523  H     H_    0.627306 0.221273 0.204702 0.000000
H524  H     H_    0.661175 0.173792 0.161408 0.000000
H525  H     H_    0.564113 0.244658 0.177091 0.000000
H526  H     H_    0.591771 0.302555 0.178138 0.000000
H527  H     H_    0.692346 0.223377 0.093033 0.000000
H528  H     H_    0.674032 0.152331 0.069366 0.000000
H529  H     H_    0.593079 0.122219 0.078483 0.000000
H530  H     H_    0.528944 0.165170 0.111328 0.000000
C478  C     C_3   0.792698 0.139664 0.865224 0.000000
N160  N     N_3   0.857668 0.097954 0.863582 0.000000
C479  C     C_3   0.889501 0.134630 0.858669 0.000000
C480  C     C_R   0.955101 0.092931 0.854525 0.000000
N161  N     N_R   0.990460 0.049719 0.869311 0.000000
C481  C     C_R   0.039907 0.012657 0.856809 0.000000
C482  C     C_R   0.087409 0.956768 0.861885 0.000000
C483  C     C_R   0.129927 0.921848 0.846031 0.000000
C484  C     C_R   0.122807 0.941157 0.825185 0.000000
C485  C     C_R   0.073796 0.996188 0.820097 0.000000
C486  C     C_R   0.034365 0.032742 0.836299 0.000000
N162  N     N_R   0.982711 0.085952 0.834170 0.000000
H531  H     H_    0.768346 0.114255 0.871879 0.000000
H532  H     H_    0.783608 0.180300 0.875939 0.000000
H533  H     H_    0.775741 0.155635 0.849164 0.000000
H534  H     H_    0.864618 0.068286 0.850378 0.000000
H535  H     H_    0.871504 0.158898 0.843809 0.000000
H536  H     H_    0.883968 0.167288 0.872104 0.000000
H537  H     H_    0.090183 0.937834 0.877386 0.000000
H538  H     H_    0.167157 0.877540 0.849726 0.000000
H539  H     H_    0.154415 0.911891 0.812713 0.000000
H540  H     H_    0.065528 0.007851 0.803657 0.000000
C487  C     C_3   0.089093 0.913174 0.765169 0.000000
N163  N     N_3   0.042054 0.976624 0.762743 0.000000
C488  C     C_3   0.984895 0.979147 0.770513 0.000000
C489  C     C_R   0.933519 0.042933 0.768884 0.000000
N164  N     N_R   0.926359 0.092472 0.782504 0.000000
C490  C     C_R   0.869194 0.134187 0.778721 0.000000
C491  C     C_R   0.834224 0.188546 0.790083 0.000000
C492  C     C_R   0.780076 0.230144 0.781726 0.000000
C493  C     C_R   0.763037 0.216427 0.762236 0.000000
C494  C     C_R   0.796851 0.158759 0.752135 0.000000
C495  C     C_R   0.847751 0.116134 0.761632 0.000000
N165  N     N_R   0.884192 0.055786 0.755914 0.000000
H541  H     H_    0.134438 0.911251 0.762303 0.000000
H542  H     H_    0.086860 0.897670 0.781581 0.000000
H543  H     H_    0.083170 0.881408 0.753491 0.000000
H544  H     H_    0.038569 0.984282 0.746413 0.000000
H545  H     H_    0.975430 0.945627 0.761021 0.000000
H546  H     H_    0.988565 0.966786 0.787515 0.000000
H547  H     H_    0.849057 0.198476 0.804952 0.000000
H548  H     H_    0.752276 0.274280 0.789967 0.000000
H549  H     H_    0.722032 0.250119 0.755227 0.000000
H550  H     H_    0.783497 0.148444 0.737301 0.000000
C496  C     C_3   0.790799 0.282170 0.842802 0.000000
N166  N     N_3   0.827957 0.299283 0.828562 0.000000
C497  C     C_3   0.891130 0.274003 0.834765 0.000000
C498  C     C_R   0.925894 0.272863 0.815119 0.000000
N167  N     N_R   0.935494 0.225673 0.800509 0.000000
C499  C     C_R   0.919363 0.257440 0.782131 0.000000
C500  C     C_R   0.906213 0.238790 0.763076 0.000000
C501  C     C_R   0.878409 0.282727 0.747807 0.000000
C502  C     C_R   0.867476 0.343932 0.751111 0.000000
C503  C     C_R   0.881976 0.362070 0.770165 0.000000
C504  C     C_R   0.906481 0.318139 0.785390 0.000000
N168  N     N_R   0.912791 0.329339 0.805791 0.000000
H551  H     H_    0.780284 0.247224 0.834660 0.000000
H552  H     H_    0.814520 0.263117 0.857444 0.000000
H553  H     H_    0.747111 0.323582 0.846859 0.000000
H554  H     H_    0.810377 0.347448 0.828991 0.000000
H555  H     H_    0.895823 0.303172 0.847524 0.000000
H556  H     H_    0.908394 0.225876 0.840051 0.000000
H557  H     H_    0.916401 0.191441 0.759938 0.000000
H558  H     H_    0.865991 0.268849 0.732983 0.000000
H559  H     H_    0.846325 0.377706 0.739010 0.000000
H560  H     H_    0.870904 0.410235 0.773470 0.000000
C505  C     C_3   0.997467 0.173638 0.725041 0.000000
N169  N     N_3   0.039016 0.161065 0.742400 0.000000
C506  C     C_3   0.051831 0.102420 0.752178 0.000000
C507  C     C_R   0.086441 0.096811 0.771433 0.000000
N170  N     N_R   0.146198 0.087499 0.771118 0.000000
C508  C     C_R   0.155076 0.092693 0.791877 0.000000
C509  C     C_R   0.206489 0.089212 0.800652 0.000000
C510  C     C_R   0.205706 0.097969 0.822487 0.000000
C511  C     C_R   0.152855 0.112494 0.834736 0.000000
C512  C     C_R   0.100446 0.118004 0.825413 0.000000
C513  C     C_R   0.103650 0.105129 0.803890 0.000000
N171  N     N_R   0.059319 0.106287 0.791478 0.000000
H561  H     H_    0.976278 0.223780 0.721554 0.000000
H562  H     H_    0.023284 0.148448 0.710602 0.000000
H563  H     H_    0.961798 0.158782 0.728545 0.000000
H564  H     H_    0.020951 0.196807 0.753999 0.000000
H565  H     H_    0.008913 0.101014 0.756779 0.000000
H566  H     H_    0.080065 0.062843 0.741422 0.000000
H567  H     H_    0.244891 0.082951 0.790599 0.000000
H568  H     H_    0.245522 0.096151 0.829924 0.000000
H569  H     H_    0.151791 0.122443 0.851574 0.000000
H570  H     H_    0.058595 0.133192 0.834833 0.000000
C514  C     C_3   0.953607 0.314651 0.269878 0.000000
N172  N     N_3   0.895772 0.353450 0.260566 0.000000
C515  C     C_3   0.904741 0.351561 0.237555 0.000000
C516  C     C_R   0.916752 0.290493 0.228288 0.000000
N173  N     N_R   0.870635 0.272870 0.226448 0.000000
C517  C     C_R   0.902369 0.210650 0.224426 0.000000
C518  C     C_R   0.879505 0.168026 0.224050 0.000000
C519  C     C_R   0.920851 0.105464 0.222802 0.000000
C520  C     C_R   0.983132 0.087250 0.222157 0.000000
C521  C     C_R   0.004636 0.131449 0.222919 0.000000
C522  C     C_R   0.963521 0.192704 0.224211 0.000000
N174  N     N_R   0.975364 0.242140 0.225755 0.000000
H571  H     H_    0.953361 0.331301 0.286455 0.000000
H572  H     H_    0.959786 0.266178 0.270188 0.000000
H573  H     H_    0.992125 0.317157 0.261139 0.000000
H574  H     H_    0.884858 0.398442 0.265929 0.000000
H575  H     H_    0.864081 0.387542 0.230404 0.000000
H576  H     H_    0.943851 0.359628 0.234104 0.000000
H577  H     H_    0.831059 0.182590 0.224366 0.000000
H578  H     H_    0.904649 0.070592 0.221923 0.000000
H579  H     H_    0.014869 0.038321 0.220686 0.000000
H580  H     H_    0.051726 0.119675 0.221405 0.000000
C523  C     C_3   0.592776 0.501801 0.290223 0.000000
N175  N     N_3   0.616892 0.454555 0.273084 0.000000
C524  C     C_3   0.682063 0.416240 0.275418 0.000000
C525  C     C_R   0.717888 0.436522 0.260511 0.000000
N176  N     N_R   0.744172 0.403981 0.241607 0.000000
C526  C     C_R   0.741580 0.449396 0.228720 0.000000
C527  C     C_R   0.760682 0.443665 0.207662 0.000000
C528  C     C_R   0.756946 0.496190 0.197762 0.000000
C529  C     C_R   0.735245 0.552752 0.209039 0.000000
C530  C     C_R   0.716585 0.557487 0.230304 0.000000
C531  C     C_R   0.718456 0.505126 0.239632 0.000000
N177  N     N_R   0.708249 0.497530 0.260422 0.000000
H581  H     H_    0.543415 0.531208 0.288165 0.000000
H582  H     H_    0.598816 0.479738 0.305956 0.000000
H583  H     H_    0.615834 0.531899 0.289580 0.000000
H584  H     H_    0.610352 0.477536 0.258716 0.000000
H585  H     H_    0.692938 0.416794 0.292141 0.000000
H586  H     H_    0.692964 0.367988 0.271214 0.000000
H587  H     H_    0.779162 0.399575 0.199147 0.000000
H588  H     H_    0.772320 0.492820 0.181253 0.000000
H589  H     H_    0.734215 0.593024 0.201289 0.000000
H590  H     H_    0.703140 0.600449 0.239425 0.000000
C532  C     C_3   0.569916 0.135196 0.425770 0.000000
N178  N     N_3   0.613637 0.152383 0.435011 0.000000
C533  C     C_3   0.671851 0.121261 0.423277 0.000000
C534  C     C_R   0.712648 0.146384 0.431608 0.000000
N179  N     N_R   0.706622 0.203854 0.425364 0.000000
C535  C     C_R   0.741249 0.214960 0.439873 0.000000
C536  C     C_R   0.746638 0.268848 0.444155 0.000000
C537  C     C_R   0.786200 0.268198 0.459478 0.000000
C538  C     C_R   0.818261 0.215307 0.470950 0.000000
C539  C     C_R   0.808271 0.163739 0.468040 0.000000
C540  C     C_R   0.768692 0.165469 0.452760 0.000000
N180  N     N_R   0.751276 0.121266 0.448473 0.000000
H591  H     H_    0.523790 0.166319 0.432660 0.000000
H592  H     H_    0.569819 0.140369 0.408245 0.000000
H593  H     H_    0.581427 0.086759 0.429898 0.000000
H594  H     H_    0.620164 0.136166 0.450511 0.000000
H595  H     H_    0.691327 0.070591 0.425150 0.000000
H596  H     H_    0.665593 0.131418 0.406108 0.000000
H597  H     H_    0.720461 0.311749 0.436401 0.000000
H598  H     H_    0.791800 0.309605 0.462618 0.000000
H599  H     H_    0.849031 0.215416 0.482877 0.000000
H600  H     H_    0.830439 0.123412 0.477720 0.000000
C541  C     C_3   0.748757 0.252865 0.520942 0.000000
N181  N     N_3   0.774220 0.185395 0.518801 0.000000
C542  C     C_3   0.726593 0.170628 0.511482 0.000000
C543  C     C_R   0.741176 0.105178 0.516302 0.000000
N182  N     N_R   0.754772 0.058511 0.500544 0.000000
C544  C     C_R   0.749847 0.013662 0.512264 0.000000
C545  C     C_R   0.751421 0.957802 0.505672 0.000000
C546  C     C_R   0.743085 0.920447 0.520491 0.000000
C547  C     C_R   0.740619 0.935069 0.541900 0.000000
C548  C     C_R   0.739809 0.990663 0.548345 0.000000
C549  C     C_R   0.740684 0.030157 0.533310 0.000000
N183  N     N_R   0.732518 0.088411 0.536802 0.000000
H601  H     H_    0.786034 0.265879 0.523443 0.000000
H602  H     H_    0.725183 0.274504 0.506256 0.000000
H603  H     H_    0.715921 0.270313 0.534843 0.000000
H604  H     H_    0.785514 0.167759 0.534014 0.000000
H605  H     H_    0.682822 0.202438 0.519510 0.000000
H606  H     H_    0.720663 0.177550 0.494235 0.000000
H607  H     H_    0.760983 0.940744 0.489598 0.000000
H608  H     H_    0.743813 0.876963 0.515387 0.000000
H609  H     H_    0.738221 0.903328 0.553445 0.000000
H610  H     H_    0.734122 0.005518 0.564740 0.000000
C550  C     C_3   0.887934 0.872941 0.523094 0.000000
N184  N     N_3   0.919355 0.863655 0.502174 0.000000
C551  C     C_3   0.881479 0.910662 0.488355 0.000000
C552  C     C_R   0.914981 0.931313 0.473979 0.000000
N185  N     N_R   0.978067 0.909314 0.472585 0.000000
C553  C     C_R   0.981619 0.956210 0.461829 0.000000
C554  C     C_R   0.031446 0.967293 0.458941 0.000000
C555  C     C_R   0.025093 0.018511 0.447552 0.000000
C556  C     C_R   0.969290 0.058371 0.439592 0.000000
C557  C     C_R   0.918387 0.049711 0.444139 0.000000
C558  C     C_R   0.925135 0.999877 0.456110 0.000000
N186  N     N_R   0.881108 0.986848 0.464292 0.000000
H611  H     H_    0.920312 0.849554 0.535619 0.000000
H612  H     H_    0.864340 0.922440 0.528530 0.000000
H613  H     H_    0.857405 0.850657 0.522648 0.000000
H614  H     H_    0.917678 0.825047 0.495106 0.000000
H615  H     H_    0.855368 0.892824 0.478750 0.000000
H616  H     H_    0.854254 0.953423 0.497511 0.000000
H617  H     H_    0.074068 0.938458 0.465782 0.000000
H618  H     H_    0.064038 0.027340 0.444759 0.000000
H619  H     H_    0.965223 0.097359 0.430254 0.000000
H620  H     H_    0.875384 0.080083 0.437711 0.000000
C559  C     C_3   0.883305 0.968736 0.406306 0.000000
N187  N     N_3   0.825476 0.987454 0.417954 0.000000
C560  C     C_3   0.820910 0.931596 0.424021 0.000000
C561  C     C_R   0.763792 0.949180 0.436973 0.000000
N188  N     N_R   0.745091 0.992352 0.453549 0.000000
C562  C     C_R   0.693237 0.991988 0.460910 0.000000
C563  C     C_R   0.652458 0.029216 0.476713 0.000000
C564  C     C_R   0.610686 0.010409 0.484904 0.000000
C565  C     C_R   0.612108 0.954939 0.477817 0.000000
C566  C     C_R   0.650837 0.921069 0.460935 0.000000
C567  C     C_R   0.686940 0.944489 0.451397 0.000000
N189  N     N_R   0.726997 0.920583 0.434635 0.000000
H621  H     H_    0.920708 0.930293 0.414320 0.000000
H622  H     H_    0.879943 0.954132 0.389799 0.000000
H623  H     H_    0.893753 0.008874 0.405606 0.000000
H624  H     H_    0.791126 0.010917 0.407361 0.000000
H625  H     H_    0.820831 0.904513 0.409612 0.000000
H626  H     H_    0.859684 0.902588 0.433895 0.000000
H627  H     H_    0.654226 0.070226 0.483148 0.000000
H628  H     H_    0.578512 0.036970 0.497582 0.000000
H629  H     H_    0.581253 0.939192 0.485027 0.000000
H630  H     H_    0.650071 0.879096 0.455076 0.000000
C568  C     C_3   0.137687 0.084551 0.049526 0.000000
N190  N     N_3   0.140894 0.026563 0.057274 0.000000
C569  C     C_3   0.089678 0.041355 0.072223 0.000000
C570  C     C_R   0.041795 0.027024 0.063110 0.000000
N191  N     N_R   0.055448 0.968408 0.054752 0.000000
C571  C     C_R   0.000990 0.976903 0.047699 0.000000
C572  C     C_R   0.988047 0.935775 0.036149 0.000000
C573  C     C_R   0.927481 0.951328 0.033087 0.000000
C574  C     C_R   0.881867 0.009053 0.040182 0.000000
C575  C     C_R   0.896823 0.053623 0.048644 0.000000
C576  C     C_R   0.956991 0.035936 0.052443 0.000000
N192  N     N_R   0.980944 0.070556 0.061484 0.000000
H631  H     H_    0.171786 0.073882 0.036165 0.000000
H632  H     H_    0.091652 0.114718 0.043764 0.000000
H633  H     H_    0.149107 0.108775 0.062484 0.000000
H634  H     H_    0.179759 0.008340 0.066264 0.000000
H635  H     H_    0.106106 0.013723 0.086658 0.000000
H636  H     H_    0.070830 0.090474 0.076553 0.000000
H637  H     H_    0.023471 0.891102 0.030848 0.000000
H638  H     H_    0.915607 0.918283 0.025179 0.000000
H639  H     H_    0.834704 0.020789 0.037655 0.000000
H640  H     H_    0.862012 0.100010 0.052988 0.000000
C577  C     C_3   0.042326 0.333917 0.059205 0.000000
N193  N     N_3   0.030904 0.305596 0.077984 0.000000
C578  C     C_3   0.043714 0.242254 0.071964 0.000000
C579  C     C_R   0.024432 0.214105 0.089735 0.000000
N194  N     N_R   0.055125 0.199856 0.108512 0.000000
C580  C     C_R   0.035752 0.161181 0.117496 0.000000
C581  C     C_R   0.062460 0.120475 0.133518 0.000000
C582  C     C_R   0.048407 0.071622 0.136520 0.000000
C583  C     C_R   0.005038 0.066394 0.124515 0.000000
C584  C     C_R   0.977915 0.108632 0.108972 0.000000
C585  C     C_R   0.994033 0.155208 0.105482 0.000000
N195  N     N_R   0.984953 0.187600 0.087498 0.000000
H641  H     H_    0.037470 0.380496 0.063753 0.000000
H642  H     H_    0.089185 0.304782 0.052569 0.000000
H643  H     H_    0.009126 0.338898 0.046931 0.000000
H644  H     H_    0.984785 0.330123 0.082484 0.000000
H645  H     H_    0.020426 0.241097 0.057272 0.000000
H646  H     H_    0.093457 0.214611 0.068925 0.000000
H647  H     H_    0.098235 0.122016 0.142428 0.000000
H648  H     H_    0.071333 0.037575 0.148372 0.000000
H649  H     H_    0.994454 0.027752 0.126588 0.000000
H650  H     H_    0.950957 0.100149 0.098053 0.000000
C586  C     C_3   0.633828 0.403779 0.593703 0.000000
N196  N     N_3   0.613491 0.376059 0.576917 0.000000
C587  C     C_3   0.611310 0.320871 0.585077 0.000000
C588  C     C_R   0.596066 0.288052 0.567645 0.000000
N197  N     N_R   0.544692 0.318460 0.555437 0.000000
C589  C     C_R   0.550908 0.270792 0.542175 0.000000
C590  C     C_R   0.515594 0.271172 0.525725 0.000000
C591  C     C_R   0.524794 0.215771 0.515807 0.000000
C592  C     C_R   0.566600 0.160399 0.523394 0.000000
C593  C     C_R   0.601796 0.160720 0.539773 0.000000
C594  C     C_R   0.596894 0.216315 0.547602 0.000000
N198  N     N_R   0.629848 0.223936 0.562885 0.000000
H651  H     H_    0.626469 0.450869 0.589030 0.000000
H652  H     H_    0.607860 0.407878 0.608867 0.000000
H653  H     H_    0.682972 0.374558 0.596056 0.000000
H654  H     H_    0.646859 0.361303 0.564575 0.000000
H655  H     H_    0.655653 0.290135 0.591516 0.000000
H656  H     H_    0.576534 0.333745 0.598232 0.000000
H657  H     H_    0.476021 0.311863 0.522879 0.000000
H658  H     H_    0.496055 0.214703 0.503376 0.000000
H659  H     H_    0.570251 0.117031 0.517117 0.000000
H660  H     H_    0.630062 0.117887 0.546689 0.000000
C595  C     C_3   0.558719 0.996645 0.548350 0.000000
N199  N     N_3   0.570097 0.002528 0.570729 0.000000
C596  C     C_3   0.621189 0.017087 0.571421 0.000000
C597  C     C_R   0.612817 0.068035 0.587275 0.000000
N200  N     N_R   0.574718 0.082751 0.605248 0.000000
C598  C     C_R   0.580610 0.130599 0.614270 0.000000
C599  C     C_R   0.548727 0.166891 0.631870 0.000000
C600  C     C_R   0.563321 0.213041 0.638913 0.000000
C601  C     C_R   0.608407 0.222421 0.628212 0.000000
C602  C     C_R   0.638012 0.186827 0.610110 0.000000
C603  C     C_R   0.622386 0.141692 0.603241 0.000000
N201  N     N_R   0.643937 0.103997 0.585686 0.000000
H661  H     H_    0.524628 0.978730 0.547089 0.000000
H662  H     H_    0.540591 0.042766 0.540878 0.000000
H663  H     H_    0.601268 0.962914 0.539741 0.000000
H664  H     H_    0.584168 0.958350 0.576774 0.000000
H665  H     H_    0.661276 0.974522 0.575777 0.000000
H666  H     H_    0.627214 0.032254 0.555498 0.000000
H667  H     H_    0.512328 0.161186 0.639857 0.000000
H668  H     H_    0.539446 0.241981 0.652784 0.000000
H669  H     H_    0.619781 0.258464 0.633825 0.000000
H670  H     H_    0.672239 0.194810 0.601784 0.000000
C604  C     C_3   0.618046 0.819533 0.036769 0.000000
N202  N     N_3   0.564907 0.831300 0.024484 0.000000
C605  C     C_3   0.539822 0.789772 0.031598 0.000000
C606  C     C_R   0.479602 0.805951 0.022001 0.000000
N203  N     N_R   0.431771 0.845606 0.035398 0.000000
C607  C     C_R   0.408555 0.897569 0.023740 0.000000
C608  C     C_R   0.373644 0.958333 0.030921 0.000000
C609  C     C_R   0.363258 0.005179 0.016640 0.000000
C610  C     C_R   0.388161 0.991467 0.996064 0.000000
C611  C     C_R   0.422543 0.930499 0.989134 0.000000
C612  C     C_R   0.433618 0.884611 0.003466 0.000000
N204  N     N_R   0.473585 0.824188 0.000912 0.000000
H671  H     H_    0.637140 0.851301 0.031658 0.000000
H672  H     H_    0.605188 0.828100 0.054034 0.000000
H673  H     H_    0.653275 0.770776 0.033978 0.000000
H674  H     H_    0.579706 0.821512 0.008554 0.000000
H675  H     H_    0.574018 0.741711 0.029735 0.000000
H676  H     H_    0.529376 0.798373 0.048727 0.000000
H677  H     H_    0.355593 0.969210 0.047206 0.000000
H678  H     H_    0.335773 0.053242 0.021211 0.000000
H679  H     H_    0.379853 0.028805 0.985283 0.000000
H680  H     H_    0.439383 0.919578 0.972794 0.000000
C613  C     C_3   0.541980 0.786292 0.469147 0.000000
N205  N     N_3   0.498965 0.794522 0.452762 0.000000
C614  C     C_3   0.481158 0.744394 0.450678 0.000000
C615  C     C_R   0.430637 0.767900 0.436801 0.000000
N206  N     N_R   0.372972 0.792639 0.445862 0.000000
C616  C     C_R   0.341985 0.840887 0.433294 0.000000
C617  C     C_R   0.283414 0.887282 0.436343 0.000000
C618  C     C_R   0.261160 0.932881 0.421299 0.000000
C619  C     C_R   0.297902 0.932085 0.403941 0.000000
C620  C     C_R   0.357545 0.886246 0.401639 0.000000
C621  C     C_R   0.378615 0.841224 0.416615 0.000000
N207  N     N_R   0.435850 0.795487 0.418393 0.000000
H681  H     H_    0.519007 0.821567 0.482167 0.000000
H682  H     H_    0.562070 0.737839 0.474574 0.000000
H683  H     H_    0.578789 0.796371 0.462529 0.000000
H684  H     H_    0.521328 0.793686 0.438526 0.000000
H685  H     H_    0.515556 0.701103 0.443640 0.000000
H686  H     H_    0.464730 0.733782 0.465391 0.000000
H687  H     H_    0.255630 0.888926 0.450098 0.000000
H688  H     H_    0.215041 0.969700 0.423190 0.000000
H689  H     H_    0.280252 0.968338 0.392413 0.000000
H690  H     H_    0.386826 0.886853 0.388800 0.000000
C622  C     C_3   0.247206 0.666193 0.491992 0.000000
N208  N     N_3   0.297961 0.677980 0.496178 0.000000
C623  C     C_3   0.287017 0.715797 0.515600 0.000000
C624  C     C_R   0.339744 0.729034 0.517590 0.000000
N209  N     N_R   0.376151 0.711122 0.535217 0.000000
C625  C     C_R   0.428768 0.706193 0.527114 0.000000
C626  C     C_R   0.483303 0.681912 0.537095 0.000000
C627  C     C_R   0.527835 0.695733 0.528869 0.000000
C628  C     C_R   0.512764 0.739031 0.513088 0.000000
C629  C     C_R   0.458083 0.758948 0.502622 0.000000
C630  C     C_R   0.421223 0.731898 0.507634 0.000000
N210  N     N_R   0.366292 0.742580 0.499835 0.000000
H691  H     H_    0.262648 0.624696 0.481196 0.000000
H692  H     H_    0.230077 0.659281 0.507314 0.000000
H693  H     H_    0.211882 0.705604 0.484029 0.000000
H694  H     H_    0.299519 0.703610 0.483628 0.000000
H695  H     H_    0.244173 0.758586 0.515180 0.000000
H696  H     H_    0.283786 0.690562 0.529673 0.000000
H697  H     H_    0.489404 0.657274 0.551785 0.000000
H698  H     H_    0.570226 0.681026 0.536858 0.000000
H699  H     H_    0.543109 0.759485 0.510188 0.000000
H700  H     H_    0.442362 0.797804 0.492183 0.000000
C631  C     C_3   0.298094 0.947801 0.188675 0.000000
N211  N     N_3   0.264658 0.007164 0.178239 0.000000
C632  C     C_3   0.281042 0.057647 0.182799 0.000000
C633  C     C_R   0.346026 0.033883 0.186321 0.000000
N212  N     N_R   0.367706 0.011209 0.205980 0.000000
C634  C     C_R   0.421149 0.961452 0.200111 0.000000
C635  C     C_R   0.448807 0.906540 0.210608 0.000000
C636  C     C_R   0.498071 0.856751 0.200674 0.000000
C637  C     C_R   0.516959 0.860894 0.180069 0.000000
C638  C     C_R   0.482950 0.912708 0.168602 0.000000
C639  C     C_R   0.434342 0.961592 0.178769 0.000000
N213  N     N_R   0.387830 0.007798 0.169388 0.000000
H701  H     H_    0.341926 0.919444 0.180048 0.000000
H702  H     H_    0.306442 0.953297 0.205594 0.000000
H703  H     H_    0.271059 0.921389 0.188025 0.000000
H704  H     H_    0.217774 0.022309 0.179255 0.000000
H705  H     H_    0.270528 0.086853 0.168875 0.000000
H706  H     H_    0.255694 0.086292 0.196674 0.000000
H707  H     H_    0.429968 0.899967 0.225422 0.000000
H708  H     H_    0.521192 0.813594 0.208804 0.000000
H709  H     H_    0.554211 0.820950 0.172246 0.000000
H710  H     H_    0.490281 0.911045 0.151615 0.000000
C640  C     C_3   0.424662 0.799848 0.152599 0.000000
N214  N     N_3   0.399490 0.857248 0.140916 0.000000
C641  C     C_3   0.439361 0.850380 0.122507 0.000000
C642  C     C_R   0.417846 0.907921 0.109421 0.000000
N215  N     N_R   0.425924 0.896159 0.087594 0.000000
C643  C     C_R   0.453616 0.931209 0.081483 0.000000
C644  C     C_R   0.481219 0.931326 0.062201 0.000000
C645  C     C_R   0.512708 0.966002 0.059849 0.000000
C646  C     C_R   0.519336 0.997721 0.077197 0.000000
C647  C     C_R   0.492516 0.996356 0.096622 0.000000
C648  C     C_R   0.457684 0.965099 0.098216 0.000000
N216  N     N_R   0.431042 0.956096 0.115932 0.000000
H711  H     H_    0.388775 0.784890 0.155683 0.000000
H712  H     H_    0.464376 0.762665 0.143755 0.000000
H713  H     H_    0.439552 0.808640 0.168231 0.000000
H714  H     H_    0.403332 0.889327 0.151080 0.000000
H715  H     H_    0.485730 0.838713 0.127802 0.000000
H716  H     H_    0.442948 0.811389 0.112052 0.000000
H717  H     H_    0.481365 0.903656 0.049202 0.000000
H718  H     H_    0.534623 0.965832 0.044639 0.000000
H719  H     H_    0.546474 0.022546 0.075692 0.000000
H720  H     H_    0.501257 0.017956 0.110025 0.000000
C649  C     C_3   0.519688 0.450981 0.372529 0.000000
N217  N     N_3   0.585746 0.418996 0.371215 0.000000
C650  C     C_3   0.606714 0.430900 0.391287 0.000000
C651  C     C_R   0.672068 0.388607 0.392917 0.000000
N218  N     N_R   0.715321 0.410030 0.393477 0.000000
C652  C     C_R   0.765565 0.358532 0.398352 0.000000
C653  C     C_R   0.818683 0.354578 0.406070 0.000000
C654  C     C_R   0.865519 0.295957 0.409252 0.000000
C655  C     C_R   0.857584 0.243201 0.405288 0.000000
C656  C     C_R   0.801250 0.248935 0.399839 0.000000
C657  C     C_R   0.754773 0.307858 0.397679 0.000000
N219  N     N_R   0.694684 0.325516 0.395832 0.000000
H721  H     H_    0.501727 0.421563 0.380284 0.000000
H722  H     H_    0.504338 0.494105 0.382324 0.000000
H723  H     H_    0.501890 0.461499 0.356326 0.000000
H724  H     H_    0.601118 0.438357 0.359120 0.000000
H725  H     H_    0.600322 0.479134 0.392366 0.000000
H726  H     H_    0.580832 0.424069 0.404746 0.000000
H727  H     H_    0.823312 0.395788 0.410219 0.000000
H728  H     H_    0.908465 0.291255 0.414854 0.000000
H729  H     H_    0.894547 0.197531 0.407671 0.000000
H730  H     H_    0.794064 0.208374 0.398297 0.000000
C658  C     C_3   0.663702 0.667917 0.366555 0.000000
N220  N     N_3   0.695939 0.604816 0.358775 0.000000
C659  C     C_3   0.658112 0.594323 0.343929 0.000000
C660  C     C_R   0.687683 0.532262 0.335672 0.000000
N221  N     N_R   0.707976 0.516618 0.314591 0.000000
C661  C     C_R   0.747491 0.456115 0.316450 0.000000
C662  C     C_R   0.793121 0.419080 0.302275 0.000000
C663  C     C_R   0.830606 0.359070 0.308204 0.000000
C664  C     C_R   0.821094 0.336904 0.327441 0.000000
C665  C     C_R   0.775722 0.375523 0.341578 0.000000
C666  C     C_R   0.744262 0.436460 0.336509 0.000000
N222  N     N_R   0.709899 0.484957 0.349574 0.000000
H731  H     H_    0.680505 0.696143 0.357630 0.000000
H732  H     H_    0.614751 0.686332 0.365266 0.000000
H733  H     H_    0.669901 0.669395 0.383435 0.000000
H734  H     H_    0.703524 0.577422 0.371796 0.000000
H735  H     H_    0.614569 0.603076 0.350767 0.000000
H736  H     H_    0.653121 0.621652 0.330609 0.000000
H737  H     H_    0.800622 0.437104 0.287504 0.000000
H738  H     H_    0.867488 0.328522 0.297863 0.000000
H739  H     H_    0.851419 0.290404 0.332029 0.000000
H740  H     H_    0.768867 0.358751 0.356637 0.000000
C667  C     C_3   0.005519 0.973155 0.978736 0.000000
N223  N     N_3   0.022589 0.986299 0.957701 0.000000
C668  C     C_3   0.058770 0.927954 0.945889 0.000000
C669  C     C_R   0.095890 0.938156 0.928842 0.000000
N224  N     N_R   0.070640 0.984633 0.914425 0.000000
C670  C     C_R   0.118960 0.992476 0.907558 0.000000
C671  C     C_R   0.118322 0.039900 0.895488 0.000000
C672  C     C_R   0.172684 0.043045 0.892243 0.000000
C673  C     C_R   0.225832 0.999110 0.900732 0.000000
C674  C     C_R   0.225245 0.951967 0.912902 0.000000
C675  C     C_R   0.171114 0.949241 0.916061 0.000000
N225  N     N_R   0.158591 0.912632 0.929468 0.000000
H741  H     H_    0.988543 0.015986 0.988954 0.000000
H742  H     H_    0.969798 0.957358 0.977446 0.000000
H743  H     H_    0.044853 0.936890 0.986483 0.000000
H744  H     H_    0.048927 0.009677 0.959629 0.000000
H745  H     H_    0.091376 0.893657 0.956345 0.000000
H746  H     H_    0.028674 0.909777 0.939168 0.000000
H747  H     H_    0.076386 0.075462 0.889650 0.000000
H748  H     H_    0.173628 0.081114 0.883708 0.000000
H749  H     H_    0.267677 0.003009 0.898429 0.000000
H750  H     H_    0.265578 0.920892 0.920456 0.000000
C676  C     C_3   0.968578 0.935347 0.837203 0.000000
N226  N     N_3   0.959751 0.951251 0.859698 0.000000
C677  C     C_3   0.990965 0.894755 0.871315 0.000000
C678  C     C_R   0.961555 0.907273 0.892594 0.000000
N227  N     N_R   0.954681 0.957551 0.905432 0.000000
C679  C     C_R   0.914551 0.957699 0.920658 0.000000
C680  C     C_R   0.896175 0.989856 0.939865 0.000000
C681  C     C_R   0.845102 0.991473 0.950307 0.000000
C682  C     C_R   0.810622 0.967714 0.940156 0.000000
C683  C     C_R   0.833654 0.931793 0.921682 0.000000
C684  C     C_R   0.892111 0.917725 0.915115 0.000000
N228  N     N_R   0.925245 0.879944 0.898738 0.000000
H751  H     H_    0.953397 0.978456 0.828039 0.000000
H752  H     H_    0.017444 0.904510 0.833306 0.000000
H753  H     H_    0.940076 0.912289 0.833337 0.000000
H754  H     H_    0.913323 0.967604 0.863365 0.000000
H755  H     H_    0.984805 0.856611 0.863749 0.000000
H756  H     H_    0.040074 0.880740 0.872242 0.000000
H757  H     H_    0.918301 0.015549 0.946203 0.000000
H758  H     H_    0.827985 0.017196 0.965178 0.000000
H759  H     H_    0.766858 0.975462 0.947015 0.000000
H760  H     H_    0.807252 0.913195 0.913562 0.000000
C685  C     C_3   0.829212 0.003577 0.810135 0.000000
N229  N     N_3   0.868360 0.973219 0.791364 0.000000
C686  C     C_3   0.847591 0.931383 0.781856 0.000000
C687  C     C_R   0.891710 0.889667 0.765494 0.000000
N230  N     N_R   0.897269 0.910049 0.745592 0.000000
C688  C     C_R   0.935661 0.855818 0.735270 0.000000
C689  C     C_R   0.943845 0.841469 0.713847 0.000000
C690  C     C_R   0.985411 0.782137 0.706824 0.000000
C691  C     C_R   0.018225 0.738440 0.721381 0.000000
C692  C     C_R   0.002260 0.751234 0.742749 0.000000
C693  C     C_R   0.955411 0.807970 0.748811 0.000000
N231  N     N_R   0.923613 0.825575 0.767550 0.000000
H761  H     H_    0.832122 0.047216 0.814136 0.000000
H762  H     H_    0.781344 0.014521 0.807155 0.000000
H763  H     H_    0.843861 0.972611 0.823824 0.000000
H764  H     H_    0.911311 0.944835 0.796919 0.000000
H765  H     H_    0.847689 0.900197 0.793774 0.000000
H766  H     H_    0.802041 0.957281 0.775234 0.000000
H767  H     H_    0.915392 0.874096 0.702784 0.000000
H768  H     H_    0.993043 0.769955 0.689977 0.000000
H769  H     H_    0.053308 0.693149 0.716011 0.000000
H770  H     H_    0.027118 0.717983 0.754157 0.000000
C694  C     C_3   0.806759 0.859514 0.712723 0.000000
N232  N     N_3   0.796413 0.918802 0.722690 0.000000
C695  C     C_3   0.738676 0.965882 0.716317 0.000000
C696  C     C_R   0.718182 0.021081 0.729774 0.000000
N233  N     N_R   0.757270 0.032816 0.742224 0.000000
C697  C     C_R   0.717200 0.077265 0.756017 0.000000
C698  C     C_R   0.728920 0.100927 0.774341 0.000000
C699  C     C_R   0.680785 0.147567 0.785890 0.000000
C700  C     C_R   0.621836 0.169527 0.779049 0.000000
C701  C     C_R   0.610160 0.142597 0.761274 0.000000
C702  C     C_R   0.658350 0.094451 0.750565 0.000000
N234  N     N_R   0.656747 0.058355 0.734153 0.000000
H771  H     H_    0.844601 0.820795 0.720413 0.000000
H772  H     H_    0.766180 0.851421 0.714766 0.000000
H773  H     H_    0.818874 0.858904 0.695550 0.000000
H774  H     H_    0.826738 0.932092 0.715317 0.000000
H775  H     H_    0.743507 0.978905 0.699817 0.000000
H776  H     H_    0.703846 0.950948 0.720205 0.000000
H777  H     H_    0.774157 0.083275 0.779882 0.000000
H778  H     H_    0.689320 0.167430 0.800224 0.000000
H779  H     H_    0.584605 0.206727 0.787984 0.000000
H780  H     H_    0.564296 0.158672 0.756368 0.000000
C703  C     C_3   0.090753 0.255067 0.723304 0.000000
N235  N     N_3   0.135333 0.190375 0.721867 0.000000
C704  C     C_3   0.128669 0.163989 0.701797 0.000000
C705  C     C_R   0.152900 0.094486 0.701917 0.000000
N236  N     N_R   0.172192 0.059440 0.719894 0.000000
C706  C     C_R   0.175338 0.004476 0.713308 0.000000
C707  C     C_R   0.182355 0.955239 0.725370 0.000000
C708  C     C_R   0.183115 0.903196 0.715365 0.000000
C709  C     C_R   0.176895 0.901648 0.693482 0.000000
C710  C     C_R   0.168079 0.952953 0.681656 0.000000
C711  C     C_R   0.165649 0.004339 0.692209 0.000000
N237  N     N_R   0.154218 0.059584 0.684087 0.000000
H781  H     H_    0.103978 0.278555 0.735926 0.000000
H782  H     H_    0.088878 0.276279 0.707668 0.000000
H783  H     H_    0.045164 0.259769 0.727636 0.000000
H784  H     H_    0.129545 0.167692 0.734984 0.000000
H785  H     H_    0.080423 0.185609 0.697954 0.000000
H786  H     H_    0.152520 0.176944 0.689462 0.000000
H787  H     H_    0.181116 0.959954 0.742258 0.000000
H788  H     H_    0.187755 0.863943 0.724661 0.000000
H789  H     H_    0.178346 0.860582 0.685670 0.000000
H790  H     H_    0.164485 0.952011 0.664551 0.000000
C712  C     C_3   0.222900 0.147226 0.582196 0.000000
N238  N     N_3   0.254829 0.152904 0.600630 0.000000
C713  C     C_3   0.245065 0.119075 0.618053 0.000000
C714  C     C_R   0.207793 0.159784 0.636498 0.000000
N239  N     N_R   0.162662 0.147783 0.645548 0.000000
C715  C     C_R   0.120698 0.204803 0.652278 0.000000
C716  C     C_R   0.061568 0.222247 0.659108 0.000000
C717  C     C_R   0.025589 0.284415 0.664807 0.000000
C718  C     C_R   0.048794 0.327352 0.663087 0.000000
C719  C     C_R   0.108052 0.308813 0.655478 0.000000
C720  C     C_R   0.143233 0.246943 0.650270 0.000000
N240  N     N_R   0.199207 0.220148 0.640560 0.000000
H791  H     H_    0.173601 0.165139 0.586268 0.000000
H792  H     H_    0.227879 0.175551 0.569220 0.000000
H793  H     H_    0.242763 0.098063 0.576365 0.000000
H794  H     H_    0.235678 0.199702 0.604868 0.000000
H795  H     H_    0.217031 0.098450 0.612171 0.000000
H796  H     H_    0.288646 0.081461 0.622701 0.000000
H797  H     H_    0.043812 0.188622 0.660181 0.000000
H798  H     H_    0.978993 0.299760 0.670501 0.000000
H799  H     H_    0.019913 0.375891 0.667297 0.000000
H800  H     H_    0.125058 0.342255 0.652953 0.000000
C721  C     C_3   0.352620 0.941450 0.697099 0.000000
N241  N     N_3   0.296025 0.962301 0.686299 0.000000
C722  C     C_3   0.304771 0.917556 0.669473 0.000000
C723  C     C_R   0.296329 0.946742 0.648610 0.000000
N242  N     N_R   0.240614 0.988665 0.640619 0.000000
C724  C     C_R   0.253551 0.978771 0.619508 0.000000
C725  C     C_R   0.213981 0.001242 0.603421 0.000000
C726  C     C_R   0.235716 0.986041 0.582584 0.000000
C727  C     C_R   0.296976 0.948204 0.578262 0.000000
C728  C     C_R   0.336094 0.924907 0.594753 0.000000
C729  C     C_R   0.313396 0.939723 0.615314 0.000000
N243  N     N_R   0.343208 0.919742 0.633477 0.000000
H801  H     H_    0.353219 0.979408 0.706775 0.000000
H802  H     H_    0.357688 0.902811 0.707424 0.000000
H803  H     H_    0.390619 0.929596 0.685487 0.000000
H804  H     H_    0.289545 0.001961 0.678394 0.000000
H805  H     H_    0.350963 0.880309 0.668935 0.000000
H806  H     H_    0.276651 0.893468 0.671918 0.000000
H807  H     H_    0.166980 0.029008 0.607065 0.000000
H808  H     H_    0.204888 0.004165 0.569698 0.000000
H809  H     H_    0.314373 0.937022 0.561941 0.000000
H810  H     H_    0.383458 0.898904 0.591447 0.000000
C730  C     C_3   0.514055 0.624110 0.908599 0.000000
N244  N     N_3   0.539659 0.593578 0.928285 0.000000
C731  C     C_3   0.499474 0.630149 0.945913 0.000000
C732  C     C_R   0.534169 0.628686 0.965138 0.000000
N245  N     N_R   0.573514 0.574291 0.974697 0.000000
C733  C     C_R   0.606310 0.594366 0.986420 0.000000
C734  C     C_R   0.653706 0.559992 0.998754 0.000000
C735  C     C_R   0.682097 0.589732 0.009583 0.000000
C736  C     C_R   0.663599 0.652720 0.007053 0.000000
C737  C     C_R   0.613674 0.687094 0.995040 0.000000
C738  C     C_R   0.584675 0.657040 0.985474 0.000000
N246  N     N_R   0.536689 0.681814 0.972894 0.000000
H811  H     H_    0.528940 0.589741 0.895101 0.000000
H812  H     H_    0.463569 0.645317 0.909788 0.000000
H813  H     H_    0.530352 0.659136 0.905145 0.000000
H814  H     H_    0.582369 0.591394 0.930012 0.000000
H815  H     H_    0.475527 0.678975 0.941459 0.000000
H816  H     H_    0.466139 0.612678 0.949186 0.000000
H817  H     H_    0.663833 0.512713 0.001607 0.000000
H818  H     H_    0.719082 0.563584 0.019834 0.000000
H819  H     H_    0.687915 0.674948 0.014601 0.000000
H820  H     H_    0.600015 0.735238 0.991968 0.000000
C739  C     C_3   0.403923 0.450213 0.023160 0.000000
N247  N     N_3   0.434293 0.447962 0.002799 0.000000
C740  C     C_3   0.419541 0.511374 0.997360 0.000000
C741  C     C_R   0.433339 0.512472 0.974589 0.000000
N248  N     N_R   0.388579 0.528467 0.959639 0.000000
C742  C     C_R   0.421355 0.521614 0.941352 0.000000
C743  C     C_R   0.399709 0.536185 0.921231 0.000000
C744  C     C_R   0.441858 0.520131 0.904308 0.000000
C745  C     C_R   0.503822 0.493143 0.907911 0.000000
C746  C     C_R   0.524282 0.485633 0.928502 0.000000
C747  C     C_R   0.481967 0.500456 0.945129 0.000000
N249  N     N_R   0.491477 0.497422 0.966336 0.000000
H821  H     H_    0.422933 0.467313 0.035592 0.000000
H822  H     H_    0.357162 0.485596 0.023538 0.000000
H823  H     H_    0.406805 0.403975 0.026707 0.000000
H824  H     H_    0.417065 0.429353 0.991243 0.000000
H825  H     H_    0.370353 0.541742 0.999872 0.000000
H826  H     H_    0.446704 0.528389 0.006665 0.000000
H827  H     H_    0.351438 0.557639 0.918580 0.000000
H828  H     H_    0.426486 0.528542 0.888174 0.000000
H829  H     H_    0.536257 0.481055 0.894538 0.000000
H830  H     H_    0.572025 0.469817 0.931238 0.000000
C748  C     C_3   0.509937 0.673646 0.027879 0.000000
N250  N     N_3   0.515743 0.612944 0.023484 0.000000
C749  C     C_3   0.564741 0.567066 0.034748 0.000000
C750  C     C_R   0.561619 0.509703 0.031810 0.000000
N251  N     N_R   0.542059 0.488270 0.048826 0.000000
C751  C     C_R   0.543943 0.435453 0.040311 0.000000
C752  C     C_R   0.521324 0.398273 0.048869 0.000000
C753  C     C_R   0.530046 0.344470 0.037782 0.000000
C754  C     C_R   0.556084 0.332384 0.017299 0.000000
C755  C     C_R   0.569956 0.375850 0.007594 0.000000
C756  C     C_R   0.562680 0.427396 0.019422 0.000000
N252  N     N_R   0.568970 0.476985 0.012771 0.000000
H831  H     H_    0.471220 0.698936 0.039188 0.000000
H832  H     H_    0.552432 0.668755 0.034720 0.000000
H833  H     H_    0.497844 0.698782 0.012978 0.000000
H834  H     H_    0.516511 0.601831 0.007590 0.000000
H835  H     H_    0.609537 0.564464 0.032670 0.000000
H836  H     H_    0.556194 0.576211 0.051552 0.000000
H837  H     H_    0.492299 0.415132 0.062831 0.000000
H838  H     H_    0.513217 0.313836 0.044539 0.000000
H839  H     H_    0.561413 0.291280 0.008384 0.000000
H840  H     H_    0.586099 0.368931 0.991344 0.000000
C757  C     C_3   0.990496 0.393031 0.755276 0.000000
N253  N     N_3   0.009287 0.345757 0.771306 0.000000
C758  C     C_3   0.053249 0.351918 0.784753 0.000000
C759  C     C_R   0.026026 0.413589 0.795980 0.000000
N254  N     N_R   0.055390 0.451128 0.797572 0.000000
C760  C     C_R   0.015191 0.498867 0.809409 0.000000
C761  C     C_R   0.022593 0.548498 0.817109 0.000000
C762  C     C_R   0.982993 0.588042 0.831599 0.000000
C763  C     C_R   0.941579 0.572875 0.840109 0.000000
C764  C     C_R   0.939648 0.518332 0.834206 0.000000
C765  C     C_R   0.968946 0.488513 0.816183 0.000000
N255  N     N_R   0.971127 0.436256 0.807517 0.000000
H841  H     H_    0.948194 0.433468 0.761047 0.000000
H842  H     H_    0.025801 0.408328 0.752122 0.000000
H843  H     H_    0.981358 0.374071 0.740332 0.000000
H844  H     H_    0.030518 0.301931 0.763692 0.000000
H845  H     H_    0.066006 0.315800 0.796762 0.000000
H846  H     H_    0.094519 0.344662 0.775323 0.000000
H847  H     H_    0.059275 0.557654 0.813980 0.000000
H848  H     H_    0.989819 0.625132 0.838678 0.000000
H849  H     H_    0.917739 0.600697 0.853485 0.000000
H850  H     H_    0.917737 0.498617 0.843980 0.000000
C766  C     C_3   0.724915 0.445891 0.858762 0.000000
N256  N     N_3   0.782276 0.423328 0.869625 0.000000
C767  C     C_3   0.810588 0.462276 0.863494 0.000000
C768  C     C_R   0.877838 0.429474 0.865123 0.000000
N257  N     N_R   0.911045 0.412032 0.883409 0.000000
C769  C     C_R   0.963571 0.364719 0.875993 0.000000
C770  C     C_R   0.006666 0.319547 0.887588 0.000000
C771  C     C_R   0.054540 0.271066 0.876630 0.000000
C772  C     C_R   0.058624 0.269926 0.854499 0.000000
C773  C     C_R   0.013222 0.314837 0.843117 0.000000
C774  C     C_R   0.965082 0.360528 0.854479 0.000000
N258  N     N_R   0.911904 0.402170 0.847116 0.000000
H851  H     H_    0.695742 0.427032 0.866390 0.000000
H852  H     H_    0.700812 0.497467 0.859622 0.000000
H853  H     H_    0.732852 0.431488 0.841696 0.000000
H854  H     H_    0.810347 0.378154 0.864085 0.000000
H855  H     H_    0.801168 0.472555 0.846658 0.000000
H856  H     H_    0.790484 0.505420 0.872651 0.000000
H857  H     H_    0.000160 0.318710 0.904478 0.000000
H858  H     H_    0.089046 0.234144 0.885314 0.000000
H859  H     H_    0.096903 0.233079 0.846125 0.000000
H860  H     H_    0.014239 0.311897 0.825994 0.000000
C775  C     C_3   0.783558 0.630231 0.860217 0.000000
N259  N     N_3   0.764713 0.633791 0.838522 0.000000
C776  C     C_3   0.812404 0.581222 0.827945 0.000000
C777  C     C_R   0.789229 0.556730 0.811748 0.000000
N260  N     N_R   0.734554 0.594583 0.803104 0.000000
C778  C     C_R   0.718496 0.551903 0.795238 0.000000
C779  C     C_R   0.664219 0.563006 0.786470 0.000000
C780  C     C_R   0.655302 0.512060 0.780671 0.000000
C781  C     C_R   0.699451 0.451873 0.784253 0.000000
C782  C     C_R   0.753482 0.441484 0.793513 0.000000
C783  C     C_R   0.763006 0.492137 0.798515 0.000000
N261  N     N_R   0.810807 0.493061 0.808482 0.000000
H861  H     H_    0.760670 0.673013 0.869611 0.000000
H862  H     H_    0.775712 0.595176 0.868428 0.000000
H863  H     H_    0.830340 0.619770 0.859826 0.000000
H864  H     H_    0.763548 0.673304 0.831667 0.000000
H865  H     H_    0.844605 0.595611 0.820831 0.000000
H866  H     H_    0.828618 0.544813 0.839452 0.000000
H867  H     H_    0.628845 0.609816 0.784645 0.000000
H868  H     H_    0.613011 0.519187 0.773756 0.000000
H869  H     H_    0.691050 0.412690 0.780124 0.000000
H870  H     H_    0.785856 0.394961 0.797124 0.000000
C784  C     C_3   0.879038 0.915885 0.335985 0.000000
N262  N     N_3   0.815960 0.928119 0.339817 0.000000
C785  C     C_3   0.814872 0.888177 0.356776 0.000000
C786  C     C_R   0.751906 0.894353 0.360998 0.000000
N263  N     N_R   0.727074 0.907700 0.381787 0.000000
C787  C     C_R   0.671790 0.953923 0.378861 0.000000
C788  C     C_R   0.631412 0.991290 0.394317 0.000000
C789  C     C_R   0.572043 0.028169 0.388946 0.000000
C790  C     C_R   0.554958 0.024067 0.368550 0.000000
C791  C     C_R   0.598252 0.988758 0.353065 0.000000
C792  C     C_R   0.658611 0.958858 0.358104 0.000000
N264  N     N_R   0.708914 0.922163 0.345803 0.000000
H871  H     H_    0.881942 0.943133 0.322304 0.000000
H872  H     H_    0.896067 0.929410 0.350346 0.000000
H873  H     H_    0.908020 0.865853 0.331809 0.000000
H874  H     H_    0.804015 0.912966 0.325951 0.000000
H875  H     H_    0.848102 0.840205 0.352378 0.000000
H876  H     H_    0.828772 0.902903 0.371558 0.000000
H877  H     H_    0.647204 0.993130 0.409902 0.000000
H878  H     H_    0.537988 0.057640 0.400742 0.000000
H879  H     H_    0.507769 0.049437 0.364616 0.000000
H880  H     H_    0.583555 0.984522 0.337788 0.000000
C793  C     C_3   0.700715 0.746691 0.260212 0.000000
N265  N     N_3   0.659074 0.759819 0.278556 0.000000
C794  C     C_3   0.674570 0.792998 0.294841 0.000000
C795  C     C_R   0.625335 0.857801 0.299017 0.000000
N266  N     N_R   0.563676 0.874176 0.301547 0.000000
C796  C     C_R   0.539024 0.936361 0.303761 0.000000
C797  C     C_R   0.479229 0.977360 0.308466 0.000000
C798  C     C_R   0.463053 0.040100 0.307577 0.000000
C799  C     C_R   0.505047 0.059857 0.300358 0.000000
C800  C     C_R   0.565655 0.017404 0.296924 0.000000
C801  C     C_R   0.582085 0.956217 0.300755 0.000000
N267  N     N_R   0.638232 0.907969 0.300655 0.000000
H881  H     H_    0.687275 0.723607 0.247411 0.000000
H882  H     H_    0.698956 0.790438 0.254266 0.000000
H883  H     H_    0.747437 0.714172 0.264647 0.000000
H884  H     H_    0.671623 0.716096 0.284761 0.000000
H885  H     H_    0.684456 0.766338 0.309432 0.000000
H886  H     H_    0.716061 0.795300 0.289708 0.000000
H887  H     H_    0.446046 0.961670 0.313136 0.000000
H888  H     H_    0.417093 0.073639 0.311845 0.000000
H889  H     H_    0.490536 0.108830 0.297895 0.000000
H890  H     H_    0.598308 0.031443 0.290607 0.000000
C802  C     C_3   0.788259 0.743490 0.362480 0.000000
N268  N     N_3   0.825188 0.755643 0.346844 0.000000
C803  C     C_3   0.794490 0.763526 0.327389 0.000000
C804  C     C_R   0.824955 0.779175 0.310377 0.000000
N269  N     N_R   0.790515 0.834550 0.300800 0.000000
C805  C     C_R   0.803993 0.818905 0.279939 0.000000
C806  C     C_R   0.773540 0.853824 0.263090 0.000000
C807  C     C_R   0.787268 0.825575 0.242952 0.000000
C808  C     C_R   0.825892 0.762218 0.240409 0.000000
C809  C     C_R   0.852722 0.727053 0.257857 0.000000
C810  C     C_R   0.844714 0.757426 0.277355 0.000000
N270  N     N_R   0.862833 0.731427 0.296492 0.000000
H891  H     H_    0.764984 0.783842 0.373649 0.000000
H892  H     H_    0.754540 0.733862 0.354527 0.000000
H893  H     H_    0.817474 0.701321 0.370845 0.000000
H894  H     H_    0.865771 0.715525 0.344638 0.000000
H895  H     H_    0.795345 0.719779 0.321982 0.000000
H896  H     H_    0.748350 0.801738 0.329156 0.000000
H897  H     H_    0.738940 0.901452 0.265493 0.000000
H898  H     H_    0.764727 0.851976 0.229331 0.000000
H899  H     H_    0.833282 0.739701 0.224805 0.000000
H900  H     H_    0.879074 0.677181 0.256026 0.000000
C811  C     C_3   0.136251 0.973600 0.500377 0.000000
N271  N     N_3   0.176884 0.922179 0.486273 0.000000
C812  C     C_3   0.193440 0.862719 0.496304 0.000000
C813  C     C_R   0.194296 0.817636 0.479628 0.000000
N272  N     N_R   0.139238 0.826787 0.471649 0.000000
C814  C     C_R   0.151329 0.820489 0.450525 0.000000
C815  C     C_R   0.109804 0.839500 0.434726 0.000000
C816  C     C_R   0.131041 0.836963 0.413932 0.000000
C817  C     C_R   0.192954 0.813186 0.409328 0.000000
C818  C     C_R   0.233646 0.794100 0.425547 0.000000
C819  C     C_R   0.211827 0.799938 0.446211 0.000000
N273  N     N_R   0.241835 0.794475 0.464425 0.000000
H901  H     H_    0.118998 0.017309 0.491438 0.000000
H902  H     H_    0.096562 0.966820 0.506011 0.000000
H903  H     H_    0.161879 0.978348 0.513901 0.000000
H904  H     H_    0.216777 0.926914 0.484078 0.000000
H905  H     H_    0.239386 0.846750 0.502663 0.000000
H906  H     H_    0.159906 0.867101 0.509164 0.000000
H907  H     H_    0.061840 0.855821 0.438252 0.000000
H908  H     H_    0.099375 0.852294 0.401195 0.000000
H909  H     H_    0.209473 0.811096 0.393028 0.000000
H910  H     H_    0.280056 0.781254 0.422024 0.000000
C820  C     C_3   0.123755 0.708537 0.411013 0.000000
N274  N     N_3   0.096226 0.732036 0.432098 0.000000
C821  C     C_3   0.135130 0.689666 0.447558 0.000000
C822  C     C_R   0.099902 0.689690 0.466906 0.000000
N275  N     N_R   0.064975 0.741676 0.480036 0.000000
C823  C     C_R   0.035785 0.718209 0.492970 0.000000
C824  C     C_R   0.001901 0.741562 0.511499 0.000000
C825  C     C_R   0.968072 0.713630 0.519787 0.000000
C826  C     C_R   0.971474 0.660693 0.509887 0.000000
C827  C     C_R   0.014807 0.632249 0.493708 0.000000
C828  C     C_R   0.050017 0.659184 0.487138 0.000000
N276  N     N_R   0.094601 0.636634 0.472098 0.000000
H911  H     H_    0.099388 0.743649 0.399085 0.000000
H912  H     H_    0.171800 0.700204 0.410665 0.000000
H913  H     H_    0.120800 0.665054 0.406897 0.000000
H914  H     H_    0.053861 0.732686 0.432746 0.000000
H915  H     H_    0.152504 0.642271 0.440845 0.000000
H916  H     H_    0.172595 0.700892 0.451385 0.000000
H917  H     H_    0.000242 0.781269 0.519345 0.000000
H918  H     H_    0.937215 0.734706 0.533413 0.000000
H919  H     H_    0.941622 0.641223 0.515095 0.000000
H920  H     H_    0.016954 0.594196 0.484202 0.000000
C829  C     C_3   0.138188 0.637869 0.524340 0.000000
N277  N     N_3   0.110633 0.698687 0.534871 0.000000
C830  C     C_3   0.131215 0.740290 0.525835 0.000000
C831  C     C_R   0.084255 0.801728 0.531630 0.000000
N278  N     N_R   0.056771 0.844538 0.516467 0.000000
C832  C     C_R   0.014417 0.892717 0.527855 0.000000
C833  C     C_R   0.980976 0.952177 0.521078 0.000000
C834  C     C_R   0.942927 0.996691 0.535828 0.000000
C835  C     C_R   0.937606 0.980189 0.556515 0.000000
C836  C     C_R   0.970252 0.919294 0.562800 0.000000
C837  C     C_R   0.011840 0.876460 0.548489 0.000000
N279  N     N_R   0.056626 0.817881 0.551703 0.000000
H921  H     H_    0.175564 0.606008 0.533768 0.000000
H922  H     H_    0.104770 0.619296 0.523908 0.000000
H923  H     H_    0.152433 0.640148 0.507782 0.000000
H924  H     H_    0.128654 0.694197 0.549581 0.000000
H925  H     H_    0.173833 0.733547 0.533173 0.000000
H926  H     H_    0.134827 0.737014 0.508385 0.000000
H927  H     H_    0.987658 0.965427 0.505319 0.000000
H928  H     H_    0.917465 0.044543 0.531284 0.000000
H929  H     H_    0.908140 0.015863 0.567852 0.000000
H930  H     H_    0.961258 0.906553 0.578170 0.000000
C838  C     C_3   0.391685 0.134381 0.185568 0.000000
N280  N     N_3   0.391766 0.193886 0.182069 0.000000
C839  C     C_3   0.434256 0.195515 0.196824 0.000000
C840  C     C_R   0.436596 0.253659 0.197472 0.000000
N281  N     N_R   0.451659 0.277533 0.180065 0.000000
C841  C     C_R   0.457862 0.325755 0.188484 0.000000
C842  C     C_R   0.470094 0.368262 0.177636 0.000000
C843  C     C_R   0.462694 0.421232 0.188721 0.000000
C844  C     C_R   0.448391 0.428085 0.210399 0.000000
C845  C     C_R   0.442038 0.381531 0.221243 0.000000
C846  C     C_R   0.445924 0.330660 0.209923 0.000000
N282  N     N_R   0.432193 0.284738 0.216420 0.000000
H931  H     H_    0.371203 0.121994 0.172206 0.000000
H932  H     H_    0.438720 0.096848 0.186341 0.000000
H933  H     H_    0.365905 0.136463 0.200477 0.000000
H934  H     H_    0.349311 0.229561 0.186870 0.000000
H935  H     H_    0.416120 0.195113 0.212568 0.000000
H936  H     H_    0.480815 0.158683 0.192858 0.000000
H937  H     H_    0.476366 0.365181 0.160474 0.000000
H938  H     H_    0.462602 0.459479 0.180036 0.000000
H939  H     H_    0.441588 0.470337 0.218889 0.000000
H940  H     H_    0.430684 0.387426 0.237835 0.000000
C847  C     C_3   0.322056 0.483198 0.159038 0.000000
N283  N     N_3   0.352341 0.423317 0.168353 0.000000
C848  C     C_3   0.317808 0.388888 0.165601 0.000000
C849  C     C_R   0.326571 0.364655 0.143327 0.000000
N284  N     N_R   0.280924 0.388829 0.128749 0.000000
C850  C     C_R   0.312941 0.366113 0.110210 0.000000
C851  C     C_R   0.291848 0.376457 0.090022 0.000000
C852  C     C_R   0.332328 0.345094 0.073259 0.000000
C853  C     C_R   0.392192 0.304236 0.076715 0.000000
C854  C     C_R   0.412537 0.294834 0.097188 0.000000
C855  C     C_R   0.372627 0.327192 0.113692 0.000000
N285  N     N_R   0.382956 0.322797 0.134703 0.000000
H941  H     H_    0.276026 0.509425 0.166595 0.000000
H942  H     H_    0.347858 0.509839 0.162305 0.000000
H943  H     H_    0.320861 0.476030 0.141730 0.000000
H944  H     H_    0.351693 0.433127 0.184449 0.000000
H945  H     H_    0.333778 0.349128 0.176279 0.000000
H946  H     H_    0.269787 0.420731 0.169533 0.000000
H947  H     H_    0.245099 0.406635 0.087138 0.000000
H948  H     H_    0.316722 0.350163 0.057406 0.000000
H949  H     H_    0.422695 0.278507 0.063432 0.000000
H950  H     H_    0.457621 0.260449 0.100075 0.000000
C856  C     C_3   0.420170 0.144844 0.093095 0.000000
N286  N     N_3   0.382501 0.202525 0.104866 0.000000
C857  C     C_3   0.365959 0.192141 0.126333 0.000000
C858  C     C_R   0.420873 0.150110 0.136976 0.000000
N287  N     N_R   0.461658 0.169704 0.144381 0.000000
C859  C     C_R   0.507908 0.116299 0.150144 0.000000
C860  C     C_R   0.561687 0.108738 0.158463 0.000000
C861  C     C_R   0.604178 0.049010 0.162890 0.000000
C862  C     C_R   0.592635 0.998707 0.158410 0.000000
C863  C     C_R   0.537734 0.007802 0.150188 0.000000
C864  C     C_R   0.494777 0.067553 0.146831 0.000000
N288  N     N_R   0.438304 0.087322 0.139066 0.000000
H951  H     H_    0.411914 0.151894 0.075836 0.000000
H952  H     H_    0.468909 0.130595 0.095517 0.000000
H953  H     H_    0.408242 0.108388 0.098339 0.000000
H954  H     H_    0.343541 0.227022 0.096449 0.000000
H955  H     H_    0.343970 0.236804 0.135510 0.000000
H956  H     H_    0.334390 0.172095 0.126092 0.000000
H957  H     H_    0.570523 0.147985 0.161597 0.000000
H958  H     H_    0.647163 0.041314 0.169355 0.000000
H959  H     H_    0.627242 0.951902 0.161016 0.000000
H960  H     H_    0.531472 0.968840 0.144879 0.000000
C865  C     C_3   0.259882 0.618472 0.558692 0.000000
N289  N     N_3   0.258984 0.567246 0.569910 0.000000
C866  C     C_3   0.321282 0.519582 0.569445 0.000000
C867  C     C_R   0.326552 0.458269 0.563303 0.000000
N290  N     N_R   0.277750 0.445105 0.561873 0.000000
C868  C     C_R   0.305274 0.384607 0.556072 0.000000
C869  C     C_R   0.278245 0.349727 0.548795 0.000000
C870  C     C_R   0.315753 0.292413 0.539491 0.000000
C871  C     C_R   0.378119 0.266612 0.541979 0.000000
C872  C     C_R   0.402968 0.300377 0.551980 0.000000
C873  C     C_R   0.366573 0.362204 0.555280 0.000000
N291  N     N_R   0.382373 0.408356 0.558249 0.000000
H961  H     H_    0.264345 0.607909 0.541555 0.000000
H962  H     H_    0.216117 0.659274 0.561695 0.000000
H963  H     H_    0.297293 0.627926 0.564069 0.000000
H964  H     H_    0.233794 0.553026 0.560352 0.000000
H965  H     H_    0.346719 0.529571 0.556910 0.000000
H966  H     H_    0.340973 0.517936 0.585217 0.000000
H967  H     H_    0.229870 0.369613 0.547263 0.000000
H968  H     H_    0.296211 0.266630 0.531085 0.000000
H969  H     H_    0.407573 0.220164 0.535797 0.000000
H970  H     H_    0.448956 0.278998 0.556925 0.000000
C874  C     C_3   0.384487 0.295671 0.487732 0.000000
N292  N     N_3   0.426397 0.322963 0.489079 0.000000
C875  C     C_3   0.395398 0.385729 0.498406 0.000000
C876  C     C_R   0.440173 0.411201 0.499665 0.000000
N293  N     N_R   0.472804 0.408509 0.517509 0.000000
C877  C     C_R   0.519958 0.415931 0.509452 0.000000
C878  C     C_R   0.567353 0.415485 0.520532 0.000000
C879  C     C_R   0.609405 0.428767 0.509627 0.000000
C880  C     C_R   0.600799 0.445981 0.488533 0.000000
C881  C     C_R   0.549763 0.450825 0.478259 0.000000
C882  C     C_R   0.510795 0.432721 0.488801 0.000000
N294  N     N_R   0.459546 0.431119 0.481973 0.000000
H971  H     H_    0.398536 0.262327 0.473907 0.000000
H972  H     H_    0.387728 0.268168 0.501797 0.000000
H973  H     H_    0.336865 0.332047 0.486612 0.000000
H974  H     H_    0.443672 0.324918 0.473939 0.000000
H975  H     H_    0.358826 0.414857 0.488205 0.000000
H976  H     H_    0.376654 0.384529 0.514446 0.000000
H977  H     H_    0.571795 0.404831 0.537184 0.000000
H978  H     H_    0.648271 0.427207 0.517686 0.000000
H979  H     H_    0.633456 0.457318 0.480238 0.000000
H980  H     H_    0.540334 0.469159 0.462446 0.000000
C883  C     C_3   0.368336 0.540621 0.514126 0.000000
N295  N     N_3   0.424911 0.528464 0.523549 0.000000
C884  C     C_3   0.418628 0.577676 0.537301 0.000000
C885  C     C_R   0.435124 0.555058 0.558126 0.000000
N296  N     N_R   0.457836 0.493201 0.564183 0.000000
C886  C     C_R   0.463020 0.500428 0.585235 0.000000
C887  C     C_R   0.476099 0.456192 0.600315 0.000000
C888  C     C_R   0.479227 0.473330 0.621241 0.000000
C889  C     C_R   0.468748 0.533834 0.626544 0.000000
C890  C     C_R   0.450547 0.579210 0.611314 0.000000
C891  C     C_R   0.445367 0.561992 0.590872 0.000000
N297  N     N_R   0.422818 0.598938 0.574062 0.000000
H981  H     H_    0.375203 0.534283 0.496631 0.000000
H982  H     H_    0.353223 0.507924 0.521051 0.000000
H983  H     H_    0.333009 0.587357 0.517116 0.000000
H984  H     H_    0.453861 0.530690 0.511883 0.000000
H985  H     H_    0.451696 0.593202 0.531437 0.000000
H986  H     H_    0.372362 0.614875 0.539283 0.000000
H987  H     H_    0.482474 0.410021 0.595985 0.000000
H988  H     H_    0.490576 0.439223 0.633506 0.000000
H989  H     H_    0.472641 0.546168 0.642877 0.000000
H990  H     H_    0.441042 0.626314 0.615348 0.000000
C892  C     C_3   0.127551 0.313133 0.285223 0.000000
N298  N     N_3   0.157216 0.334070 0.269167 0.000000
C893  C     C_3   0.160090 0.302114 0.249022 0.000000
C894  C     C_R   0.106140 0.340164 0.236358 0.000000
N299  N     N_R   0.092926 0.399986 0.230941 0.000000
C895  C     C_R   0.045500 0.415450 0.218366 0.000000
C896  C     C_R   0.012402 0.471848 0.209189 0.000000
C897  C     C_R   0.967700 0.476565 0.195478 0.000000
C898  C     C_R   0.958280 0.424910 0.190949 0.000000
C899  C     C_R   0.992757 0.368663 0.200292 0.000000
C900  C     C_R   0.033817 0.366261 0.214995 0.000000
N300  N     N_R   0.069462 0.317749 0.226787 0.000000
H991  H     H_    0.083968 0.316878 0.279412 0.000000
H992  H     H_    0.158621 0.264597 0.289258 0.000000
H993  H     H_    0.117856 0.342663 0.299872 0.000000
H994  H     H_    0.201963 0.319037 0.273766 0.000000
H995  H     H_    0.201877 0.295113 0.239781 0.000000
H996  H     H_    0.162471 0.256362 0.252037 0.000000
H997  H     H_    0.021120 0.510819 0.212527 0.000000
H998  H     H_    0.939946 0.520576 0.188353 0.000000
H999  H     H_    0.921969 0.429314 0.180806 0.000000
H1000 H     H_    0.983911 0.329595 0.197531 0.000000
C901  C     C_3   0.962722 0.149823 0.172290 0.000000
N301  N     N_3   0.010008 0.165536 0.179276 0.000000
C902  C     C_3   0.006863 0.221547 0.169621 0.000000
C903  C     C_R   0.067815 0.219449 0.171728 0.000000
N302  N     N_R   0.090848 0.218088 0.191450 0.000000
C904  C     C_R   0.147388 0.209136 0.186804 0.000000
C905  C     C_R   0.186909 0.213950 0.200613 0.000000
C906  C     C_R   0.241157 0.208719 0.192511 0.000000
C907  C     C_R   0.253522 0.200798 0.170716 0.000000
C908  C     C_R   0.210474 0.202467 0.157049 0.000000
C909  C     C_R   0.158410 0.204412 0.165560 0.000000
N303  N     N_R   0.109140 0.212049 0.155090 0.000000
H1001 H     H_    0.979774 0.098623 0.172361 0.000000
H1002 H     H_    0.924583 0.168998 0.183949 0.000000
H1003 H     H_    0.946845 0.167733 0.156348 0.000000
H1004 H     H_    0.052729 0.128068 0.176031 0.000000
H1005 H     H_    0.994439 0.225557 0.152835 0.000000
H1006 H     H_    0.971082 0.262578 0.178257 0.000000
H1007 H     H_    0.176162 0.222960 0.217224 0.000000
H1008 H     H_    0.271573 0.214898 0.203218 0.000000
H1009 H     H_    0.292861 0.202672 0.163832 0.000000
H1010 H     H_    0.213822 0.212759 0.140760 0.000000
C910  C     C_3   0.152303 0.982328 0.224451 0.000000
N304  N     N_3   0.144211 0.042142 0.233094 0.000000
C911  C     C_3   0.177614 0.064847 0.219079 0.000000
C912  C     C_R   0.188215 0.113565 0.230131 0.000000
N305  N     N_R   0.135775 0.163051 0.238299 0.000000
C913  C     C_R   0.146201 0.160720 0.259171 0.000000
C914  C     C_R   0.103587 0.189200 0.275304 0.000000
C915  C     C_R   0.119346 0.172784 0.295991 0.000000
C916  C     C_R   0.176648 0.126115 0.299879 0.000000
C917  C     C_R   0.218814 0.097118 0.283244 0.000000
C918  C     C_R   0.204572 0.117874 0.262803 0.000000
N306  N     N_R   0.235728 0.091852 0.244015 0.000000
H1011 H     H_    0.121531 0.967842 0.233411 0.000000
H1012 H     H_    0.141047 0.986482 0.207372 0.000000
H1013 H     H_    0.199975 0.946416 0.226134 0.000000
H1014 H     H_    0.161626 0.035273 0.248275 0.000000
H1015 H     H_    0.222080 0.026214 0.215921 0.000000
H1016 H     H_    0.151803 0.083779 0.204556 0.000000
H1017 H     H_    0.058359 0.220798 0.271750 0.000000
H1018 H     H_    0.086042 0.194077 0.309001 0.000000
H1019 H     H_    0.187758 0.110393 0.315945 0.000000
H1020 H     H_    0.259423 0.056487 0.286674 0.000000
C919  C     C_3   0.284399 0.007088 0.963207 0.000000
N307  N     N_3   0.332366 0.943973 0.959339 0.000000
C920  C     C_3   0.320609 0.900615 0.972445 0.000000
C921  C     C_R   0.346306 0.839285 0.961165 0.000000
N308  N     N_R   0.307968 0.832975 0.946866 0.000000
C922  C     C_R   0.344861 0.806840 0.929648 0.000000
C923  C     C_R   0.328137 0.796110 0.909921 0.000000
C924  C     C_R   0.371622 0.777875 0.893403 0.000000
C925  C     C_R   0.429693 0.770914 0.897095 0.000000
C926  C     C_R   0.446284 0.778195 0.917469 0.000000
C927  C     C_R   0.403109 0.794988 0.933780 0.000000
N309  N     N_R   0.407508 0.809540 0.954405 0.000000
H1021 H     H_    0.302944 0.040507 0.959866 0.000000
H1022 H     H_    0.247362 0.016531 0.952114 0.000000
H1023 H     H_    0.267032 0.013924 0.980054 0.000000
H1024 H     H_    0.332122 0.932462 0.943273 0.000000
H1025 H     H_    0.336620 0.898958 0.988466 0.000000
H1026 H     H_    0.271967 0.916191 0.974277 0.000000
H1027 H     H_    0.281826 0.804905 0.907158 0.000000
H1028 H     H_    0.359899 0.770906 0.877446 0.000000
H1029 H     H_    0.462773 0.758809 0.883994 0.000000
H1030 H     H_    0.491108 0.772675 0.920058 0.000000
C928  C     C_3   0.398940 0.672083 0.982079 0.000000
N310  N     N_3   0.362232 0.651090 0.970044 0.000000
C929  C     C_3   0.328032 0.702647 0.957180 0.000000
C930  C     C_R   0.270328 0.704855 0.951457 0.000000
N311  N     N_R   0.254398 0.656889 0.952771 0.000000
C931  C     C_R   0.197353 0.684740 0.945992 0.000000
C932  C     C_R   0.154640 0.665275 0.949386 0.000000
C933  C     C_R   0.095847 0.704240 0.944361 0.000000
C934  C     C_R   0.081517 0.760496 0.934785 0.000000
C935  C     C_R   0.125463 0.780690 0.932513 0.000000
C936  C     C_R   0.181328 0.743928 0.940130 0.000000
N312  N     N_R   0.225244 0.759708 0.944726 0.000000
H1031 H     H_    0.437034 0.631295 0.988481 0.000000
H1032 H     H_    0.414813 0.699631 0.972176 0.000000
H1033 H     H_    0.371264 0.705550 0.994463 0.000000
H1034 H     H_    0.331979 0.645083 0.980518 0.000000
H1035 H     H_    0.315319 0.745575 0.966864 0.000000
H1036 H     H_    0.355320 0.699693 0.942500 0.000000
H1037 H     H_    0.166009 0.625390 0.958829 0.000000
H1038 H     H_    0.061447 0.690751 0.948592 0.000000
H1039 H     H_    0.035839 0.789791 0.929964 0.000000
H1040 H     H_    0.116610 0.822890 0.924679 0.000000
C937  C     C_3   0.943369 0.729690 0.451942 0.000000
N313  N     N_3   0.980583 0.662509 0.451544 0.000000
C938  C     C_3   0.011897 0.636503 0.431130 0.000000
C939  C     C_R   0.030468 0.568675 0.430969 0.000000
N314  N     N_R   0.070386 0.529847 0.445611 0.000000
C940  C     C_R   0.057348 0.481073 0.445322 0.000000
C941  C     C_R   0.078514 0.431401 0.458690 0.000000
C942  C     C_R   0.052816 0.390894 0.458006 0.000000
C943  C     C_R   0.004320 0.402728 0.445110 0.000000
C944  C     C_R   0.982702 0.453692 0.432181 0.000000
C945  C     C_R   0.012385 0.490317 0.431409 0.000000
N315  N     N_R   0.996000 0.544259 0.421083 0.000000
H1041 H     H_    0.912504 0.743288 0.438792 0.000000
H1042 H     H_    0.915307 0.744051 0.467045 0.000000
H1043 H     H_    0.971750 0.754328 0.451365 0.000000
H1044 H     H_    0.952704 0.641738 0.455273 0.000000
H1045 H     H_    0.981140 0.658148 0.418066 0.000000
H1046 H     H_    0.053363 0.642684 0.429270 0.000000
H1047 H     H_    0.112534 0.425226 0.470133 0.000000
H1048 H     H_    0.068257 0.351886 0.468477 0.000000
H1049 H     H_    0.981731 0.373234 0.445751 0.000000
H1050 H     H_    0.941083 0.466039 0.424338 0.000000
C946  C     C_3   0.596419 0.738538 0.327149 0.000000
N316  N     N_3   0.552713 0.713331 0.328498 0.000000
C947  C     C_3   0.556724 0.674036 0.310696 0.000000
C948  C     C_R   0.583940 0.691300 0.293243 0.000000
N317  N     N_R   0.545888 0.747153 0.284548 0.000000
C949  C     C_R   0.544619 0.728546 0.264305 0.000000
C950  C     C_R   0.500800 0.759707 0.249936 0.000000
C951  C     C_R   0.499064 0.727355 0.231768 0.000000
C952  C     C_R   0.538419 0.664373 0.228896 0.000000
C953  C     C_R   0.580679 0.633184 0.243953 0.000000
C954  C     C_R   0.585845 0.666761 0.261042 0.000000
N318  N     N_R   0.616917 0.643772 0.278928 0.000000
H1051 H     H_    0.581418 0.778379 0.317118 0.000000
H1052 H     H_    0.596162 0.757721 0.342762 0.000000
H1053 H     H_    0.643352 0.705891 0.322214 0.000000
H1054 H     H_    0.551340 0.693469 0.342726 0.000000
H1055 H     H_    0.581283 0.623818 0.313472 0.000000
H1056 H     H_    0.510520 0.682497 0.306338 0.000000
H1057 H     H_    0.466018 0.806639 0.253243 0.000000
H1058 H     H_    0.464455 0.750370 0.220343 0.000000
H1059 H     H_    0.533715 0.638657 0.215376 0.000000
H1060 H     H_    0.604032 0.583204 0.243146 0.000000
C955  C     C_3   0.110313 0.455060 0.321061 0.000000
N319  N     N_3   0.072824 0.507731 0.308324 0.000000
C956  C     C_3   0.067469 0.485448 0.287134 0.000000
C957  C     C_R   0.042443 0.539460 0.272699 0.000000
N320  N     N_R   0.996565 0.598217 0.279219 0.000000
C958  C     C_R   0.000093 0.633008 0.263272 0.000000
C959  C     C_R   0.979979 0.696289 0.263475 0.000000
C960  C     C_R   0.980410 0.723268 0.244236 0.000000
C961  C     C_R   0.997989 0.686498 0.225660 0.000000
C962  C     C_R   0.024759 0.622187 0.226689 0.000000
C963  C     C_R   0.034151 0.596520 0.246423 0.000000
N321  N     N_R   0.065331 0.536210 0.251974 0.000000
H1061 H     H_    0.118036 0.472691 0.336545 0.000000
H1062 H     H_    0.086736 0.426103 0.324155 0.000000
H1063 H     H_    0.154925 0.426063 0.312782 0.000000
H1064 H     H_    0.094719 0.535920 0.306737 0.000000
H1065 H     H_    0.112022 0.450991 0.280515 0.000000
H1066 H     H_    0.039294 0.460649 0.287957 0.000000
H1067 H     H_    0.963619 0.724313 0.278015 0.000000
H1068 H     H_    0.962413 0.773303 0.243495 0.000000
H1069 H     H_    0.992264 0.708010 0.210344 0.000000
H1070 H     H_    0.035360 0.594227 0.212289 0.000000
C964  C     C_3   0.962024 0.434059 0.315918 0.000000
N322  N     N_3   0.958124 0.495796 0.319343 0.000000
C965  C     C_3   0.955712 0.507567 0.342045 0.000000
C966  C     C_R   0.944726 0.573035 0.347330 0.000000
N323  N     N_R   0.947001 0.610779 0.331234 0.000000
C967  C     C_R   0.979121 0.636992 0.340201 0.000000
C968  C     C_R   0.004427 0.670330 0.330074 0.000000
C969  C     C_R   0.043988 0.684787 0.341383 0.000000
C970  C     C_R   0.056792 0.666020 0.362263 0.000000
C971  C     C_R   0.028011 0.635313 0.372565 0.000000
C972  C     C_R   0.988396 0.621956 0.361177 0.000000
N324  N     N_R   0.960678 0.586948 0.367032 0.000000
H1071 H     H_    0.919036 0.433746 0.321617 0.000000
H1072 H     H_    0.968736 0.421834 0.298609 0.000000
H1073 H     H_    0.000925 0.398886 0.324396 0.000000
H1074 H     H_    0.915856 0.526529 0.314183 0.000000
H1075 H     H_    0.920030 0.497368 0.348751 0.000000
H1076 H     H_    0.000103 0.475669 0.348455 0.000000
H1077 H     H_    0.996401 0.681933 0.313535 0.000000
H1078 H     H_    0.066507 0.709208 0.333738 0.000000
H1079 H     H_    0.089781 0.675455 0.370464 0.000000
H1080 H     H_    0.040393 0.618082 0.388286 0.000000
C973  C     C_3   0.816223 0.606969 0.348664 0.000000
N325  N     N_3   0.808842 0.572700 0.331037 0.000000
C974  C     C_3   0.766235 0.618751 0.317497 0.000000
C975  C     C_R   0.793156 0.609276 0.296362 0.000000
N326  N     N_R   0.848800 0.607857 0.291502 0.000000
C976  C     C_R   0.863668 0.576284 0.273081 0.000000
C977  C     C_R   0.921718 0.538240 0.268210 0.000000
C978  C     C_R   0.937124 0.495833 0.252069 0.000000
C979  C     C_R   0.891706 0.491641 0.241357 0.000000
C980  C     C_R   0.835832 0.514559 0.251565 0.000000
C981  C     C_R   0.820296 0.560347 0.266872 0.000000
N327  N     N_R   0.773767 0.580528 0.281493 0.000000
H1081 H     H_    0.843430 0.576003 0.360674 0.000000
H1082 H     H_    0.835917 0.636010 0.342232 0.000000
H1083 H     H_    0.774132 0.636344 0.357120 0.000000
H1084 H     H_    0.791829 0.542942 0.336620 0.000000
H1085 H     H_    0.729137 0.608155 0.314615 0.000000
H1086 H     H_    0.748195 0.666694 0.323903 0.000000
H1087 H     H_    0.950818 0.530880 0.280794 0.000000
H1088 H     H_    0.983005 0.460210 0.250843 0.000000
H1089 H     H_    0.902501 0.457958 0.228728 0.000000
H1090 H     H_    0.814174 0.485897 0.250924 0.000000
C982  C     C_3   0.373885 0.363800 0.611706 0.000000
N328  N     N_3   0.327300 0.343831 0.607670 0.000000
C983  C     C_3   0.268223 0.397410 0.610829 0.000000
C984  C     C_R   0.218969 0.383160 0.602851 0.000000
N329  N     N_R   0.183725 0.412999 0.585768 0.000000
C985  C     C_R   0.151685 0.380587 0.582873 0.000000
C986  C     C_R   0.122616 0.377196 0.564907 0.000000
C987  C     C_R   0.093218 0.340171 0.564718 0.000000
C988  C     C_R   0.096225 0.304331 0.582001 0.000000
C989  C     C_R   0.132734 0.301521 0.598634 0.000000
C990  C     C_R   0.162376 0.338402 0.598465 0.000000
N330  N     N_R   0.206811 0.336653 0.611155 0.000000
H1091 H     H_    0.384316 0.383188 0.597300 0.000000
H1092 H     H_    0.358067 0.400426 0.624518 0.000000
H1093 H     H_    0.416221 0.323208 0.616248 0.000000
H1094 H     H_    0.329643 0.313822 0.619724 0.000000
H1095 H     H_    0.259273 0.409923 0.628080 0.000000
H1096 H     H_    0.268572 0.436983 0.602233 0.000000
H1097 H     H_    0.127279 0.397589 0.550460 0.000000
H1098 H     H_    0.069351 0.337840 0.550801 0.000000
H1099 H     H_    0.073398 0.275042 0.581840 0.000000
H1100 H     H_    0.137326 0.269882 0.610821 0.000000
C991  C     C_3   0.363356 0.361164 0.665898 0.000000
N331  N     N_3   0.377723 0.300301 0.656293 0.000000
C992  C     C_3   0.366282 0.261735 0.671629 0.000000
C993  C     C_R   0.300567 0.287898 0.677717 0.000000
N332  N     N_R   0.257803 0.311898 0.662431 0.000000
C994  C     C_R   0.219006 0.367119 0.671794 0.000000
C995  C     C_R   0.174592 0.417722 0.662370 0.000000
C996  C     C_R   0.148723 0.473880 0.673880 0.000000
C997  C     C_R   0.170103 0.479281 0.693703 0.000000
C998  C     C_R   0.214429 0.427456 0.703026 0.000000
C999  C     C_R   0.235174 0.371038 0.692327 0.000000
N333  N     N_R   0.281988 0.316901 0.697622 0.000000
H1101 H     H_    0.359372 0.361230 0.683408 0.000000
H1102 H     H_    0.399959 0.374087 0.661335 0.000000
H1103 H     H_    0.319562 0.396581 0.660047 0.000000
H1104 H     H_    0.424400 0.278298 0.652462 0.000000
H1105 H     H_    0.382693 0.215476 0.664950 0.000000
H1106 H     H_    0.392482 0.257348 0.685764 0.000000
H1107 H     H_    0.161993 0.415066 0.646201 0.000000
H1108 H     H_    0.113867 0.514694 0.666886 0.000000
H1109 H     H_    0.151880 0.524256 0.701934 0.000000
H1110 H     H_    0.233287 0.431645 0.717946 0.000000
C1000 C     C_3   0.148547 0.466597 0.975707 0.000000
N334  N     N_3   0.191558 0.482650 0.964242 0.000000
C1001 C     C_3   0.159728 0.523782 0.947389 0.000000
C1002 C     C_R   0.203192 0.530628 0.931808 0.000000
N335  N     N_R   0.261258 0.518587 0.937775 0.000000
C1003 C     C_R   0.296455 0.477976 0.922107 0.000000
C1004 C     C_R   0.357264 0.436777 0.922488 0.000000
C1005 C     C_R   0.383147 0.394975 0.905366 0.000000
C1006 C     C_R   0.347682 0.392741 0.888856 0.000000
C1007 C     C_R   0.285577 0.431208 0.889554 0.000000
C1008 C     C_R   0.261309 0.473488 0.906383 0.000000
N336  N     N_R   0.202011 0.509419 0.911481 0.000000
H1111 H     H_    0.166819 0.447757 0.991372 0.000000
H1112 H     H_    0.103941 0.508272 0.978358 0.000000
H1113 H     H_    0.142113 0.430556 0.966424 0.000000
H1114 H     H_    0.223917 0.441257 0.956814 0.000000
H1115 H     H_    0.138852 0.499679 0.938296 0.000000
H1116 H     H_    0.123516 0.568239 0.953939 0.000000
H1117 H     H_    0.383746 0.434548 0.936108 0.000000
H1118 H     H_    0.431046 0.362469 0.905168 0.000000
H1119 H     H_    0.368278 0.358817 0.875862 0.000000
H1120 H     H_    0.257140 0.426367 0.877635 0.000000
C1009 C     C_3   0.097948 0.629469 0.998664 0.000000
N337  N     N_3   0.120784 0.661532 0.012960 0.000000
C1010 C     C_3   0.180825 0.654063 0.005745 0.000000
C1011 C     C_R   0.228021 0.589126 0.007709 0.000000
N338  N     N_R   0.231330 0.557131 0.026099 0.000000
C1012 C     C_R   0.255731 0.497775 0.018302 0.000000
C1013 C     C_R   0.264850 0.444749 0.028700 0.000000
C1014 C     C_R   0.291297 0.388681 0.016936 0.000000
C1015 C     C_R   0.312917 0.385796 0.996057 0.000000
C1016 C     C_R   0.305805 0.439360 0.986171 0.000000
C1017 C     C_R   0.274599 0.494842 0.997357 0.000000
N339  N     N_R   0.260232 0.552017 0.990302 0.000000
H1121 H     H_    0.134028 0.582946 0.993654 0.000000
H1122 H     H_    0.060788 0.623518 0.007122 0.000000
H1123 H     H_    0.078913 0.657780 0.984591 0.000000
H1124 H     H_    0.124163 0.642436 0.027883 0.000000
H1125 H     H_    0.180185 0.668778 0.989300 0.000000
H1126 H     H_    0.192240 0.683795 0.016004 0.000000
H1127 H     H_    0.249845 0.446915 0.045139 0.000000
H1128 H     H_    0.295943 0.346140 0.023919 0.000000
H1129 H     H_    0.334900 0.341438 0.987419 0.000000
H1130 H     H_    0.322392 0.437695 0.969940 0.000000
C1018 C     C_3   0.151346 0.623594 0.755205 0.000000
N340  N     N_3   0.156884 0.604892 0.777336 0.000000
C1019 C     C_3   0.101953 0.645091 0.789976 0.000000
C1020 C     C_R   0.052907 0.626177 0.786404 0.000000
N341  N     N_R   0.994436 0.669711 0.781186 0.000000
C1021 C     C_R   0.983956 0.638999 0.765045 0.000000
C1022 C     C_R   0.943520 0.665870 0.749199 0.000000
C1023 C     C_R   0.946788 0.629449 0.731517 0.000000
C1024 C     C_R   0.985113 0.566137 0.731199 0.000000
C1025 C     C_R   0.023546 0.539926 0.747736 0.000000
C1026 C     C_R   0.026619 0.578134 0.763605 0.000000
N342  N     N_R   0.070491 0.566552 0.777929 0.000000
H1131 H     H_    0.194277 0.593039 0.746157 0.000000
H1132 H     H_    0.113739 0.618169 0.747754 0.000000
H1133 H     H_    0.144282 0.672386 0.754158 0.000000
H1134 H     H_    0.191840 0.613425 0.783136 0.000000
H1135 H     H_    0.112352 0.641948 0.807104 0.000000
H1136 H     H_    0.087646 0.692446 0.784566 0.000000
H1137 H     H_    0.912290 0.714918 0.749764 0.000000
H1138 H     H_    0.916903 0.649718 0.718513 0.000000
H1139 H     H_    0.984707 0.536850 0.718014 0.000000
H1140 H     H_    0.050567 0.491538 0.747298 0.000000
C1027 C     C_3   0.863243 0.567134 0.752471 0.000000
N343  N     N_3   0.849786 0.630566 0.758777 0.000000
C1028 C     C_3   0.854902 0.633231 0.781715 0.000000
C1029 C     C_R   0.820422 0.698748 0.789687 0.000000
N344  N     N_R   0.840805 0.741949 0.783664 0.000000
C1030 C     C_R   0.789189 0.789566 0.778258 0.000000
C1031 C     C_R   0.783724 0.840007 0.767240 0.000000
C1032 C     C_R   0.726803 0.888518 0.766117 0.000000
C1033 C     C_R   0.677620 0.880776 0.773421 0.000000
C1034 C     C_R   0.683510 0.824390 0.780046 0.000000
C1035 C     C_R   0.740359 0.780139 0.783764 0.000000
N345  N     N_R   0.757346 0.723456 0.791776 0.000000
H1141 H     H_    0.864794 0.562625 0.734816 0.000000
H1142 H     H_    0.908024 0.535221 0.758507 0.000000
H1143 H     H_    0.828053 0.554585 0.759007 0.000000
H1144 H     H_    0.805216 0.660040 0.754886 0.000000
H1145 H     H_    0.833429 0.606406 0.788089 0.000000
H1146 H     H_    0.903035 0.612899 0.786202 0.000000
H1147 H     H_    0.822032 0.841628 0.759710 0.000000
H1148 H     H_    0.720225 0.931894 0.759346 0.000000
H1149 H     H_    0.634157 0.918081 0.772831 0.000000
H1150 H     H_    0.644324 0.816920 0.782370 0.000000
C1036 C     C_3   0.381083 0.020387 0.656636 0.000000
N346  N     N_3   0.404338 0.055389 0.644026 0.000000
C1037 C     C_3   0.366458 0.120465 0.648226 0.000000
C1038 C     C_R   0.381867 0.157202 0.632962 0.000000
N347  N     N_R   0.435050 0.129517 0.620783 0.000000
C1039 C     C_R   0.417388 0.156319 0.601913 0.000000
C1040 C     C_R   0.446038 0.131556 0.582735 0.000000
C1041 C     C_R   0.411297 0.141785 0.565189 0.000000
C1042 C     C_R   0.349602 0.180693 0.566991 0.000000
C1043 C     C_R   0.324401 0.216714 0.585304 0.000000
C1044 C     C_R   0.358092 0.200061 0.603204 0.000000
N348  N     N_R   0.335377 0.205346 0.623257 0.000000
H1151 H     H_    0.337690 0.026944 0.650260 0.000000
H1152 H     H_    0.414112 0.970478 0.655843 0.000000
H1153 H     H_    0.373001 0.036790 0.673403 0.000000
H1154 H     H_    0.448864 0.043586 0.647776 0.000000
H1155 H     H_    0.319881 0.129814 0.645408 0.000000
H1156 H     H_    0.370584 0.132272 0.664672 0.000000
H1157 H     H_    0.491861 0.097869 0.581897 0.000000
H1158 H     H_    0.431722 0.117443 0.550215 0.000000
H1159 H     H_    0.321586 0.184721 0.553631 0.000000
H1160 H     H_    0.276843 0.248715 0.585987 0.000000
C1045 C     C_3   0.394274 0.007260 0.567387 0.000000
N349  N     N_3   0.436085 0.965794 0.582429 0.000000
C1046 C     C_3   0.422751 0.996120 0.603416 0.000000
C1047 C     C_R   0.474782 0.960378 0.617131 0.000000
N350  N     N_R   0.486824 0.902382 0.624370 0.000000
C1048 C     C_R   0.548017 0.874105 0.624634 0.000000
C1049 C     C_R   0.584781 0.810835 0.625480 0.000000
C1050 C     C_R   0.645137 0.787958 0.618674 0.000000
C1051 C     C_R   0.667643 0.828447 0.611897 0.000000
C1052 C     C_R   0.630423 0.892059 0.612156 0.000000
C1053 C     C_R   0.570666 0.914630 0.619345 0.000000
N351  N     N_R   0.524542 0.971849 0.616414 0.000000
H1161 H     H_    0.383007 0.979569 0.555655 0.000000
H1162 H     H_    0.352083 0.041943 0.575807 0.000000
H1163 H     H_    0.416834 0.030663 0.558452 0.000000
H1164 H     H_    0.479663 0.958772 0.577641 0.000000
H1165 H     H_    0.417740 0.043580 0.601803 0.000000
H1166 H     H_    0.380396 0.998625 0.610534 0.000000
H1167 H     H_    0.565311 0.779245 0.628381 0.000000
H1168 H     H_    0.674285 0.738263 0.617944 0.000000
H1169 H     H_    0.714246 0.810064 0.605795 0.000000
H1170 H     H_    0.647045 0.921343 0.604632 0.000000
C1054 C     C_3   0.717931 0.700787 0.416663 0.000000
N352  N     N_3   0.756992 0.652193 0.401611 0.000000
C1055 C     C_3   0.770499 0.594092 0.411157 0.000000
C1056 C     C_R   0.813691 0.543613 0.397614 0.000000
N353  N     N_R   0.799641 0.498579 0.388462 0.000000
C1057 C     C_R   0.856624 0.455981 0.381587 0.000000
C1058 C     C_R   0.874186 0.399546 0.371306 0.000000
C1059 C     C_R   0.935498 0.361170 0.366965 0.000000
C1060 C     C_R   0.978973 0.379490 0.372864 0.000000
C1061 C     C_R   0.961226 0.437066 0.382774 0.000000
C1062 C     C_R   0.899886 0.474800 0.386546 0.000000
N354  N     N_R   0.874277 0.532285 0.395609 0.000000
H1171 H     H_    0.671090 0.711940 0.413515 0.000000
H1172 H     H_    0.727199 0.687238 0.433408 0.000000
H1173 H     H_    0.721718 0.743275 0.413585 0.000000
H1174 H     H_    0.796773 0.654462 0.397820 0.000000
H1175 H     H_    0.788949 0.590378 0.427185 0.000000
H1176 H     H_    0.729769 0.588961 0.411725 0.000000
H1177 H     H_    0.841859 0.383282 0.368087 0.000000
H1178 H     H_    0.949635 0.315936 0.359290 0.000000
H1179 H     H_    0.026764 0.349032 0.369474 0.000000
H1180 H     H_    0.994608 0.452581 0.386913 0.000000
C1063 C     C_3   0.502947 0.583875 0.348891 0.000000
N355  N     N_3   0.538956 0.568822 0.367874 0.000000
C1064 C     C_3   0.528628 0.626366 0.379108 0.000000
C1065 C     C_R   0.583595 0.623582 0.389652 0.000000
N356  N     N_R   0.630559 0.567198 0.395808 0.000000
C1066 C     C_R   0.636759 0.580619 0.415904 0.000000
C1067 C     C_R   0.672398 0.538676 0.430442 0.000000
C1068 C     C_R   0.681021 0.561958 0.449580 0.000000
C1069 C     C_R   0.657663 0.625759 0.452903 0.000000
C1070 C     C_R   0.622793 0.666393 0.437710 0.000000
C1071 C     C_R   0.608693 0.643488 0.419644 0.000000
N357  N     N_R   0.573766 0.674101 0.402977 0.000000
H1181 H     H_    0.514044 0.540613 0.339405 0.000000
H1182 H     H_    0.453806 0.606685 0.353536 0.000000
H1183 H     H_    0.513528 0.614825 0.338652 0.000000
H1184 H     H_    0.584477 0.541999 0.363252 0.000000
H1185 H     H_    0.511997 0.665242 0.368347 0.000000
H1186 H     H_    0.492685 0.636929 0.391739 0.000000
H1187 H     H_    0.694007 0.489157 0.426883 0.000000
H1188 H     H_    0.708902 0.530572 0.461373 0.000000
H1189 H     H_    0.668159 0.643978 0.467218 0.000000
H1190 H     H_    0.609967 0.714728 0.439460 0.000000
C1072 C     C_3   0.410431 0.005791 0.368806 0.000000
N358  N     N_3   0.417162 0.944730 0.362265 0.000000
C1073 C     C_3   0.481768 0.902154 0.359552 0.000000
C1074 C     C_R   0.489131 0.839290 0.352607 0.000000
N359  N     N_R   0.479550 0.802700 0.367772 0.000000
C1075 C     C_R   0.441628 0.785392 0.357493 0.000000
C1076 C     C_R   0.404951 0.761010 0.365748 0.000000
C1077 C     C_R   0.367497 0.750300 0.351816 0.000000
C1078 C     C_R   0.373616 0.755137 0.330012 0.000000
C1079 C     C_R   0.411411 0.778717 0.322070 0.000000
C1080 C     C_R   0.438669 0.800542 0.336519 0.000000
N360  N     N_R   0.471184 0.831926 0.332355 0.000000
H1191 H     H_    0.361765 0.036865 0.372990 0.000000
H1192 H     H_    0.437645 0.002080 0.382978 0.000000
H1193 H     H_    0.425395 0.026020 0.355466 0.000000
H1194 H     H_    0.397530 0.949160 0.347469 0.000000
H1195 H     H_    0.501667 0.921246 0.347496 0.000000
H1196 H     H_    0.503462 0.898314 0.374959 0.000000
H1197 H     H_    0.403067 0.753278 0.382556 0.000000
H1198 H     H_    0.333424 0.737182 0.357641 0.000000
H1199 H     H_    0.347001 0.742655 0.319289 0.000000
H1200 H     H_    0.416182 0.783430 0.305108 0.000000

loop_
_geom_bond_atom_site_label_1
_geom_bond_atom_site_label_2
_geom_bond_distance
_geom_bond_site_symmetry_2
_ccdc_geom_bond_type
Zn1   N2    2.137 .      S
Zn1   N6    2.120 .      S
Zn1   N8    2.180 .      S
Zn1   N294  2.063 .      S
Zn2   N21   2.140 .      S
Zn2   N23   2.068 .      S
Zn2   N254  2.017 .      S
Zn2   N342  2.192 .      S
Zn3   N11   2.140 .      S
Zn3   N15   2.095 .      S
Zn3   N260  2.145 .      S
Zn3   N345  2.137 .      S
Zn4   N14   2.166 .      S
Zn4   N17   2.235 .      S
Zn4   N29   2.153 .      S
Zn4   N66   2.106 .      S
Zn5   N20   2.088 .      S
Zn5   N42   2.058 .      S
Zn5   N74   2.056 .      S
Zn5   N336  2.056 .      S
Zn6   N24   2.026 .      S
Zn6   N27   2.100 .      S
Zn6   N62   2.096 .      S
Zn6   N333  2.193 .      S
Zn7   N3    2.081 .      S
Zn7   N125  2.145 .      S
Zn7   N179  2.174 .      S
Zn7   N219  2.064 .      S
Zn8   N86   2.163 .      S
Zn8   N93   2.118 .      S
Zn8   N104  2.110 .      S
Zn8   N284  2.141 .      S
Zn9   N18   2.227 .      S
Zn9   N111  2.104 .      S
Zn9   N243  2.114 .      S
Zn9   N350  2.053 .      S
Zn10  N26   2.118 .      S
Zn10  N30   2.125 1_545  S
Zn10  N170  2.058 .      S
Zn10  N236  2.087 .      S
Zn11  N33   2.144 .      S
Zn11  N35   2.234 .      S
Zn11  N189  2.017 .      S
Zn11  N263  2.122 .      S
Zn12  N38   2.179 .      S
Zn12  N41   2.253 1_655  S
Zn12  N119  2.042 .      S
Zn12  N257  2.061 .      S
Zn13  N44   2.148 .      S
Zn13  N48   2.129 .      S
Zn13  N128  2.139 .      S
Zn13  N282  2.098 .      S
Zn14  N50   2.079 .      S
Zn14  N53   2.198 .      S
Zn14  N56   2.092 .      S
Zn14  N191  2.089 .      S
Zn15  N59   2.103 .      S
Zn15  N63   2.120 .      S
Zn15  N65   2.034 1_545  S
Zn15  N234  2.130 .      S
Zn16  N68   2.049 .      S
Zn16  N72   2.191 .      S
Zn16  N75   2.099 .      S
Zn16  N228  2.081 .      S
Zn17  N78   2.133 .      S
Zn17  N81   2.218 .      S
Zn17  N152  2.154 .      S
Zn17  N251  2.119 .      S
Zn18  N83   2.153 .      S
Zn18  N96   2.175 .      S
Zn18  N290  2.050 .      S
Zn18  N329  2.105 .      S
Zn19  N45   2.118 .      S
Zn19  N87   2.147 .      S
Zn19  N299  2.018 .      S
Zn19  N321  2.137 .      S
Zn20  N12   2.167 .      S
Zn20  N39   2.179 .      S
Zn20  N71   2.112 .      S
Zn20  N90   2.139 .      S
Zn21  N54   2.186 .      S
Zn21  N77   2.114 .      S
Zn21  N92   2.030 .      S
Zn21  N338  2.147 .      S
Zn22  N95   2.158 .      S
Zn22  N99   2.048 .      S
Zn22  N143  2.080 .      S
Zn22  N279  2.117 .      S
Zn23  N101  2.090 .      S
Zn23  N105  2.060 .      S
Zn23  N194  2.055 .      S
Zn23  N303  2.041 .      S
Zn24  N47   2.100 .      S
Zn24  N107  2.046 1_545  S
Zn24  N212  2.144 .      S
Zn24  N306  2.201 .      S
Zn25  N98   2.065 .      S
Zn25  N110  2.111 .      S
Zn25  N209  2.120 .      S
Zn25  N297  2.171 .      S
Zn26  N113  2.248 1_556  S
Zn26  N117  2.143 .      S
Zn26  N120  2.080 .      S
Zn26  N123  2.231 .      S
Zn27  N126  2.204 .      S
Zn27  N129  2.171 .      S
Zn27  N132  2.057 .      S
Zn27  N135  2.118 .      S
Zn28  N138  2.179 .      S
Zn28  N140  2.137 .      S
Zn28  N144  2.072 1_545  S
Zn28  N146  2.172 .      S
Zn29  N150  2.144 .      S
Zn29  N153  2.132 .      S
Zn29  N156  2.121 .      S
Zn29  N158  2.099 .      S
Zn30  N162  2.178 .      S
Zn30  N164  2.133 .      S
Zn30  N167  2.133 .      S
Zn30  N171  2.057 1_655  S
Zn31  N134  2.104 .      S
Zn31  N155  2.145 .      S
Zn31  N173  2.090 .      S
Zn31  N176  2.054 .      S
Zn32  N180  2.099 .      S
Zn32  N182  2.175 .      S
Zn32  N186  2.155 1_545  S
Zn32  N188  2.004 1_545  S
Zn33  N114  2.186 .      S
Zn33  N149  2.194 .      S
Zn33  N192  2.117 .      S
Zn33  N195  2.085 .      S
Zn34  N137  2.134 .      S
Zn34  N183  2.147 .      S
Zn34  N198  2.129 .      S
Zn34  N201  2.070 .      S
Zn35  N57   2.133 .      S
Zn35  N80   2.169 .      S
Zn35  N203  2.142 .      S
Zn35  N215  2.104 .      S
Zn36  N5    2.121 .      S
Zn36  N206  2.050 .      S
Zn36  N210  2.208 .      S
Zn36  N273  2.134 .      S
Zn37  N102  2.078 .      S
Zn37  N213  2.106 .      S
Zn37  N216  2.101 1_545  S
Zn37  N288  2.121 .      S
Zn38  N218  2.062 .      S
Zn38  N222  2.076 .      S
Zn38  N353  2.250 .      S
Zn38  N356  2.161 .      S
Zn39  N177  2.060 .      S
Zn39  N221  2.147 .      S
Zn39  N318  2.150 .      S
Zn39  N327  2.099 .      S
Zn40  N116  2.140 .      S
Zn40  N161  2.184 .      S
Zn40  N224  2.056 1_645  S
Zn40  N227  2.115 1_545  S
Zn41  N147  2.200 .      S
Zn41  N165  2.165 .      S
Zn41  N230  2.101 1_545  S
Zn41  N233  2.141 .      S
Zn42  N141  2.129 .      S
Zn42  N237  2.024 .      S
Zn42  N239  2.072 .      S
Zn42  N242  2.149 1_545  S
Zn43  N122  2.153 .      S
Zn43  N245  2.090 .      S
Zn43  N249  2.160 .      S
Zn43  N252  2.067 1_556  S
Zn44  N168  2.056 .      S
Zn44  N255  2.104 .      S
Zn44  N258  1.967 .      S
Zn44  N261  2.202 .      S
Zn45  N131  2.104 .      S
Zn45  N264  2.112 .      S
Zn45  N267  2.106 .      S
Zn45  N269  2.089 .      S
Zn46  N185  2.180 1_455  S
Zn46  N272  2.071 .      S
Zn46  N275  2.122 .      S
Zn46  N278  2.013 .      S
Zn47  N159  2.085 .      S
Zn47  N281  1.998 .      S
Zn47  N285  2.107 .      S
Zn47  N287  2.047 .      S
Zn48  N197  2.176 .      S
Zn48  N291  2.087 .      S
Zn48  N293  2.041 .      S
Zn48  N296  2.172 .      S
Zn49  N174  2.145 1_455  S
Zn49  N300  2.065 .      S
Zn49  N302  1.979 .      S
Zn49  N305  2.113 .      S
Zn50  N51   2.026 .      S
Zn50  N225  2.094 .      S
Zn50  N308  2.071 .      S
Zn50  N312  2.034 .      S
Zn51  N9    2.193 .      S
Zn51  N84   2.219 .      S
Zn51  N276  2.089 .      S
Zn51  N314  2.114 .      S
Zn52  N108  2.084 .      S
Zn52  N266  2.068 .      S
Zn52  N317  2.155 .      S
Zn52  N360  2.144 .      S
Zn53  N270  2.110 .      S
Zn53  N320  2.176 .      S
Zn53  N323  2.101 .      S
Zn53  N326  2.102 .      S
Zn54  N240  2.092 .      S
Zn54  N330  2.109 .      S
Zn54  N332  2.101 .      S
Zn54  N348  2.057 .      S
Zn55  N248  2.140 .      S
Zn55  N311  2.081 .      S
Zn55  N335  2.121 .      S
Zn55  N339  2.071 .      S
Zn56  N69   2.116 .      S
Zn56  N231  2.121 .      S
Zn56  N341  2.151 .      S
Zn56  N344  2.131 .      S
Zn57  N89   2.097 .      S
Zn57  N204  2.144 1_556  S
Zn57  N246  2.110 .      S
Zn57  N309  2.150 .      S
Zn58  N60   2.077 .      S
Zn58  N200  2.005 .      S
Zn58  N347  2.066 .      S
Zn58  N351  2.081 1_545  S
Zn59  N32   2.104 .      S
Zn59  N315  2.119 .      S
Zn59  N324  2.149 .      S
Zn59  N354  2.167 .      S
Zn60  N36   2.149 .      S
Zn60  N207  2.082 .      S
Zn60  N357  2.221 .      S
Zn60  N359  2.153 .      S
C1    N1    1.447 .      S
C1    H1    1.106 .      S
C1    H2    1.107 .      S
C1    H3    1.102 .      S
N1    C2    1.455 .      S
N1    H4    1.045 .      S
C2    C3    1.464 .      S
C2    H5    1.099 .      S
C2    H6    1.081 .      S
C5    H7    1.076 .      S
C6    H8    1.081 .      S
C7    H9    1.081 .      S
C8    H10   1.080 .      S
C10   N4    1.451 .      S
C10   H11   1.104 .      S
C10   H12   1.106 .      S
C10   H13   1.109 .      S
N4    C11   1.453 .      S
N4    H14   1.044 .      S
C11   C12   1.458 .      S
C11   H15   1.061 .      S
C11   H16   1.097 .      S
C14   H17   1.069 .      S
C15   H18   1.063 .      S
C16   H19   1.081 .      S
C17   H20   1.070 .      S
C19   N7    1.453 .      S
C19   H21   1.108 .      S
C19   H22   1.109 .      S
C19   H23   1.109 .      S
N7    C20   1.459 .      S
N7    H24   1.043 .      S
C20   C21   1.473 .      S
C20   H25   1.084 .      S
C20   H26   1.102 .      S
C23   H27   1.075 .      S
C24   H28   1.081 .      S
C25   H29   1.081 .      S
C26   H30   1.064 .      S
C28   N10   1.454 .      S
C28   H31   1.108 .      S
C28   H32   1.108 .      S
C28   H33   1.108 .      S
N10   C29   1.457 .      S
N10   H34   1.044 .      S
C29   C30   1.496 .      S
C29   H35   1.096 .      S
C29   H36   1.106 .      S
C32   H37   1.064 .      S
C33   H38   1.079 .      S
C34   H39   1.081 .      S
C35   H40   1.058 .      S
C37   N13   1.454 .      S
C37   H41   1.109 .      S
C37   H42   1.108 .      S
C37   H43   1.108 .      S
N13   C38   1.448 .      S
N13   H44   1.034 .      S
C38   C39   1.504 .      S
C38   H45   1.105 .      S
C38   H46   1.108 .      S
C41   H47   1.061 .      S
C42   H48   1.081 .      S
C43   H49   1.081 .      S
C44   H50   1.074 .      S
C46   N16   1.456 .      S
C46   H51   1.105 .      S
C46   H52   1.108 .      S
C46   H53   1.101 .      S
N16   C47   1.447 .      S
N16   H54   1.034 .      S
C47   C48   1.499 .      S
C47   H55   1.101 .      S
C47   H56   1.098 .      S
C50   H57   1.067 .      S
C51   H58   1.081 .      S
C52   H59   1.081 .      S
C53   H60   1.068 .      S
C55   N19   1.446 .      S
C55   H61   1.109 .      S
C55   H62   1.105 .      S
C55   H63   1.108 .      S
N19   C56   1.453 .      S
N19   H64   1.044 .      S
C56   C57   1.478 .      S
C56   H65   1.108 .      S
C56   H66   1.101 .      S
C59   H67   1.074 .      S
C60   H68   1.081 .      S
C61   H69   1.081 .      S
C62   H70   1.078 .      S
C64   N22   1.463 .      S
C64   H71   1.102 .      S
C64   H72   1.101 .      S
C64   H73   1.108 .      S
N22   C65   1.452 .      S
N22   H74   1.033 .      S
C65   C66   1.471 .      S
C65   H75   1.100 .      S
C65   H76   1.095 .      S
C68   H77   1.066 .      S
C69   H78   1.081 .      S
C70   H79   1.081 .      S
C71   H80   1.068 .      S
C73   N25   1.454 .      S
C73   H81   1.105 .      S
C73   H82   1.109 .      S
C73   H83   1.109 .      S
N25   C74   1.443 .      S
N25   H84   1.040 .      S
C74   C75   1.484 .      S
C74   H85   1.108 .      S
C74   H86   1.103 .      S
C77   H87   1.055 .      S
C78   H88   1.074 .      S
C79   H89   1.065 .      S
C80   H90   1.060 .      S
C82   N28   1.459 .      S
C82   H91   1.109 .      S
C82   H92   1.106 1_545  S
C82   H93   1.094 1_545  S
N28   C83   1.455 .      S
N28   H94   1.036 .      S
C83   C84   1.463 1_545  S
C83   H95   1.089 .      S
C83   H96   1.073 1_545  S
C84   C83   1.463 1_565  S
C86   H97   1.076 .      S
C87   H98   1.081 .      S
C88   H99   1.080 .      S
C89   H100  1.080 .      S
N30   Zn10  2.125 1_565  S
H92   C82   1.106 1_565  S
H93   C82   1.094 1_565  S
H96   C83   1.073 1_565  S
C91   N31   1.452 .      S
C91   H101  1.105 1_655  S
C91   H102  1.106 .      S
C91   H103  1.101 .      S
N31   C92   1.451 .      S
N31   H104  1.041 .      S
C92   C93   1.481 .      S
C92   H105  1.090 .      S
C92   H106  1.092 .      S
C95   H107  1.079 .      S
C96   H108  1.081 .      S
C97   H109  1.081 .      S
C98   H110  1.065 .      S
H101  C91   1.105 1_455  S
C100  N34   1.436 .      S
C100  H111  1.082 .      S
C100  H112  1.090 .      S
C100  H113  1.085 .      S
N34   C101  1.434 .      S
N34   H114  1.041 .      S
C101  C102  1.438 .      S
C101  H115  1.098 .      S
C101  H116  1.088 .      S
C104  H117  1.062 .      S
C105  H118  1.081 1_565  S
C106  H119  1.081 .      S
C107  H120  1.064 .      S
H118  C105  1.081 1_545  S
C109  N37   1.455 .      S
C109  H121  1.110 .      S
C109  H122  1.109 .      S
C109  H123  1.109 .      S
N37   C110  1.462 .      S
N37   H124  1.039 .      S
C110  C111  1.495 .      S
C110  H125  1.090 .      S
C110  H126  1.108 .      S
C113  H127  1.057 .      S
C114  H128  1.081 .      S
C115  H129  1.074 .      S
C116  H130  1.071 .      S
C118  N40   1.412 .      S
C118  H131  1.094 .      S
C118  H132  1.086 .      S
C118  H133  1.104 .      S
N40   C119  1.405 .      S
N40   H134  1.038 .      S
C119  C120  1.439 1_655  S
C119  H135  1.104 1_655  S
C119  H136  1.100 .      S
C120  C119  1.439 1_455  S
N41   Zn12  2.253 1_455  S
C122  H137  1.065 .      S
C123  H138  1.081 .      S
C124  H139  1.081 .      S
C125  H140  1.080 .      S
H135  C119  1.104 1_455  S
C127  N43   1.449 .      S
C127  H141  1.094 .      S
C127  H142  1.101 .      S
C127  H143  1.109 .      S
N43   C128  1.458 .      S
N43   H144  1.036 .      S
C128  C129  1.455 .      S
C128  H145  1.098 .      S
C128  H146  1.102 .      S
C131  H147  1.074 .      S
C132  H148  1.081 .      S
C133  H149  1.081 .      S
C134  H150  1.076 .      S
C136  N46   1.455 .      S
C136  H151  1.108 1_545  S
C136  H152  1.103 1_545  S
C136  H153  1.101 .      S
N46   C137  1.445 .      S
N46   H154  1.041 .      S
C137  C138  1.497 .      S
C137  H155  1.086 .      S
C137  H156  1.106 .      S
C140  H157  1.069 .      S
C141  H158  1.081 .      S
C142  H159  1.081 .      S
C143  H160  1.066 .      S
H151  C136  1.108 1_565  S
H152  C136  1.103 1_565  S
C145  N49   1.451 1_556  S
C145  H161  1.109 .      S
C145  H162  1.097 .      S
C145  H163  1.101 .      S
N49   C145  1.451 1_554  S
N49   C146  1.456 1_554  S
N49   H164  1.037 .      S
C146  N49   1.456 1_556  S
C146  C147  1.466 .      S
C146  H165  1.099 1_556  S
C146  H166  1.099 .      S
C149  H167  1.052 .      S
C150  H168  1.081 1_556  S
C151  H169  1.075 .      S
C152  H170  1.067 .      S
H165  C146  1.099 1_554  S
H168  C150  1.081 1_554  S
C154  N52   1.461 .      S
C154  H171  1.107 .      S
C154  H172  1.099 .      S
C154  H173  1.102 .      S
N52   C155  1.460 .      S
N52   H174  1.038 .      S
C155  C156  1.467 .      S
C155  H175  1.076 .      S
C155  H176  1.074 .      S
C158  H177  1.074 .      S
C159  H178  1.081 .      S
C160  H179  1.081 1_455  S
C161  H180  1.073 .      S
H179  C160  1.081 1_655  S
C163  N55   1.438 .      S
C163  H181  1.099 .      S
C163  H182  1.094 .      S
C163  H183  1.097 .      S
N55   C164  1.437 .      S
N55   H184  1.037 .      S
C164  C165  1.467 .      S
C164  H185  1.084 .      S
C164  H186  1.084 .      S
C167  H187  1.081 .      S
C168  H188  1.081 .      S
C169  H189  1.080 .      S
C170  H190  1.069 .      S
C172  N58   1.440 .      S
C172  H191  1.106 .      S
C172  H192  1.089 .      S
C172  H193  1.092 .      S
N58   C173  1.451 .      S
N58   H194  1.042 .      S
C173  C174  1.438 .      S
C173  H195  1.086 .      S
C173  H196  1.085 .      S
C176  H197  1.044 .      S
C177  H198  1.079 .      S
C178  H199  1.072 .      S
C179  H200  1.064 .      S
C181  N61   1.452 .      S
C181  H201  1.109 .      S
C181  H202  1.106 .      S
C181  H203  1.104 .      S
N61   C182  1.458 .      S
N61   H204  1.038 .      S
C182  C183  1.482 .      S
C182  H205  1.091 .      S
C182  H206  1.094 .      S
C185  H207  1.081 .      S
C186  H208  1.081 .      S
C187  H209  1.080 .      S
C188  H210  1.080 .      S
C190  N64   1.448 .      S
C190  H211  1.102 .      S
C190  H212  1.104 .      S
C190  H213  1.109 .      S
N64   C191  1.457 .      S
N64   H214  1.037 .      S
C191  C192  1.433 .      S
C191  H215  1.099 .      S
C191  H216  1.093 .      S
N65   Zn15  2.034 1_565  S
C194  H217  1.066 .      S
C195  H218  1.081 .      S
C196  H219  1.080 .      S
C197  H220  1.050 .      S
C199  N67   1.458 .      S
C199  H221  1.109 .      S
C199  H222  1.101 .      S
C199  H223  1.091 1_455  S
N67   C200  1.461 .      S
N67   H224  1.039 .      S
C200  C201  1.459 1_455  S
C200  H225  1.094 .      S
C200  H226  1.087 .      S
C201  C200  1.459 1_655  S
C203  H227  1.068 .      S
C204  H228  1.081 .      S
C205  H229  1.080 .      S
C206  H230  1.058 .      S
H223  C199  1.091 1_655  S
C208  N70   1.447 .      S
C208  H231  1.100 .      S
C208  H232  1.106 .      S
C208  H233  1.070 .      S
N70   C209  1.438 .      S
N70   H234  1.040 .      S
C209  C210  1.468 .      S
C209  H235  1.096 .      S
C209  H236  1.087 .      S
C212  H237  1.055 .      S
C213  H238  1.081 .      S
C214  H239  1.081 .      S
C215  H240  1.058 .      S
C217  N73   1.453 .      S
C217  H241  1.109 .      S
C217  H242  1.109 .      S
C217  H243  1.110 .      S
N73   C218  1.451 .      S
N73   H244  1.038 .      S
C218  C219  1.487 .      S
C218  H245  1.105 .      S
C218  H246  1.105 .      S
C221  H247  1.063 .      S
C222  H248  1.080 .      S
C223  H249  1.080 .      S
C224  H250  1.067 .      S
C226  N76   1.451 .      S
C226  H251  1.108 .      S
C226  H252  1.108 .      S
C226  H253  1.103 .      S
N76   C227  1.450 .      S
N76   H254  1.034 .      S
C227  C228  1.483 .      S
C227  H255  1.101 .      S
C227  H256  1.105 .      S
C230  H257  1.037 .      S
C231  H258  1.068 .      S
C232  H259  1.061 .      S
C233  H260  1.033 .      S
C235  N79   1.452 .      S
C235  H261  1.108 .      S
C235  H262  1.104 .      S
C235  H263  1.100 .      S
N79   C236  1.454 .      S
N79   H264  1.038 .      S
C236  C237  1.464 .      S
C236  H265  1.079 .      S
C236  H266  1.081 .      S
C239  H267  1.079 .      S
C240  H268  1.081 .      S
C241  H269  1.081 .      S
C242  H270  1.080 .      S
C244  N82   1.432 .      S
C244  H271  1.076 .      S
C244  H272  1.091 .      S
C244  H273  1.103 .      S
N82   C245  1.425 .      S
N82   H274  1.034 .      S
C245  C246  1.464 .      S
C245  H275  1.089 .      S
C245  H276  1.095 .      S
C248  H277  1.079 .      S
C249  H278  1.081 .      S
C250  H279  1.081 .      S
C251  H280  1.073 .      S
C253  N85   1.426 .      S
C253  H281  1.101 .      S
C253  H282  1.050 .      S
C253  H283  1.106 .      S
N85   C254  1.418 .      S
N85   H284  1.029 .      S
C254  C255  1.481 .      S
C254  H285  1.088 .      S
C254  H286  1.105 .      S
C257  H287  1.078 .      S
C258  H288  1.080 .      S
C259  H289  1.081 .      S
C260  H290  1.080 .      S
C262  N88   1.435 .      S
C262  H291  1.079 .      S
C262  H292  1.105 .      S
C262  H293  1.081 .      S
N88   C263  1.441 .      S
N88   H294  1.034 .      S
C263  C264  1.418 .      S
C263  H295  1.064 .      S
C263  H296  1.089 .      S
C266  H297  1.070 .      S
C267  H298  1.081 .      S
C268  H299  1.081 .      S
C269  H300  1.070 .      S
C271  N91   1.460 .      S
C271  H301  1.107 .      S
C271  H302  1.105 .      S
C271  H303  1.104 .      S
N91   C272  1.437 .      S
N91   H304  1.035 .      S
C272  C273  1.478 .      S
C272  H305  1.107 .      S
C272  H306  1.096 .      S
C275  H307  1.072 .      S
C276  H308  1.081 .      S
C277  H309  1.079 .      S
C278  H310  1.058 .      S
C280  N94   1.452 1_655  S
C280  H311  1.109 .      S
C280  H312  1.109 .      S
C280  H313  1.108 .      S
N94   C280  1.452 1_455  S
N94   C281  1.456 .      S
N94   H314  1.042 .      S
C281  C282  1.487 .      S
C281  H315  1.094 .      S
C281  H316  1.106 .      S
C284  H317  1.080 .      S
C285  H318  1.081 .      S
C286  H319  1.079 .      S
C287  H320  1.067 .      S
C289  N97   1.456 .      S
C289  H321  1.106 .      S
C289  H322  1.108 .      S
C289  H323  1.109 .      S
N97   C290  1.444 .      S
N97   H324  1.039 .      S
C290  C291  1.487 .      S
C290  H325  1.097 .      S
C290  H326  1.103 .      S
C293  H327  1.048 .      S
C294  H328  1.080 .      S
C295  H329  1.079 .      S
C296  H330  1.060 .      S
C298  N100  1.447 .      S
C298  H331  1.107 .      S
C298  H332  1.108 .      S
C298  H333  1.103 .      S
N100  C299  1.451 .      S
N100  H334  1.045 .      S
C299  C300  1.482 .      S
C299  H335  1.107 .      S
C299  H336  1.093 .      S
C302  H337  1.072 .      S
C303  H338  1.072 .      S
C304  H339  1.075 .      S
C305  H340  1.059 .      S
C307  N103  1.449 .      S
C307  H341  1.109 .      S
C307  H342  1.108 .      S
C307  H343  1.108 .      S
N103  C308  1.453 .      S
N103  H344  1.043 .      S
C308  C309  1.462 .      S
C308  H345  1.100 .      S
C308  H346  1.099 .      S
C311  H347  1.080 .      S
C312  H348  1.081 .      S
C313  H349  1.081 .      S
C314  H350  1.080 .      S
C316  N106  1.449 .      S
C316  H351  1.106 .      S
C316  H352  1.102 .      S
C316  H353  1.107 .      S
N106  C317  1.454 .      S
N106  H354  1.039 .      S
C317  C318  1.490 .      S
C317  H355  1.093 .      S
C317  H356  1.101 .      S
N107  Zn24  2.046 1_565  S
C320  H357  1.072 .      S
C321  H358  1.081 .      S
C322  H359  1.081 .      S
C323  H360  1.068 .      S
C325  N109  1.454 .      S
C325  H361  1.102 .      S
C325  H362  1.109 .      S
C325  H363  1.105 .      S
N109  C326  1.439 .      S
N109  H364  1.041 .      S
C326  C327  1.482 .      S
C326  H365  1.104 .      S
C326  H366  1.103 .      S
C329  H367  1.059 .      S
C330  H368  1.081 .      S
C331  H369  1.081 .      S
C332  H370  1.037 .      S
C334  N112  1.448 1_556  S
C334  H371  1.108 .      S
C334  H372  1.102 .      S
C334  H373  1.096 1_556  S
N112  C334  1.448 1_554  S
N112  C335  1.450 .      S
N112  H374  1.043 .      S
C335  C336  1.474 .      S
C335  H375  1.100 .      S
C335  H376  1.109 1_554  S
N113  Zn26  2.248 1_554  S
C338  H377  1.045 .      S
C339  H378  1.081 .      S
C340  H379  1.080 .      S
C341  H380  1.068 .      S
H373  C334  1.096 1_554  S
H376  C335  1.109 1_556  S
C343  N115  1.455 .      S
C343  H381  1.109 .      S
C343  H382  1.109 .      S
C343  H383  1.108 .      S
N115  C344  1.453 1_455  S
N115  H384  1.040 1_455  S
C344  N115  1.453 1_655  S
C344  C345  1.492 .      S
C344  H385  1.104 .      S
C344  H386  1.105 1_655  S
C347  H387  1.076 .      S
C348  H388  1.081 .      S
C349  H389  1.081 .      S
C350  H390  1.080 .      S
H384  N115  1.040 1_655  S
H386  C344  1.105 1_455  S
C352  N118  1.449 .      S
C352  H391  1.109 .      S
C352  H392  1.105 .      S
C352  H393  1.107 .      S
N118  C353  1.434 .      S
N118  H394  1.036 .      S
C353  C354  1.479 .      S
C353  H395  1.103 .      S
C353  H396  1.090 .      S
C356  H397  1.079 .      S
C357  H398  1.081 1_655  S
C358  H399  1.080 1_656  S
C359  H400  1.077 .      S
H398  C357  1.081 1_455  S
H399  C358  1.080 1_454  S
C361  N121  1.458 .      S
C361  H401  1.103 .      S
C361  H402  1.103 .      S
C361  H403  1.082 .      S
N121  C362  1.451 .      S
N121  H404  1.040 .      S
C362  C363  1.451 .      S
C362  H405  1.091 .      S
C362  H406  1.105 .      S
C365  H407  1.067 .      S
C366  H408  1.081 .      S
C367  H409  1.081 .      S
C368  H410  1.061 .      S
C370  N124  1.457 .      S
C370  H411  1.109 .      S
C370  H412  1.103 .      S
C370  H413  1.100 .      S
N124  C371  1.454 .      S
N124  H414  1.036 .      S
C371  C372  1.481 .      S
C371  H415  1.105 .      S
C371  H416  1.095 .      S
C374  H417  1.066 .      S
C375  H418  1.076 .      S
C376  H419  1.078 .      S
C377  H420  1.064 .      S
C379  N127  1.455 .      S
C379  H421  1.108 .      S
C379  H422  1.109 .      S
C379  H423  1.107 .      S
N127  C380  1.442 .      S
N127  H424  1.032 .      S
C380  C381  1.490 .      S
C380  H425  1.106 .      S
C380  H426  1.105 .      S
C383  H427  1.074 .      S
C384  H428  1.081 .      S
C385  H429  1.078 .      S
C386  H430  1.080 .      S
C388  N130  1.453 .      S
C388  H431  1.109 .      S
C388  H432  1.104 .      S
C388  H433  1.109 .      S
N130  C389  1.451 .      S
N130  H434  1.033 .      S
C389  C390  1.479 .      S
C389  H435  1.104 .      S
C389  H436  1.070 .      S
C392  H437  1.068 .      S
C393  H438  1.081 .      S
C394  H439  1.079 .      S
C395  H440  1.071 .      S
C397  N133  1.437 .      S
C397  H441  1.107 .      S
C397  H442  1.108 .      S
C397  H443  1.104 .      S
N133  C398  1.440 .      S
N133  H444  1.038 .      S
C398  C399  1.456 .      S
C398  H445  1.098 .      S
C398  H446  1.105 .      S
C401  H447  1.058 .      S
C402  H448  1.081 .      S
C403  H449  1.081 .      S
C404  H450  1.056 .      S
C406  N136  1.459 .      S
C406  H451  1.106 .      S
C406  H452  1.106 .      S
C406  H453  1.096 .      S
N136  C407  1.448 .      S
N136  H454  1.043 .      S
C407  C408  1.483 1_565  S
C407  H455  1.097 .      S
C407  H456  1.105 .      S
C408  C407  1.483 1_545  S
C410  H457  1.079 .      S
C411  H458  1.080 .      S
C412  H459  1.081 .      S
C413  H460  1.078 .      S
C415  N139  1.454 .      S
C415  H461  1.077 .      S
C415  H462  1.105 1_455  S
C415  H463  1.105 1_545  S
N139  C416  1.441 .      S
N139  H464  1.044 1_455  S
C416  C417  1.439 .      S
C416  H465  1.098 1_545  S
C416  H466  1.085 1_455  S
C419  H467  1.077 .      S
C420  H468  1.081 1_455  S
C421  H469  1.081 .      S
C422  H470  1.076 .      S
H462  C415  1.105 1_655  S
H463  C415  1.105 1_565  S
H464  N139  1.044 1_655  S
H465  C416  1.098 1_565  S
H466  C416  1.085 1_655  S
H468  C420  1.081 1_655  S
C424  N142  1.441 .      S
C424  H471  1.099 .      S
C424  H472  1.106 .      S
C424  H473  1.108 .      S
N142  C425  1.433 .      S
N142  H474  1.043 .      S
C425  C426  1.450 .      S
C425  H475  1.081 .      S
C425  H476  1.106 .      S
C428  H477  1.072 1_655  S
C429  H478  1.081 .      S
C430  H479  1.077 .      S
C431  H480  1.080 .      S
N144  Zn28  2.072 1_565  S
H477  C428  1.072 1_455  S
C433  N145  1.454 1_455  S
C433  H481  1.109 .      S
C433  H482  1.109 .      S
C433  H483  1.109 .      S
N145  C433  1.454 1_655  S
N145  C434  1.451 .      S
N145  H484  1.037 .      S
C434  C435  1.505 .      S
C434  H485  1.093 .      S
C434  H486  1.066 1_655  S
C437  H487  1.047 .      S
C438  H488  1.081 .      S
C439  H489  1.079 .      S
C440  H490  1.050 .      S
H486  C434  1.066 1_455  S
C442  N148  1.454 .      S
C442  H491  1.108 .      S
C442  H492  1.109 .      S
C442  H493  1.107 .      S
N148  C443  1.445 .      S
N148  H494  1.043 .      S
C443  C444  1.479 .      S
C443  H495  1.105 .      S
C443  H496  1.106 .      S
C446  H497  1.067 .      S
C447  H498  1.081 .      S
C448  H499  1.081 .      S
C449  H500  1.068 .      S
C451  N151  1.434 .      S
C451  H501  1.097 .      S
C451  H502  1.103 .      S
C451  H503  1.106 .      S
N151  C452  1.441 .      S
N151  H504  1.042 .      S
C452  C453  1.425 .      S
C452  H505  1.082 .      S
C452  H506  1.092 .      S
C455  H507  1.072 .      S
C456  H508  1.081 .      S
C457  H509  1.080 .      S
C458  H510  1.079 .      S
C460  N154  1.455 .      S
C460  H511  1.109 .      S
C460  H512  1.109 .      S
C460  H513  1.107 .      S
N154  C461  1.456 .      S
N154  H514  1.039 .      S
C461  C462  1.474 .      S
C461  H515  1.102 .      S
C461  H516  1.105 .      S
C464  H517  1.064 .      S
C465  H518  1.081 .      S
C466  H519  1.080 .      S
C467  H520  1.076 .      S
C469  N157  1.451 .      S
C469  H521  1.109 .      S
C469  H522  1.109 .      S
C469  H523  1.107 .      S
N157  C470  1.450 .      S
N157  H524  1.044 .      S
C470  C471  1.492 .      S
C470  H525  1.097 .      S
C470  H526  1.100 .      S
C473  H527  1.074 .      S
C474  H528  1.081 .      S
C475  H529  1.081 .      S
C476  H530  1.072 .      S
C478  N160  1.454 .      S
C478  H531  1.109 .      S
C478  H532  1.109 .      S
C478  H533  1.108 .      S
N160  C479  1.450 .      S
N160  H534  1.043 .      S
C479  C480  1.478 .      S
C479  H535  1.102 .      S
C479  H536  1.105 .      S
C482  H537  1.071 .      S
C483  H538  1.081 .      S
C484  H539  1.079 .      S
C485  H540  1.074 1_565  S
H540  C485  1.074 1_545  S
C487  N163  1.455 .      S
C487  H541  1.105 .      S
C487  H542  1.109 .      S
C487  H543  1.109 .      S
N163  C488  1.449 1_455  S
N163  H544  1.043 .      S
C488  N163  1.449 1_655  S
C488  C489  1.492 1_565  S
C488  H545  1.105 .      S
C488  H546  1.107 .      S
C489  C488  1.492 1_545  S
C491  H547  1.073 .      S
C492  H548  1.081 .      S
C493  H549  1.081 .      S
C494  H550  1.058 .      S
C496  N166  1.451 .      S
C496  H551  1.106 .      S
C496  H552  1.094 .      S
C496  H553  1.106 .      S
N166  C497  1.459 .      S
N166  H554  1.037 .      S
C497  C498  1.472 .      S
C497  H555  1.098 .      S
C497  H556  1.099 .      S
C500  H557  1.063 .      S
C501  H558  1.081 .      S
C502  H559  1.081 .      S
C503  H560  1.078 .      S
C505  N169  1.456 1_655  S
C505  H561  1.105 .      S
C505  H562  1.092 1_655  S
C505  H563  1.104 .      S
N169  C505  1.456 1_455  S
N169  C506  1.450 .      S
N169  H564  1.040 .      S
C506  C507  1.471 .      S
C506  H565  1.102 .      S
C506  H566  1.095 .      S
C509  H567  1.071 .      S
C510  H568  1.081 .      S
C511  H569  1.076 .      S
C512  H570  1.077 .      S
N171  Zn30  2.057 1_455  S
H562  C505  1.092 1_455  S
C514  N172  1.451 .      S
C514  H571  1.107 .      S
C514  H572  1.106 .      S
C514  H573  1.106 .      S
N172  C515  1.450 .      S
N172  H574  1.038 .      S
C515  C516  1.467 .      S
C515  H575  1.099 .      S
C515  H576  1.081 .      S
C518  H577  1.080 .      S
C519  H578  1.080 .      S
C520  H579  1.080 1_655  S
C521  H580  1.062 .      S
N174  Zn49  2.145 1_655  S
H579  C520  1.080 1_455  S
C523  N175  1.454 .      S
C523  H581  1.109 .      S
C523  H582  1.110 .      S
C523  H583  1.103 .      S
N175  C524  1.459 .      S
N175  H584  1.043 .      S
C524  C525  1.497 .      S
C524  H585  1.091 .      S
C524  H586  1.092 .      S
C527  H587  1.072 .      S
C528  H588  1.081 .      S
C529  H589  1.081 .      S
C530  H590  1.080 .      S
C532  N178  1.447 .      S
C532  H591  1.109 .      S
C532  H592  1.108 .      S
C532  H593  1.105 .      S
N178  C533  1.452 .      S
N178  H594  1.043 .      S
C533  C534  1.488 .      S
C533  H595  1.100 .      S
C533  H596  1.108 .      S
C536  H597  1.073 .      S
C537  H598  1.081 .      S
C538  H599  1.081 .      S
C539  H600  1.081 .      S
C541  N181  1.454 .      S
C541  H601  1.109 .      S
C541  H602  1.109 .      S
C541  H603  1.109 .      S
N181  C542  1.453 .      S
N181  H604  1.044 .      S
C542  C543  1.486 .      S
C542  H605  1.101 .      S
C542  H606  1.101 .      S
C545  H607  1.061 .      S
C546  H608  1.081 .      S
C547  H609  1.080 .      S
C548  H610  1.067 1_565  S
H610  C548  1.067 1_545  S
C550  N184  1.464 .      S
C550  H611  1.102 .      S
C550  H612  1.106 .      S
C550  H613  1.103 .      S
N184  C551  1.423 .      S
N184  H614  1.041 .      S
C551  C552  1.442 .      S
C551  H615  1.106 .      S
C551  H616  1.083 .      S
N185  Zn46  2.180 1_655  S
C554  H617  1.070 .      S
C555  H618  1.081 .      S
C556  H619  1.081 .      S
C557  H620  1.074 .      S
N186  Zn32  2.155 1_565  S
C559  N187  1.453 .      S
C559  H621  1.109 .      S
C559  H622  1.105 .      S
C559  H623  1.106 1_565  S
N187  C560  1.453 .      S
N187  H624  1.044 1_565  S
C560  C561  1.483 .      S
C560  H625  1.106 .      S
C560  H626  1.109 .      S
N188  Zn32  2.004 1_565  S
C563  H627  1.079 .      S
C564  H628  1.076 .      S
C565  H629  1.081 .      S
C566  H630  1.077 .      S
H623  C559  1.106 1_545  S
H624  N187  1.044 1_545  S
C568  N190  1.453 .      S
C568  H631  1.109 .      S
C568  H632  1.110 .      S
C568  H633  1.107 .      S
N190  C569  1.452 .      S
N190  H634  1.042 .      S
C569  C570  1.494 .      S
C569  H635  1.106 .      S
C569  H636  1.083 .      S
C572  H637  1.073 1_655  S
C573  H638  1.081 .      S
C574  H639  1.081 .      S
C575  H640  1.080 .      S
H637  C572  1.073 1_455  S
C577  N193  1.452 .      S
C577  H641  1.103 .      S
C577  H642  1.108 .      S
C577  H643  1.107 .      S
N193  C578  1.450 .      S
N193  H644  1.043 1_455  S
C578  C579  1.486 .      S
C578  H645  1.106 .      S
C578  H646  1.107 .      S
C581  H647  1.071 .      S
C582  H648  1.081 .      S
C583  H649  1.081 1_455  S
C584  H650  1.046 .      S
H644  N193  1.043 1_655  S
H649  C583  1.081 1_655  S
C586  N196  1.454 .      S
C586  H651  1.109 .      S
C586  H652  1.108 .      S
C586  H653  1.107 .      S
N196  C587  1.453 .      S
N196  H654  1.044 .      S
C587  C588  1.491 .      S
C587  H655  1.099 .      S
C587  H656  1.105 .      S
C590  H657  1.046 .      S
C591  H658  1.076 .      S
C592  H659  1.073 .      S
C593  H660  1.058 .      S
C595  N199  1.456 1_565  S
C595  H661  1.106 .      S
C595  H662  1.110 1_565  S
C595  H663  1.110 .      S
N199  C595  1.456 1_545  S
N199  C596  1.451 .      S
N199  H664  1.040 1_545  S
C596  C597  1.501 .      S
C596  H665  1.100 1_545  S
C596  H666  1.097 .      S
C599  H667  1.076 .      S
C600  H668  1.081 .      S
C601  H669  1.081 .      S
C602  H670  1.068 .      S
H662  C595  1.110 1_545  S
H664  N199  1.040 1_565  S
H665  C596  1.100 1_565  S
C604  N202  1.455 .      S
C604  H671  1.109 .      S
C604  H672  1.109 .      S
C604  H673  1.107 .      S
N202  C605  1.460 .      S
N202  H674  1.039 .      S
C605  C606  1.500 .      S
C605  H675  1.082 .      S
C605  H676  1.092 .      S
C608  H677  1.081 .      S
C609  H678  1.072 .      S
C610  H679  1.080 1_565  S
C611  H680  1.077 .      S
N204  Zn57  2.144 1_554  S
H679  C610  1.080 1_545  S
C613  N205  1.448 .      S
C613  H681  1.107 .      S
C613  H682  1.105 .      S
C613  H683  1.109 .      S
N205  C614  1.462 .      S
N205  H684  1.030 .      S
C614  C615  1.438 .      S
C614  H685  1.079 .      S
C614  H686  1.076 .      S
C617  H687  1.074 .      S
C618  H688  1.081 .      S
C619  H689  1.081 .      S
C620  H690  1.069 .      S
C622  N208  1.430 .      S
C622  H691  1.105 .      S
C622  H692  1.083 .      S
C622  H693  1.096 .      S
N208  C623  1.452 .      S
N208  H694  1.018 .      S
C623  C624  1.477 .      S
C623  H695  1.093 .      S
C623  H696  1.100 .      S
C626  H697  1.081 .      S
C627  H698  1.081 .      S
C628  H699  1.076 .      S
C629  H700  1.077 .      S
C631  N211  1.465 1_565  S
C631  H701  1.101 .      S
C631  H702  1.104 .      S
C631  H703  1.109 .      S
N211  C631  1.465 1_545  S
N211  C632  1.468 .      S
N211  H704  1.041 .      S
C632  C633  1.460 .      S
C632  H705  1.092 .      S
C632  H706  1.087 .      S
C635  H707  1.072 .      S
C636  H708  1.078 .      S
C637  H709  1.081 .      S
C638  H710  1.072 .      S
C640  N214  1.454 .      S
C640  H711  1.107 .      S
C640  H712  1.107 .      S
C640  H713  1.107 .      S
N214  C641  1.450 .      S
N214  H714  1.032 .      S
C641  C642  1.506 .      S
C641  H715  1.108 .      S
C641  H716  1.104 .      S
C644  H717  1.043 .      S
C645  H718  1.081 .      S
C646  H719  1.081 1_565  S
C647  H720  1.058 1_565  S
N216  Zn37  2.101 1_565  S
H719  C646  1.081 1_545  S
H720  C647  1.058 1_545  S
C649  N217  1.450 .      S
C649  H721  1.101 .      S
C649  H722  1.099 .      S
C649  H723  1.106 .      S
N217  C650  1.447 .      S
N217  H724  1.043 .      S
C650  C651  1.473 .      S
C650  H725  1.099 .      S
C650  H726  1.101 .      S
C653  H727  1.076 .      S
C654  H728  1.081 .      S
C655  H729  1.081 .      S
C656  H730  1.070 .      S
C658  N220  1.428 .      S
C658  H731  1.094 .      S
C658  H732  1.086 .      S
C658  H733  1.076 .      S
N220  C659  1.433 .      S
N220  H734  1.025 .      S
C659  C660  1.414 .      S
C659  H735  1.069 .      S
C659  H736  1.047 .      S
C662  H737  1.075 .      S
C663  H738  1.064 .      S
C664  H739  1.077 .      S
C665  H740  1.071 .      S
C667  N223  1.455 .      S
C667  H741  1.105 1_465  S
C667  H742  1.108 1_455  S
C667  H743  1.101 .      S
N223  C668  1.453 .      S
N223  H744  1.040 1_565  S
C668  C669  1.480 .      S
C668  H745  1.098 .      S
C668  H746  1.105 .      S
N224  Zn40  2.056 1_465  S
C671  H747  1.080 .      S
C672  H748  1.077 .      S
C673  H749  1.081 1_565  S
C674  H750  1.067 .      S
H741  C667  1.105 1_645  S
H742  C667  1.108 1_655  S
H744  N223  1.040 1_545  S
H749  C673  1.081 1_545  S
C676  N226  1.440 .      S
C676  H751  1.108 .      S
C676  H752  1.108 1_655  S
C676  H753  1.102 .      S
N226  C677  1.446 .      S
N226  H754  1.044 .      S
C677  C678  1.459 .      S
C677  H755  1.098 .      S
C677  H756  1.102 1_655  S
N227  Zn40  2.115 1_565  S
C680  H757  1.070 1_565  S
C681  H758  1.074 1_565  S
C682  H759  1.081 .      S
C683  H760  1.075 .      S
H752  C676  1.108 1_455  S
H756  C677  1.102 1_455  S
H757  C680  1.070 1_545  S
H758  C681  1.074 1_545  S
C685  N229  1.456 1_545  S
C685  H761  1.109 .      S
C685  H762  1.107 .      S
C685  H763  1.104 1_545  S
N229  C685  1.456 1_565  S
N229  C686  1.446 .      S
N229  H764  1.041 .      S
C686  C687  1.469 .      S
C686  H765  1.066 .      S
C686  H766  1.106 .      S
N230  Zn41  2.101 1_565  S
C689  H767  1.067 .      S
C690  H768  1.080 .      S
C691  H769  1.081 .      S
C692  H770  1.062 .      S
H763  C685  1.104 1_565  S
C694  N232  1.457 .      S
C694  H771  1.107 .      S
C694  H772  1.104 .      S
C694  H773  1.107 .      S
N232  C695  1.434 .      S
N232  H774  1.035 .      S
C695  C696  1.437 1_565  S
C695  H775  1.104 .      S
C695  H776  1.091 .      S
C696  C695  1.437 1_545  S
C698  H777  1.068 .      S
C699  H778  1.081 .      S
C700  H779  1.081 .      S
C701  H780  1.072 .      S
C703  N235  1.443 .      S
C703  H781  1.104 .      S
C703  H782  1.105 .      S
C703  H783  1.101 .      S
N235  C704  1.447 .      S
N235  H784  1.035 .      S
C704  C705  1.500 .      S
C704  H785  1.096 .      S
C704  H786  1.089 .      S
C707  H787  1.062 .      S
C708  H788  1.081 .      S
C709  H789  1.081 .      S
C710  H790  1.080 .      S
C712  N238  1.455 .      S
C712  H791  1.109 .      S
C712  H792  1.108 .      S
C712  H793  1.107 .      S
N238  C713  1.450 .      S
N238  H794  1.032 .      S
C713  C714  1.493 .      S
C713  H795  1.084 .      S
C713  H796  1.098 .      S
C716  H797  1.081 .      S
C717  H798  1.081 1_455  S
C718  H799  1.081 .      S
C719  H800  1.072 .      S
H798  C717  1.081 1_655  S
C721  N241  1.444 .      S
C721  H801  1.094 .      S
C721  H802  1.103 .      S
C721  H803  1.095 .      S
N241  C722  1.435 .      S
N241  H804  1.031 1_565  S
C722  C723  1.470 .      S
C722  H805  1.083 .      S
C722  H806  1.093 .      S
N242  Zn42  2.149 1_565  S
C725  H807  1.058 .      S
C726  H808  1.081 1_565  S
C727  H809  1.079 .      S
C728  H810  1.057 .      S
H804  N241  1.031 1_545  S
H808  C726  1.081 1_545  S
C730  N244  1.455 .      S
C730  H811  1.105 .      S
C730  H812  1.109 .      S
C730  H813  1.105 .      S
N244  C731  1.447 .      S
N244  H814  1.037 .      S
C731  C732  1.490 .      S
C731  H815  1.095 .      S
C731  H816  1.093 .      S
C734  H817  1.068 1_556  S
C735  H818  1.081 .      S
C736  H819  1.079 .      S
C737  H820  1.073 .      S
H817  C734  1.068 1_554  S
C739  N247  1.448 .      S
C739  H821  1.087 .      S
C739  H822  1.079 .      S
C739  H823  1.108 .      S
N247  C740  1.448 1_554  S
N247  H824  1.041 1_554  S
C740  N247  1.448 1_556  S
C740  C741  1.462 .      S
C740  H825  1.100 .      S
C740  H826  1.103 1_556  S
C743  H827  1.080 .      S
C744  H828  1.081 .      S
C745  H829  1.081 .      S
C746  H830  1.079 .      S
H824  N247  1.041 1_556  S
H826  C740  1.103 1_554  S
C748  N250  1.423 .      S
C748  H831  1.097 .      S
C748  H832  1.099 .      S
C748  H833  1.095 .      S
N250  C749  1.430 .      S
N250  H834  1.025 .      S
C749  C750  1.425 .      S
C749  H835  1.079 .      S
C749  H836  1.068 .      S
C752  H837  1.064 .      S
C753  H838  1.081 .      S
C754  H839  1.081 .      S
C755  H840  1.066 1_554  S
N252  Zn43  2.067 1_554  S
H840  C755  1.066 1_556  S
C757  N253  1.451 1_655  S
C757  H841  1.102 .      S
C757  H842  1.100 1_655  S
C757  H843  1.108 .      S
N253  C757  1.451 1_455  S
N253  C758  1.448 .      S
N253  H844  1.041 .      S
C758  C759  1.479 .      S
C758  H845  1.099 .      S
C758  H846  1.101 .      S
C761  H847  1.035 .      S
C762  H848  1.071 .      S
C763  H849  1.046 .      S
C764  H850  1.054 .      S
H842  C757  1.100 1_455  S
C766  N256  1.459 .      S
C766  H851  1.109 .      S
C766  H852  1.107 .      S
C766  H853  1.104 .      S
N256  C767  1.447 .      S
N256  H854  1.037 .      S
C767  C768  1.485 .      S
C767  H855  1.096 .      S
C767  H856  1.074 .      S
C770  H857  1.069 .      S
C771  H858  1.081 .      S
C772  H859  1.073 .      S
C773  H860  1.074 .      S
C775  N259  1.442 .      S
C775  H861  1.078 .      S
C775  H862  1.080 .      S
C775  H863  1.061 .      S
N259  C776  1.416 .      S
N259  H864  1.038 .      S
C776  C777  1.422 .      S
C776  H865  1.085 .      S
C776  H866  1.081 .      S
C779  H867  1.079 .      S
C780  H868  1.081 .      S
C781  H869  1.081 .      S
C782  H870  1.073 .      S
C784  N262  1.455 .      S
C784  H871  1.108 .      S
C784  H872  1.108 .      S
C784  H873  1.109 .      S
N262  C785  1.452 .      S
N262  H874  1.038 .      S
C785  C786  1.503 .      S
C785  H875  1.096 .      S
C785  H876  1.104 .      S
C788  H877  1.070 .      S
C789  H878  1.078 .      S
C790  H879  1.079 .      S
C791  H880  1.053 .      S
C793  N265  1.449 .      S
C793  H881  1.109 .      S
C793  H882  1.104 .      S
C793  H883  1.107 .      S
N265  C794  1.448 .      S
N265  H884  1.039 .      S
C794  C795  1.493 .      S
C794  H885  1.095 .      S
C794  H886  1.087 .      S
C797  H887  1.078 .      S
C798  H888  1.074 .      S
C799  H889  1.081 .      S
C800  H890  1.071 .      S
C802  N268  1.438 .      S
C802  H891  1.102 .      S
C802  H892  1.088 .      S
C802  H893  1.096 .      S
N268  C803  1.424 .      S
N268  H894  1.032 .      S
C803  C804  1.436 .      S
C803  H895  1.091 .      S
C803  H896  1.093 .      S
C806  H897  1.080 .      S
C807  H898  1.081 .      S
C808  H899  1.081 .      S
C809  H900  1.078 .      S
C811  N271  1.452 .      S
C811  H901  1.109 1_565  S
C811  H902  1.109 .      S
C811  H903  1.106 .      S
N271  C812  1.457 .      S
N271  H904  1.043 .      S
C812  C813  1.487 .      S
C812  H905  1.107 .      S
C812  H906  1.105 .      S
C815  H907  1.077 .      S
C816  H908  1.081 .      S
C817  H909  1.081 .      S
C818  H910  1.055 .      S
H901  C811  1.109 1_545  S
C820  N274  1.451 .      S
C820  H911  1.105 .      S
C820  H912  1.106 .      S
C820  H913  1.107 .      S
N274  C821  1.450 .      S
N274  H914  1.035 .      S
C821  C822  1.470 .      S
C821  H915  1.093 .      S
C821  H916  1.103 .      S
C824  H917  1.051 .      S
C825  H918  1.079 .      S
C826  H919  1.080 .      S
C827  H920  1.064 .      S
C829  N277  1.443 .      S
C829  H921  1.092 .      S
C829  H922  1.099 .      S
C829  H923  1.096 .      S
N277  C830  1.427 .      S
N277  H924  1.022 .      S
C830  C831  1.438 .      S
C830  H925  1.102 .      S
C830  H926  1.094 .      S
C833  H927  1.074 .      S
C834  H928  1.081 1_565  S
C835  H929  1.075 1_565  S
C836  H930  1.063 .      S
H928  C834  1.081 1_545  S
H929  C835  1.075 1_545  S
C838  N280  1.452 .      S
C838  H931  1.094 .      S
C838  H932  1.104 .      S
C838  H933  1.102 .      S
N280  C839  1.430 .      S
N280  H934  1.041 .      S
C839  C840  1.425 .      S
C839  H935  1.073 .      S
C839  H936  1.104 .      S
C842  H937  1.079 .      S
C843  H938  1.075 .      S
C844  H939  1.081 .      S
C845  H940  1.060 .      S
C847  N283  1.433 .      S
C847  H941  1.104 .      S
C847  H942  1.107 .      S
C847  H943  1.100 .      S
N283  C848  1.441 .      S
N283  H944  1.031 .      S
C848  C849  1.477 .      S
C848  H945  1.102 .      S
C848  H946  1.097 .      S
C851  H947  1.071 .      S
C852  H948  1.065 .      S
C853  H949  1.081 .      S
C854  H950  1.066 .      S
C856  N286  1.448 .      S
C856  H951  1.109 .      S
C856  H952  1.105 .      S
C856  H953  1.095 .      S
N286  C857  1.453 .      S
N286  H954  1.037 .      S
C857  C858  1.461 .      S
C857  H955  1.103 .      S
C857  H956  1.083 .      S
C860  H957  1.076 .      S
C861  H958  1.081 .      S
C862  H959  1.081 .      S
C863  H960  1.066 1_545  S
H960  C863  1.066 1_565  S
C865  N289  1.437 .      S
C865  H961  1.091 .      S
C865  H962  1.090 .      S
C865  H963  1.103 .      S
N289  C866  1.441 .      S
N289  H964  1.033 .      S
C866  C867  1.465 .      S
C866  H965  1.086 .      S
C866  H966  1.108 .      S
C869  H967  1.072 .      S
C870  H968  1.080 .      S
C871  H969  1.078 .      S
C872  H970  1.069 .      S
C874  N292  1.454 .      S
C874  H971  1.107 .      S
C874  H972  1.094 .      S
C874  H973  1.107 .      S
N292  C875  1.452 .      S
N292  H974  1.039 .      S
C875  C876  1.486 .      S
C875  H975  1.091 .      S
C875  H976  1.100 .      S
C878  H977  1.076 .      S
C879  H978  1.081 .      S
C880  H979  1.081 .      S
C881  H980  1.080 .      S
C883  N295  1.435 .      S
C883  H981  1.103 .      S
C883  H982  1.100 .      S
C883  H983  1.075 .      S
N295  C884  1.401 .      S
N295  H984  1.025 .      S
C884  C885  1.422 .      S
C884  H985  1.094 .      S
C884  H986  1.087 .      S
C887  H987  1.078 .      S
C888  H988  1.081 .      S
C889  H989  1.081 .      S
C890  H990  1.072 .      S
C892  N298  1.451 .      S
C892  H991  1.108 .      S
C892  H992  1.108 .      S
C892  H993  1.104 .      S
N298  C893  1.452 .      S
N298  H994  1.044 .      S
C893  C894  1.490 .      S
C893  H995  1.108 .      S
C893  H996  1.095 .      S
C896  H997  1.070 .      S
C897  H998  1.080 .      S
C898  H999  1.079 .      S
C899  H1000 1.068 .      S
C901  N301  1.452 1_655  S
C901  H1001 1.107 .      S
C901  H1002 1.089 .      S
C901  H1003 1.106 .      S
N301  C901  1.452 1_455  S
N301  C902  1.456 .      S
N301  H1004 1.042 .      S
C902  C903  1.488 .      S
C902  H1005 1.099 1_455  S
C902  H1006 1.102 1_455  S
C905  H1007 1.062 .      S
C906  H1008 1.077 .      S
C907  H1009 1.068 .      S
C908  H1010 1.064 .      S
H1005 C902  1.099 1_655  S
H1006 C902  1.102 1_655  S
C910  N304  1.454 1_565  S
C910  H1011 1.109 .      S
C910  H1012 1.109 .      S
C910  H1013 1.109 .      S
N304  C910  1.454 1_545  S
N304  C911  1.457 .      S
N304  H1014 1.041 .      S
C911  C912  1.477 .      S
C911  H1015 1.079 .      S
C911  H1016 1.108 .      S
C914  H1017 1.060 .      S
C915  H1018 1.081 .      S
C916  H1019 1.081 .      S
C917  H1020 1.067 .      S
C919  N307  1.453 1_545  S
C919  H1021 1.108 .      S
C919  H1022 1.105 .      S
C919  H1023 1.109 .      S
N307  C919  1.453 1_565  S
N307  C920  1.460 .      S
N307  H1024 1.042 .      S
C920  C921  1.475 .      S
C920  H1025 1.085 .      S
C920  H1026 1.083 .      S
C923  H1027 1.081 .      S
C924  H1028 1.081 .      S
C925  H1029 1.078 .      S
C926  H1030 1.067 .      S
C928  N310  1.442 .      S
C928  H1031 1.099 .      S
C928  H1032 1.100 .      S
C928  H1033 1.081 .      S
N310  C929  1.424 .      S
N310  H1034 1.038 .      S
C929  C930  1.453 .      S
C929  H1035 1.100 .      S
C929  H1036 1.105 .      S
C932  H1037 1.065 .      S
C933  H1038 1.062 .      S
C934  H1039 1.079 .      S
C935  H1040 1.068 .      S
C937  N313  1.453 .      S
C937  H1041 1.089 .      S
C937  H1042 1.109 .      S
C937  H1043 1.101 .      S
N313  C938  1.451 1_655  S
N313  H1044 1.038 .      S
C938  N313  1.451 1_455  S
C938  C939  1.482 .      S
C938  H1045 1.100 1_455  S
C938  H1046 1.099 .      S
C941  H1047 1.079 .      S
C942  H1048 1.081 .      S
C943  H1049 1.081 1_455  S
C944  H1050 1.067 .      S
H1045 C938  1.100 1_655  S
H1049 C943  1.081 1_655  S
C946  N316  1.454 .      S
C946  H1051 1.079 .      S
C946  H1052 1.074 .      S
C946  H1053 1.095 .      S
N316  C947  1.423 .      S
N316  H1054 1.026 .      S
C947  C948  1.428 .      S
C947  H1055 1.099 .      S
C947  H1056 1.105 .      S
C950  H1057 1.077 .      S
C951  H1058 1.081 .      S
C952  H1059 1.081 .      S
C953  H1060 1.073 .      S
C955  N319  1.454 .      S
C955  H1061 1.109 .      S
C955  H1062 1.105 .      S
C955  H1063 1.107 .      S
N319  C956  1.457 .      S
N319  H1064 1.043 .      S
C956  C957  1.495 .      S
C956  H1065 1.097 .      S
C956  H1066 1.100 .      S
C959  H1067 1.078 .      S
C960  H1068 1.081 .      S
C961  H1069 1.081 .      S
C962  H1070 1.070 .      S
C964  N322  1.456 .      S
C964  H1071 1.110 .      S
C964  H1072 1.108 .      S
C964  H1073 1.108 1_655  S
N322  C965  1.442 .      S
N322  H1074 1.033 .      S
C965  C966  1.502 .      S
C965  H1075 1.088 .      S
C965  H1076 1.106 1_655  S
C968  H1077 1.079 1_455  S
C969  H1078 1.081 .      S
C970  H1079 1.078 .      S
C971  H1080 1.074 .      S
H1073 C964  1.108 1_455  S
H1076 C965  1.106 1_455  S
H1077 C968  1.079 1_655  S
C973  N325  1.433 .      S
C973  H1081 1.081 .      S
C973  H1082 1.090 .      S
C973  H1083 1.072 .      S
N325  C974  1.443 .      S
N325  H1084 1.039 .      S
C974  C975  1.432 .      S
C974  H1085 1.072 .      S
C974  H1086 1.096 .      S
C977  H1087 1.044 .      S
C978  H1088 1.065 .      S
C979  H1089 1.062 .      S
C980  H1090 1.045 .      S
C982  N328  1.455 .      S
C982  H1091 1.099 .      S
C982  H1092 1.106 .      S
C982  H1093 1.108 .      S
N328  C983  1.449 .      S
N328  H1094 1.038 .      S
C983  C984  1.497 .      S
C983  H1095 1.107 .      S
C983  H1096 1.104 .      S
C986  H1097 1.065 .      S
C987  H1098 1.081 .      S
C988  H1099 1.081 .      S
C989  H1100 1.059 .      S
C991  N331  1.457 .      S
C991  H1101 1.100 .      S
C991  H1102 1.109 .      S
C991  H1103 1.108 .      S
N331  C992  1.453 .      S
N331  H1104 1.043 .      S
C992  C993  1.481 .      S
C992  H1105 1.071 .      S
C992  H1106 1.090 .      S
C995  H1107 1.078 .      S
C996  H1108 1.081 .      S
C997  H1109 1.081 .      S
C998  H1110 1.080 .      S
C1000 N334  1.455 .      S
C1000 H1111 1.109 .      S
C1000 H1112 1.108 .      S
C1000 H1113 1.108 .      S
N334  C1001 1.446 .      S
N334  H1114 1.044 .      S
C1001 C1002 1.492 .      S
C1001 H1115 1.096 .      S
C1001 H1116 1.100 .      S
C1004 H1117 1.077 .      S
C1005 H1118 1.081 .      S
C1006 H1119 1.081 .      S
C1007 H1120 1.079 .      S
C1009 N337  1.454 1_556  S
C1009 H1121 1.102 .      S
C1009 H1122 1.109 1_556  S
C1009 H1123 1.104 .      S
N337  C1009 1.454 1_554  S
N337  C1010 1.462 .      S
N337  H1124 1.038 .      S
C1010 C1011 1.477 .      S
C1010 H1125 1.094 1_554  S
C1010 H1126 1.087 .      S
C1013 H1127 1.077 .      S
C1014 H1128 1.078 .      S
C1015 H1129 1.081 .      S
C1016 H1130 1.079 .      S
H1122 C1009 1.109 1_554  S
H1125 C1010 1.094 1_556  S
C1018 N340  1.457 .      S
C1018 H1131 1.109 .      S
C1018 H1132 1.106 .      S
C1018 H1133 1.109 .      S
N340  C1019 1.457 .      S
N340  H1134 1.044 .      S
C1019 C1020 1.490 .      S
C1019 H1135 1.107 .      S
C1019 H1136 1.092 .      S
C1022 H1137 1.078 .      S
C1023 H1138 1.081 .      S
C1024 H1139 1.081 .      S
C1025 H1140 1.047 .      S
C1027 N343  1.453 .      S
C1027 H1141 1.109 .      S
C1027 H1142 1.103 .      S
C1027 H1143 1.108 .      S
N343  C1028 1.451 .      S
N343  H1144 1.042 .      S
C1028 C1029 1.482 .      S
C1028 H1145 1.076 .      S
C1028 H1146 1.106 .      S
C1031 H1147 1.058 .      S
C1032 H1148 1.077 .      S
C1033 H1149 1.043 .      S
C1034 H1150 1.064 .      S
C1036 N346  1.445 .      S
C1036 H1151 1.095 .      S
C1036 H1152 1.104 1_545  S
C1036 H1153 1.098 .      S
N346  C1037 1.430 .      S
N346  H1154 1.036 .      S
C1037 C1038 1.465 .      S
C1037 H1155 1.084 .      S
C1037 H1156 1.085 .      S
C1040 H1157 1.050 .      S
C1041 H1158 1.080 .      S
C1042 H1159 1.079 .      S
C1043 H1160 1.071 .      S
H1152 C1036 1.104 1_565  S
C1045 N349  1.451 1_545  S
C1045 H1161 1.107 1_545  S
C1045 H1162 1.107 .      S
C1045 H1163 1.101 .      S
N349  C1045 1.451 1_565  S
N349  C1046 1.449 .      S
N349  H1164 1.041 .      S
C1046 C1047 1.488 .      S
C1046 H1165 1.098 1_565  S
C1046 H1166 1.097 .      S
C1049 H1167 1.080 .      S
C1050 H1168 1.081 .      S
C1051 H1169 1.081 .      S
C1052 H1170 1.070 .      S
N351  Zn58  2.081 1_565  S
H1161 C1045 1.107 1_565  S
H1165 C1046 1.098 1_545  S
C1054 N352  1.442 .      S
C1054 H1171 1.084 .      S
C1054 H1172 1.104 .      S
C1054 H1173 1.087 .      S
N352  C1055 1.428 .      S
N352  H1174 1.026 .      S
C1055 C1056 1.441 .      S
C1055 H1175 1.104 .      S
C1055 H1176 1.063 .      S
C1058 H1177 1.055 .      S
C1059 H1178 1.081 .      S
C1060 H1179 1.081 1_655  S
C1061 H1180 1.080 .      S
H1179 C1060 1.081 1_455  S
C1063 N355  1.456 .      S
C1063 H1181 1.107 .      S
C1063 H1182 1.106 .      S
C1063 H1183 1.102 .      S
N355  C1064 1.455 .      S
N355  H1184 1.038 .      S
C1064 C1065 1.498 .      S
C1064 H1185 1.090 .      S
C1064 H1186 1.106 .      S
C1067 H1187 1.079 .      S
C1068 H1188 1.081 .      S
C1069 H1189 1.081 .      S
C1070 H1190 1.061 .      S
C1072 N358  1.452 1_545  S
C1072 H1191 1.109 .      S
C1072 H1192 1.109 .      S
C1072 H1193 1.108 .      S
N358  C1072 1.452 1_565  S
N358  C1073 1.454 .      S
N358  H1194 1.044 .      S
C1073 C1074 1.495 .      S
C1073 H1195 1.102 .      S
C1073 H1196 1.103 .      S
C1076 H1197 1.077 .      S
C1077 H1198 1.077 .      S
C1078 H1199 1.081 .      S
C1079 H1200 1.080 .      S
C3    N2    1.395 .      A
C3    N3    1.366 .      A
N2    C4    1.357 .      A
C4    C5    1.374 .      A
C4    C9    1.368 .      A
C5    C6    1.385 .      A
C6    C7    1.390 .      A
C7    C8    1.384 .      A
C8    C9    1.371 .      A
C9    N3    1.340 .      A
C12   N5    1.370 .      A
C12   N6    1.392 .      A
N5    C13   1.353 .      A
C13   C14   1.368 .      A
C13   C18   1.364 .      A
C14   C15   1.380 .      A
C15   C16   1.377 .      A
C16   C17   1.372 .      A
C17   C18   1.368 .      A
C18   N6    1.338 .      A
C21   N8    1.391 .      A
C21   N9    1.397 .      A
N8    C22   1.352 .      A
C22   C23   1.374 .      A
C22   C27   1.369 .      A
C23   C24   1.384 .      A
C24   C25   1.384 .      A
C25   C26   1.380 .      A
C26   C27   1.367 .      A
C27   N9    1.349 .      A
C30   N11   1.380 .      A
C30   N12   1.401 .      A
N11   C31   1.348 .      A
C31   C32   1.369 .      A
C31   C36   1.358 .      A
C32   C33   1.383 .      A
C33   C34   1.384 .      A
C34   C35   1.378 .      A
C35   C36   1.360 .      A
C36   N12   1.342 .      A
C39   N14   1.404 .      A
C39   N15   1.388 .      A
N14   C40   1.356 .      A
C40   C41   1.371 .      A
C40   C45   1.359 .      A
C41   C42   1.385 .      A
C42   C43   1.386 .      A
C43   C44   1.380 .      A
C44   C45   1.367 .      A
C45   N15   1.336 .      A
C48   N17   1.412 .      A
C48   N18   1.405 .      A
N17   C49   1.349 .      A
C49   C50   1.367 .      A
C49   C54   1.364 .      A
C50   C51   1.382 .      A
C51   C52   1.386 .      A
C52   C53   1.383 .      A
C53   C54   1.368 .      A
C54   N18   1.348 .      A
C57   N20   1.381 .      A
C57   N21   1.382 .      A
N20   C58   1.350 .      A
C58   C59   1.373 .      A
C58   C63   1.364 .      A
C59   C60   1.384 .      A
C60   C61   1.388 .      A
C61   C62   1.383 .      A
C62   C63   1.369 .      A
C63   N21   1.345 .      A
C66   N23   1.368 .      A
C66   N24   1.381 .      A
N23   C67   1.354 .      A
C67   C68   1.377 .      A
C67   C72   1.360 .      A
C68   C69   1.381 .      A
C69   C70   1.383 .      A
C70   C71   1.380 .      A
C71   C72   1.373 .      A
C72   N24   1.345 .      A
C75   N26   1.399 .      A
C75   N27   1.392 .      A
N26   C76   1.336 .      A
C76   C77   1.347 .      A
C76   C81   1.320 .      A
C77   C78   1.377 .      A
C78   C79   1.367 .      A
C79   C80   1.350 .      A
C80   C81   1.308 .      A
C81   N27   1.304 .      A
C84   N29   1.389 .      A
C84   N30   1.378 .      A
N29   C85   1.357 .      A
C85   C86   1.379 .      A
C85   C90   1.376 .      A
C86   C87   1.383 .      A
C87   C88   1.386 .      A
C88   C89   1.382 .      A
C89   C90   1.375 .      A
C90   N30   1.349 .      A
C93   N32   1.386 .      A
C93   N33   1.379 .      A
N32   C94   1.345 .      A
C94   C95   1.373 .      A
C94   C99   1.367 .      A
C95   C96   1.383 .      A
C96   C97   1.389 .      A
C97   C98   1.385 .      A
C98   C99   1.369 .      A
C99   N33   1.354 .      A
C102  N35   1.386 .      A
C102  N36   1.379 .      A
N35   C103  1.373 .      A
C103  C104  1.384 .      A
C103  C108  1.372 .      A
C104  C105  1.381 .      A
C105  C106  1.377 .      A
C106  C107  1.374 .      A
C107  C108  1.373 .      A
C108  N36   1.342 .      A
C111  N38   1.392 .      A
C111  N39   1.396 .      A
N38   C112  1.334 .      A
C112  C113  1.362 .      A
C112  C117  1.363 .      A
C113  C114  1.373 .      A
C114  C115  1.378 .      A
C115  C116  1.383 .      A
C116  C117  1.377 .      A
C117  N39   1.363 .      A
C120  N41   1.401 .      A
C120  N42   1.353 .      A
N41   C121  1.372 .      A
C121  C122  1.379 .      A
C121  C126  1.377 .      A
C122  C123  1.385 .      A
C123  C124  1.386 .      A
C124  C125  1.379 .      A
C125  C126  1.372 .      A
C126  N42   1.335 .      A
C129  N44   1.389 .      A
C129  N45   1.376 .      A
N44   C130  1.359 .      A
C130  C131  1.381 .      A
C130  C135  1.372 .      A
C131  C132  1.382 .      A
C132  C133  1.384 .      A
C133  C134  1.381 .      A
C134  C135  1.373 .      A
C135  N45   1.347 .      A
C138  N47   1.377 .      A
C138  N48   1.398 .      A
N47   C139  1.342 .      A
C139  C140  1.360 .      A
C139  C144  1.354 .      A
C140  C141  1.383 .      A
C141  C142  1.384 .      A
C142  C143  1.380 .      A
C143  C144  1.364 .      A
C144  N48   1.339 .      A
C147  N50   1.371 1_556  A
C147  N51   1.376 .      A
N50   C147  1.371 1_554  A
N50   C148  1.356 .      A
C148  C149  1.372 1_565  A
C148  C153  1.353 1_554  A
C149  C148  1.372 1_545  A
C149  C150  1.381 1_554  A
C150  C149  1.381 1_556  A
C150  C151  1.378 .      A
C151  C152  1.373 1_545  A
C152  C151  1.373 1_565  A
C152  C153  1.370 .      A
C153  C148  1.353 1_556  A
C153  N51   1.341 .      A
C156  N53   1.390 .      A
C156  N54   1.392 .      A
N53   C157  1.355 .      A
C157  C158  1.372 .      A
C157  C162  1.378 .      A
C158  C159  1.383 1_455  A
C159  C158  1.383 1_655  A
C159  C160  1.387 1_655  A
C160  C159  1.387 1_455  A
C160  C161  1.382 .      A
C161  C162  1.372 .      A
C162  N54   1.349 .      A
C165  N56   1.380 .      A
C165  N57   1.385 .      A
N56   C166  1.338 .      A
C166  C167  1.368 .      A
C166  C171  1.369 .      A
C167  C168  1.381 .      A
C168  C169  1.385 .      A
C169  C170  1.387 .      A
C170  C171  1.368 .      A
C171  N57   1.356 .      A
C174  N59   1.370 .      A
C174  N60   1.377 .      A
N59   C175  1.358 .      A
C175  C176  1.367 1_545  A
C175  C180  1.353 .      A
C176  C175  1.367 1_565  A
C176  C177  1.370 .      A
C177  C178  1.367 .      A
C178  C179  1.374 .      A
C179  C180  1.369 1_565  A
C180  C179  1.369 1_545  A
C180  N60   1.338 .      A
C183  N62   1.376 .      A
C183  N63   1.394 .      A
N62   C184  1.346 .      A
C184  C185  1.370 .      A
C184  C189  1.365 .      A
C185  C186  1.385 .      A
C186  C187  1.392 .      A
C187  C188  1.386 .      A
C188  C189  1.371 .      A
C189  N63   1.347 .      A
C192  N65   1.374 .      A
C192  N66   1.360 .      A
N65   C193  1.335 .      A
C193  C194  1.370 1_565  A
C193  C198  1.358 .      A
C194  C193  1.370 1_545  A
C194  C195  1.381 .      A
C195  C196  1.385 1_545  A
C196  C195  1.385 1_565  A
C196  C197  1.382 .      A
C197  C198  1.360 .      A
C198  N66   1.355 .      A
C201  N68   1.383 .      A
C201  N69   1.368 .      A
N68   C202  1.335 .      A
C202  C203  1.373 .      A
C202  C207  1.356 .      A
C203  C204  1.377 .      A
C204  C205  1.382 .      A
C205  C206  1.382 .      A
C206  C207  1.381 .      A
C207  N69   1.368 .      A
C210  N71   1.383 .      A
C210  N72   1.393 .      A
N71   C211  1.344 .      A
C211  C212  1.372 .      A
C211  C216  1.362 .      A
C212  C213  1.369 .      A
C213  C214  1.369 .      A
C214  C215  1.378 .      A
C215  C216  1.394 .      A
C216  N72   1.376 .      A
C219  N74   1.385 .      A
C219  N75   1.382 1_455  A
N74   C220  1.348 .      A
C220  C221  1.378 .      A
C220  C225  1.346 1_455  A
C221  C222  1.379 1_455  A
C222  C221  1.379 1_655  A
C222  C223  1.381 .      A
C223  C224  1.382 .      A
C224  C225  1.345 .      A
C225  C220  1.346 1_655  A
C225  N75   1.336 .      A
N75   C219  1.382 1_655  A
C228  N77   1.403 .      A
C228  N78   1.394 .      A
N77   C229  1.314 .      A
C229  C230  1.340 .      A
C229  C234  1.329 .      A
C230  C231  1.341 .      A
C231  C232  1.364 .      A
C232  C233  1.360 .      A
C233  C234  1.328 .      A
C234  N78   1.333 .      A
C237  N80   1.392 .      A
C237  N81   1.389 .      A
N80   C238  1.352 .      A
C238  C239  1.374 .      A
C238  C243  1.374 .      A
C239  C240  1.384 .      A
C240  C241  1.389 .      A
C241  C242  1.383 .      A
C242  C243  1.376 .      A
C243  N81   1.355 .      A
C246  N83   1.391 .      A
C246  N84   1.383 .      A
N83   C247  1.346 .      A
C247  C248  1.376 .      A
C247  C252  1.372 .      A
C248  C249  1.379 1_455  A
C249  C248  1.379 1_655  A
C249  C250  1.384 .      A
C250  C251  1.384 1_655  A
C251  C250  1.384 1_455  A
C251  C252  1.385 .      A
C252  N84   1.367 .      A
C255  N86   1.395 .      A
C255  N87   1.386 .      A
N86   C256  1.347 .      A
C256  C257  1.368 .      A
C256  C261  1.367 .      A
C257  C258  1.385 .      A
C258  C259  1.387 .      A
C259  C260  1.382 .      A
C260  C261  1.375 .      A
C261  N87   1.351 .      A
C264  N89   1.372 .      A
C264  N90   1.364 .      A
N89   C265  1.349 .      A
C265  C266  1.373 .      A
C265  C270  1.375 .      A
C266  C267  1.378 .      A
C267  C268  1.381 .      A
C268  C269  1.381 .      A
C269  C270  1.385 .      A
C270  N90   1.362 .      A
C273  N92   1.370 .      A
C273  N93   1.390 .      A
N92   C274  1.338 .      A
C274  C275  1.374 .      A
C274  C279  1.360 .      A
C275  C276  1.378 .      A
C276  C277  1.383 .      A
C277  C278  1.383 .      A
C278  C279  1.372 .      A
C279  N93   1.359 .      A
C282  N95   1.387 .      A
C282  N96   1.390 .      A
N95   C283  1.342 .      A
C283  C284  1.372 .      A
C283  C288  1.368 .      A
C284  C285  1.382 .      A
C285  C286  1.388 .      A
C286  C287  1.385 .      A
C287  C288  1.367 .      A
C288  N96   1.352 .      A
C291  N98   1.381 .      A
C291  N99   1.382 .      A
N98   C292  1.344 .      A
C292  C293  1.357 .      A
C292  C297  1.346 .      A
C293  C294  1.377 .      A
C294  C295  1.379 .      A
C295  C296  1.373 .      A
C296  C297  1.371 .      A
C297  N99   1.342 .      A
C300  N101  1.377 .      A
C300  N102  1.384 .      A
N101  C301  1.329 .      A
C301  C302  1.353 .      A
C301  C306  1.340 .      A
C302  C303  1.372 1_545  A
C303  C302  1.372 1_565  A
C303  C304  1.381 .      A
C304  C305  1.371 .      A
C305  C306  1.343 1_565  A
C306  C305  1.343 1_545  A
C306  N102  1.330 .      A
C309  N104  1.382 .      A
C309  N105  1.378 .      A
N104  C310  1.354 .      A
C310  C311  1.374 .      A
C310  C315  1.364 .      A
C311  C312  1.385 1_455  A
C312  C311  1.385 1_655  A
C312  C313  1.392 .      A
C313  C314  1.382 1_655  A
C314  C313  1.382 1_455  A
C314  C315  1.370 .      A
C315  N105  1.341 .      A
C318  N107  1.379 .      A
C318  N108  1.383 .      A
N107  C319  1.337 .      A
C319  C320  1.366 .      A
C319  C324  1.353 .      A
C320  C321  1.382 .      A
C321  C322  1.387 .      A
C322  C323  1.385 .      A
C323  C324  1.369 .      A
C324  N108  1.353 .      A
C327  N110  1.387 .      A
C327  N111  1.381 .      A
N110  C328  1.356 .      A
C328  C329  1.391 .      A
C328  C333  1.357 .      A
C329  C330  1.372 .      A
C330  C331  1.362 .      A
C331  C332  1.369 .      A
C332  C333  1.380 .      A
C333  N111  1.360 .      A
C336  N113  1.397 .      A
C336  N114  1.407 .      A
N113  C337  1.370 .      A
C337  C338  1.377 .      A
C337  C342  1.370 .      A
C338  C339  1.379 .      A
C339  C340  1.375 .      A
C340  C341  1.375 .      A
C341  C342  1.369 .      A
C342  N114  1.337 .      A
C345  N116  1.393 .      A
C345  N117  1.399 .      A
N116  C346  1.348 .      A
C346  C347  1.373 .      A
C346  C351  1.363 .      A
C347  C348  1.385 .      A
C348  C349  1.391 .      A
C349  C350  1.387 .      A
C350  C351  1.374 .      A
C351  N117  1.344 .      A
C354  N119  1.375 .      A
C354  N120  1.375 .      A
N119  C355  1.344 .      A
C355  C356  1.374 .      A
C355  C360  1.362 .      A
C356  C357  1.383 .      A
C357  C358  1.389 .      A
C358  C359  1.385 .      A
C359  C360  1.374 .      A
C360  N120  1.351 .      A
C363  N122  1.399 .      A
C363  N123  1.380 .      A
N122  C364  1.346 .      A
C364  C365  1.375 .      A
C364  C369  1.366 .      A
C365  C366  1.375 .      A
C366  C367  1.376 .      A
C367  C368  1.380 .      A
C368  C369  1.381 .      A
C369  N123  1.368 .      A
C372  N125  1.398 .      A
C372  N126  1.399 .      A
N125  C373  1.342 .      A
C373  C374  1.372 .      A
C373  C378  1.368 .      A
C374  C375  1.376 .      A
C375  C376  1.377 .      A
C376  C377  1.376 .      A
C377  C378  1.379 .      A
C378  N126  1.363 .      A
C381  N128  1.384 .      A
C381  N129  1.405 .      A
N128  C382  1.353 .      A
C382  C383  1.375 .      A
C382  C387  1.369 .      A
C383  C384  1.382 .      A
C384  C385  1.385 .      A
C385  C386  1.381 .      A
C386  C387  1.370 .      A
C387  N129  1.342 .      A
C390  N131  1.383 1_545  A
C390  N132  1.374 .      A
N131  C390  1.383 1_565  A
N131  C391  1.354 .      A
C391  C392  1.375 .      A
C391  C396  1.367 1_565  A
C392  C393  1.381 .      A
C393  C394  1.384 1_565  A
C394  C393  1.384 1_545  A
C394  C395  1.380 .      A
C395  C396  1.375 .      A
C396  C391  1.367 1_545  A
C396  N132  1.349 .      A
C399  N134  1.380 .      A
C399  N135  1.386 .      A
N134  C400  1.349 .      A
C400  C401  1.372 .      A
C400  C405  1.360 .      A
C401  C402  1.381 .      A
C402  C403  1.379 .      A
C403  C404  1.375 .      A
C404  C405  1.364 .      A
C405  N135  1.349 .      A
C408  N137  1.395 .      A
C408  N138  1.394 .      A
N137  C409  1.342 .      A
C409  C410  1.369 .      A
C409  C414  1.368 .      A
C410  C411  1.383 .      A
C411  C412  1.389 .      A
C412  C413  1.384 .      A
C413  C414  1.376 .      A
C414  N138  1.359 .      A
C417  N140  1.375 1_455  A
C417  N141  1.385 .      A
N140  C417  1.375 1_655  A
N140  C418  1.350 1_655  A
C418  N140  1.350 1_455  A
C418  C419  1.374 1_455  A
C418  C423  1.371 .      A
C419  C418  1.374 1_655  A
C419  C420  1.383 1_655  A
C420  C419  1.383 1_455  A
C420  C421  1.389 .      A
C421  C422  1.384 .      A
C422  C423  1.376 .      A
C423  N141  1.354 .      A
C426  N143  1.380 .      A
C426  N144  1.371 1_455  A
N143  C427  1.350 1_455  A
C427  N143  1.350 1_655  A
C427  C428  1.371 .      A
C427  C432  1.368 .      A
C428  C429  1.383 .      A
C429  C430  1.389 .      A
C430  C431  1.385 .      A
C431  C432  1.372 .      A
C432  N144  1.347 .      A
N144  C426  1.371 1_655  A
C435  N146  1.403 1_565  A
C435  N147  1.407 1_565  A
N146  C435  1.403 1_545  A
N146  C436  1.345 .      A
C436  C437  1.369 .      A
C436  C441  1.364 .      A
C437  C438  1.374 .      A
C438  C439  1.374 .      A
C439  C440  1.377 .      A
C440  C441  1.377 .      A
C441  N147  1.360 .      A
N147  C435  1.407 1_545  A
C444  N149  1.399 .      A
C444  N150  1.393 .      A
N149  C445  1.364 .      A
C445  C446  1.384 .      A
C445  C450  1.367 .      A
C446  C447  1.383 .      A
C447  C448  1.382 .      A
C448  C449  1.377 .      A
C449  C450  1.367 .      A
C450  N150  1.343 .      A
C453  N152  1.384 .      A
C453  N153  1.374 .      A
N152  C454  1.353 .      A
C454  C455  1.370 .      A
C454  C459  1.374 .      A
C455  C456  1.384 .      A
C456  C457  1.389 .      A
C457  C458  1.384 .      A
C458  C459  1.375 .      A
C459  N153  1.349 .      A
C462  N155  1.395 .      A
C462  N156  1.387 .      A
N155  C463  1.352 .      A
C463  C464  1.372 .      A
C463  C468  1.364 .      A
C464  C465  1.379 .      A
C465  C466  1.381 .      A
C466  C467  1.382 .      A
C467  C468  1.373 .      A
C468  N156  1.347 .      A
C471  N158  1.380 .      A
C471  N159  1.380 .      A
N158  C472  1.357 .      A
C472  C473  1.380 .      A
C472  C477  1.362 .      A
C473  C474  1.383 .      A
C474  C475  1.386 .      A
C475  C476  1.381 .      A
C476  C477  1.371 .      A
C477  N159  1.346 .      A
C480  N161  1.400 .      A
C480  N162  1.399 .      A
N161  C481  1.354 1_655  A
C481  N161  1.354 1_455  A
C481  C482  1.376 1_545  A
C481  C486  1.370 .      A
C482  C481  1.376 1_565  A
C482  C483  1.381 .      A
C483  C484  1.384 .      A
C484  C485  1.380 .      A
C485  C486  1.375 1_565  A
C486  C485  1.375 1_545  A
C486  N162  1.349 1_455  A
N162  C486  1.349 1_655  A
C489  N164  1.396 .      A
C489  N165  1.399 .      A
N164  C490  1.340 .      A
C490  C491  1.370 .      A
C490  C495  1.357 .      A
C491  C492  1.381 .      A
C492  C493  1.386 .      A
C493  C494  1.385 .      A
C494  C495  1.371 .      A
C495  N165  1.353 .      A
C498  N167  1.377 .      A
C498  N168  1.390 .      A
N167  C499  1.361 .      A
C499  C500  1.368 .      A
C499  C504  1.357 .      A
C500  C501  1.386 .      A
C501  C502  1.383 .      A
C502  C503  1.377 .      A
C503  C504  1.372 .      A
C504  N168  1.331 .      A
C507  N170  1.383 .      A
C507  N171  1.372 .      A
N170  C508  1.340 .      A
C508  C509  1.363 .      A
C508  C513  1.361 .      A
C509  C510  1.381 .      A
C510  C511  1.388 .      A
C511  C512  1.384 .      A
C512  C513  1.372 .      A
C513  N171  1.349 .      A
C516  N173  1.386 .      A
C516  N174  1.388 .      A
N173  C517  1.341 .      A
C517  C518  1.374 .      A
C517  C522  1.365 .      A
C518  C519  1.384 .      A
C519  C520  1.390 .      A
C520  C521  1.385 1_655  A
C521  C520  1.385 1_455  A
C521  C522  1.359 1_455  A
C522  C521  1.359 1_655  A
C522  N174  1.348 .      A
C525  N176  1.380 .      A
C525  N177  1.377 .      A
N176  C526  1.348 .      A
C526  C527  1.372 .      A
C526  C531  1.360 .      A
C527  C528  1.383 .      A
C528  C529  1.388 .      A
C529  C530  1.384 .      A
C530  C531  1.379 .      A
C531  N177  1.351 .      A
C534  N179  1.386 .      A
C534  N180  1.396 .      A
N179  C535  1.367 .      A
C535  C536  1.384 .      A
C535  C540  1.365 .      A
C536  C537  1.383 .      A
C537  C538  1.384 .      A
C538  C539  1.379 .      A
C539  C540  1.374 .      A
C540  N180  1.339 .      A
C543  N182  1.398 .      A
C543  N183  1.392 .      A
N182  C544  1.362 .      A
C544  C545  1.382 1_545  A
C544  C549  1.355 .      A
C545  C544  1.382 1_565  A
C545  C546  1.376 .      A
C546  C547  1.375 .      A
C547  C548  1.382 .      A
C548  C549  1.355 1_565  A
C549  C548  1.355 1_545  A
C549  N183  1.336 .      A
C552  N185  1.395 .      A
C552  N186  1.378 .      A
N185  C553  1.358 .      A
C553  C554  1.375 1_655  A
C553  C558  1.374 .      A
C554  C553  1.375 1_455  A
C554  C555  1.383 1_565  A
C555  C554  1.383 1_545  A
C555  C556  1.386 1_455  A
C556  C555  1.386 1_655  A
C556  C557  1.382 .      A
C557  C558  1.372 1_545  A
C558  C557  1.372 1_565  A
C558  N186  1.346 .      A
C561  N188  1.370 .      A
C561  N189  1.371 .      A
N188  C562  1.348 .      A
C562  C563  1.376 1_565  A
C562  C567  1.352 .      A
C563  C562  1.376 1_545  A
C563  C564  1.386 .      A
C564  C565  1.384 1_545  A
C565  C564  1.384 1_565  A
C565  C566  1.381 .      A
C566  C567  1.376 .      A
C567  N189  1.348 .      A
C570  N191  1.383 1_545  A
C570  N192  1.395 1_455  A
N191  C570  1.383 1_565  A
N191  C571  1.350 .      A
C571  C572  1.371 1_455  A
C571  C576  1.363 1_465  A
C572  C571  1.371 1_655  A
C572  C573  1.383 .      A
C573  C574  1.389 1_565  A
C574  C573  1.389 1_545  A
C574  C575  1.384 .      A
C575  C576  1.373 .      A
C576  C571  1.363 1_645  A
C576  N192  1.345 .      A
N192  C570  1.395 1_655  A
C579  N194  1.381 .      A
C579  N195  1.390 1_455  A
N194  C580  1.345 .      A
C580  C581  1.375 .      A
C580  C585  1.348 1_455  A
C581  C582  1.380 .      A
C582  C583  1.374 .      A
C583  C584  1.373 1_455  A
C584  C583  1.373 1_655  A
C584  C585  1.365 .      A
C585  C580  1.348 1_655  A
C585  N195  1.347 .      A
N195  C579  1.390 1_655  A
C588  N197  1.400 .      A
C588  N198  1.404 .      A
N197  C589  1.354 .      A
C589  C590  1.366 .      A
C589  C594  1.346 .      A
C590  C591  1.381 .      A
C591  C592  1.368 .      A
C592  C593  1.365 .      A
C593  C594  1.369 .      A
C594  N198  1.336 .      A
C597  N200  1.379 .      A
C597  N201  1.393 .      A
N200  C598  1.342 .      A
C598  C599  1.377 .      A
C598  C603  1.348 .      A
C599  C600  1.382 .      A
C600  C601  1.385 .      A
C601  C602  1.382 .      A
C602  C603  1.372 .      A
C603  N201  1.347 .      A
C606  N203  1.380 .      A
C606  N204  1.391 .      A
N203  C607  1.354 .      A
C607  C608  1.378 .      A
C607  C612  1.365 .      A
C608  C609  1.386 1_565  A
C609  C608  1.386 1_545  A
C609  C610  1.381 1_544  A
C610  C609  1.381 1_566  A
C610  C611  1.376 .      A
C611  C612  1.369 1_556  A
C612  C611  1.369 1_554  A
C612  N204  1.341 .      A
C615  N206  1.368 .      A
C615  N207  1.372 .      A
N206  C616  1.347 .      A
C616  C617  1.373 .      A
C616  C621  1.363 .      A
C617  C618  1.384 .      A
C618  C619  1.389 .      A
C619  C620  1.383 .      A
C620  C621  1.370 .      A
C621  N207  1.350 .      A
C624  N209  1.391 .      A
C624  N210  1.390 .      A
N209  C625  1.330 .      A
C625  C626  1.374 .      A
C625  C630  1.358 .      A
C626  C627  1.370 .      A
C627  C628  1.381 .      A
C628  C629  1.397 .      A
C629  C630  1.366 .      A
C630  N210  1.365 .      A
C633  N212  1.378 .      A
C633  N213  1.383 .      A
N212  C634  1.355 1_545  A
C634  N212  1.355 1_565  A
C634  C635  1.372 .      A
C634  C639  1.368 .      A
C635  C636  1.383 .      A
C636  C637  1.381 .      A
C637  C638  1.376 .      A
C638  C639  1.372 .      A
C639  N213  1.343 1_565  A
N213  C639  1.343 1_545  A
C642  N215  1.384 .      A
C642  N216  1.395 .      A
N215  C643  1.354 .      A
C643  C644  1.370 .      A
C643  C648  1.352 .      A
C644  C645  1.377 .      A
C645  C646  1.374 .      A
C646  C647  1.376 .      A
C647  C648  1.374 .      A
C648  N216  1.343 .      A
C651  N218  1.377 .      A
C651  N219  1.378 .      A
N218  C652  1.345 .      A
C652  C653  1.370 .      A
C652  C657  1.359 .      A
C653  C654  1.383 .      A
C654  C655  1.388 .      A
C655  C656  1.383 .      A
C656  C657  1.374 .      A
C657  N219  1.351 .      A
C660  N221  1.384 .      A
C660  N222  1.361 .      A
N221  C661  1.346 .      A
C661  C662  1.363 .      A
C661  C666  1.364 .      A
C662  C663  1.381 .      A
C663  C664  1.382 .      A
C664  C665  1.369 .      A
C665  C666  1.362 .      A
C666  N222  1.336 .      A
C669  N224  1.375 .      A
C669  N225  1.382 .      A
N224  C670  1.345 .      A
C670  C671  1.373 1_565  A
C670  C675  1.366 .      A
C671  C670  1.373 1_545  A
C671  C672  1.383 .      A
C672  C673  1.387 1_545  A
C673  C672  1.387 1_565  A
C673  C674  1.382 .      A
C674  C675  1.371 .      A
C675  N225  1.353 .      A
C678  N227  1.384 .      A
C678  N228  1.377 .      A
N227  C679  1.352 .      A
C679  C680  1.370 .      A
C679  C684  1.352 .      A
C680  C681  1.384 .      A
C681  C682  1.382 .      A
C682  C683  1.378 .      A
C683  C684  1.369 .      A
C684  N228  1.341 .      A
C687  N230  1.373 .      A
C687  N231  1.389 .      A
N230  C688  1.356 .      A
C688  C689  1.368 .      A
C688  C693  1.354 .      A
C689  C690  1.383 .      A
C690  C691  1.378 1_655  A
C691  C690  1.378 1_455  A
C691  C692  1.375 .      A
C692  C693  1.369 1_455  A
C693  C692  1.369 1_655  A
C693  N231  1.343 .      A
C696  N233  1.377 .      A
C696  N234  1.382 .      A
N233  C697  1.354 .      A
C697  C698  1.369 .      A
C697  C702  1.371 .      A
C698  C699  1.382 .      A
C699  C700  1.386 .      A
C700  C701  1.382 .      A
C701  C702  1.374 .      A
C702  N234  1.349 .      A
C705  N236  1.381 .      A
C705  N237  1.378 .      A
N236  C706  1.346 .      A
C706  C707  1.362 1_545  A
C706  C711  1.352 .      A
C707  C706  1.362 1_565  A
C707  C708  1.383 .      A
C708  C709  1.387 .      A
C709  C710  1.384 .      A
C710  C711  1.369 1_565  A
C711  C710  1.369 1_545  A
C711  N237  1.340 .      A
C714  N239  1.377 .      A
C714  N240  1.387 .      A
N239  C715  1.343 .      A
C715  C716  1.372 .      A
C715  C720  1.362 .      A
C716  C717  1.385 .      A
C717  C718  1.391 .      A
C718  C719  1.385 .      A
C719  C720  1.370 .      A
C720  N240  1.349 .      A
C723  N242  1.399 .      A
C723  N243  1.376 .      A
N242  C724  1.345 .      A
C724  C725  1.363 1_565  A
C724  C729  1.357 .      A
C725  C724  1.363 1_545  A
C725  C726  1.377 1_545  A
C726  C725  1.377 1_565  A
C726  C727  1.380 .      A
C727  C728  1.379 .      A
C728  C729  1.366 .      A
C729  N243  1.347 .      A
C732  N245  1.387 .      A
C732  N246  1.388 .      A
N245  C733  1.342 .      A
C733  C734  1.359 .      A
C733  C738  1.356 .      A
C734  C735  1.387 1_556  A
C735  C734  1.387 1_554  A
C735  C736  1.384 .      A
C736  C737  1.385 1_554  A
C737  C736  1.385 1_556  A
C737  C738  1.367 .      A
C738  N246  1.344 .      A
C741  N248  1.389 .      A
C741  N249  1.389 .      A
N248  C742  1.346 .      A
C742  C743  1.373 .      A
C742  C747  1.371 .      A
C743  C744  1.383 .      A
C744  C745  1.389 .      A
C745  C746  1.385 .      A
C746  C747  1.374 .      A
C747  N249  1.355 .      A
C750  N251  1.359 .      A
C750  N252  1.381 .      A
N251  C751  1.351 .      A
C751  C752  1.358 .      A
C751  C756  1.357 .      A
C752  C753  1.384 .      A
C753  C754  1.384 .      A
C754  C755  1.382 .      A
C755  C756  1.372 .      A
C756  N252  1.341 .      A
C759  N254  1.391 .      A
C759  N255  1.382 1_455  A
N254  C760  1.324 .      A
C760  C761  1.369 .      A
C760  C765  1.329 1_455  A
C761  C762  1.328 1_455  A
C762  C761  1.328 1_655  A
C762  C763  1.329 .      A
C763  C764  1.379 .      A
C764  C765  1.331 .      A
C765  C760  1.329 1_655  A
C765  N255  1.339 .      A
N255  C759  1.382 1_655  A
C768  N257  1.386 .      A
C768  N258  1.354 .      A
N257  C769  1.343 .      A
C769  C770  1.366 1_655  A
C769  C774  1.350 .      A
C770  C769  1.366 1_455  A
C770  C771  1.381 .      A
C771  C772  1.388 .      A
C772  C773  1.381 .      A
C773  C774  1.367 1_455  A
C774  C773  1.367 1_655  A
C774  N258  1.340 .      A
C777  N260  1.374 .      A
C777  N261  1.385 .      A
N260  C778  1.347 .      A
C778  C779  1.372 .      A
C778  C783  1.382 .      A
C779  C780  1.383 .      A
C780  C781  1.390 .      A
C781  C782  1.385 .      A
C782  C783  1.373 .      A
C783  N261  1.357 .      A
C786  N263  1.393 .      A
C786  N264  1.384 .      A
N263  C787  1.333 .      A
C787  C788  1.358 .      A
C787  C792  1.345 .      A
C788  C789  1.380 1_565  A
C789  C788  1.380 1_545  A
C789  C790  1.374 .      A
C790  C791  1.377 1_545  A
C791  C790  1.377 1_565  A
C791  C792  1.376 .      A
C792  N264  1.358 .      A
C795  N266  1.388 .      A
C795  N267  1.382 .      A
N266  C796  1.339 .      A
C796  C797  1.371 .      A
C796  C801  1.354 .      A
C797  C798  1.378 1_565  A
C798  C797  1.378 1_545  A
C798  C799  1.386 .      A
C799  C800  1.383 .      A
C800  C801  1.366 1_545  A
C801  C800  1.366 1_565  A
C801  N267  1.345 .      A
C804  N269  1.375 .      A
C804  N270  1.379 .      A
N269  C805  1.345 .      A
C805  C806  1.375 .      A
C805  C810  1.365 .      A
C806  C807  1.383 .      A
C807  C808  1.388 .      A
C808  C809  1.385 .      A
C809  C810  1.377 .      A
C810  N270  1.354 .      A
C813  N272  1.382 .      A
C813  N273  1.385 .      A
N272  C814  1.340 .      A
C814  C815  1.374 .      A
C814  C819  1.357 .      A
C815  C816  1.381 .      A
C816  C817  1.384 .      A
C817  C818  1.381 .      A
C818  C819  1.368 .      A
C819  N273  1.355 .      A
C822  N275  1.392 .      A
C822  N276  1.382 .      A
N275  C823  1.356 .      A
C823  C824  1.364 .      A
C823  C828  1.341 .      A
C824  C825  1.380 1_455  A
C825  C824  1.380 1_655  A
C825  C826  1.374 .      A
C826  C827  1.375 1_655  A
C827  C826  1.375 1_455  A
C827  C828  1.354 .      A
C828  N276  1.332 .      A
C831  N278  1.365 .      A
C831  N279  1.376 .      A
N278  C832  1.334 .      A
C832  C833  1.371 1_455  A
C832  C837  1.366 .      A
C833  C832  1.371 1_655  A
C833  C834  1.375 .      A
C834  C835  1.382 .      A
C835  C836  1.386 .      A
C836  C837  1.371 1_655  A
C837  C836  1.371 1_455  A
C837  N279  1.364 .      A
C840  N281  1.359 .      A
C840  N282  1.369 .      A
N281  C841  1.339 .      A
C841  C842  1.373 .      A
C841  C846  1.360 .      A
C842  C843  1.376 .      A
C843  C844  1.383 .      A
C844  C845  1.384 .      A
C845  C846  1.368 .      A
C846  N282  1.357 .      A
C849  N284  1.387 .      A
C849  N285  1.382 .      A
N284  C850  1.345 .      A
C850  C851  1.366 .      A
C850  C855  1.366 .      A
C851  C852  1.379 .      A
C852  C853  1.379 .      A
C853  C854  1.377 .      A
C854  C855  1.366 .      A
C855  N285  1.346 .      A
C858  N287  1.375 .      A
C858  N288  1.381 .      A
N287  C859  1.340 .      A
C859  C860  1.372 .      A
C859  C864  1.364 .      A
C860  C861  1.382 .      A
C861  C862  1.388 1_545  A
C862  C861  1.388 1_565  A
C862  C863  1.385 1_565  A
C863  C862  1.385 1_545  A
C863  C864  1.371 .      A
C864  N288  1.359 .      A
C867  N290  1.378 .      A
C867  N291  1.380 .      A
N290  C868  1.337 .      A
C868  C869  1.365 .      A
C868  C873  1.353 .      A
C869  C870  1.374 .      A
C870  C871  1.387 .      A
C871  C872  1.371 .      A
C872  C873  1.354 .      A
C873  N291  1.343 .      A
C876  N293  1.382 .      A
C876  N294  1.371 .      A
N293  C877  1.337 .      A
C877  C878  1.371 .      A
C877  C882  1.358 .      A
C878  C879  1.380 .      A
C879  C880  1.386 .      A
C880  C881  1.387 .      A
C881  C882  1.376 .      A
C882  N294  1.360 .      A
C885  N296  1.396 .      A
C885  N297  1.366 .      A
N296  C886  1.346 .      A
C886  C887  1.368 .      A
C886  C891  1.378 .      A
C887  C888  1.384 .      A
C888  C889  1.391 .      A
C889  C890  1.386 .      A
C890  C891  1.368 .      A
C891  N297  1.352 .      A
C894  N299  1.375 .      A
C894  N300  1.388 .      A
N299  C895  1.340 .      A
C895  C896  1.375 .      A
C895  C900  1.352 .      A
C896  C897  1.382 1_455  A
C897  C896  1.382 1_655  A
C897  C898  1.389 .      A
C898  C899  1.383 .      A
C899  C900  1.371 1_655  A
C900  C899  1.371 1_455  A
C900  N300  1.349 .      A
C903  N302  1.371 .      A
C903  N303  1.387 .      A
N302  C904  1.331 .      A
C904  C905  1.363 .      A
C904  C909  1.345 .      A
C905  C906  1.365 .      A
C906  C907  1.383 .      A
C907  C908  1.369 .      A
C908  C909  1.354 .      A
C909  N303  1.336 .      A
C912  N305  1.379 .      A
C912  N306  1.386 .      A
N305  C913  1.339 .      A
C913  C914  1.364 .      A
C913  C918  1.367 .      A
C914  C915  1.378 .      A
C915  C916  1.382 .      A
C916  C917  1.383 .      A
C917  C918  1.380 .      A
C918  N306  1.363 .      A
C921  N308  1.375 .      A
C921  N309  1.393 .      A
N308  C922  1.338 .      A
C922  C923  1.372 .      A
C922  C927  1.363 .      A
C923  C924  1.381 .      A
C924  C925  1.389 .      A
C925  C926  1.385 .      A
C926  C927  1.369 .      A
C927  N309  1.355 .      A
C930  N311  1.378 .      A
C930  N312  1.369 .      A
N311  C931  1.340 .      A
C931  C932  1.342 .      A
C931  C936  1.355 .      A
C932  C933  1.373 .      A
C933  C934  1.387 .      A
C934  C935  1.375 .      A
C935  C936  1.362 .      A
C936  N312  1.334 .      A
C939  N314  1.390 .      A
C939  N315  1.385 1_455  A
N314  C940  1.348 .      A
C940  C941  1.377 .      A
C940  C945  1.370 .      A
C941  C942  1.381 .      A
C942  C943  1.385 .      A
C943  C944  1.383 1_455  A
C944  C943  1.383 1_655  A
C944  C945  1.375 1_655  A
C945  C944  1.375 1_455  A
C945  N315  1.355 1_455  A
N315  C939  1.385 1_655  A
N315  C945  1.355 1_655  A
C948  N317  1.377 .      A
C948  N318  1.363 .      A
N317  C949  1.345 .      A
C949  C950  1.373 .      A
C949  C954  1.377 .      A
C950  C951  1.382 .      A
C951  C952  1.387 .      A
C952  C953  1.383 .      A
C953  C954  1.375 .      A
C954  N318  1.356 .      A
C957  N320  1.398 1_455  A
C957  N321  1.388 .      A
N320  C957  1.398 1_655  A
N320  C958  1.340 1_655  A
C958  N320  1.340 1_455  A
C958  C959  1.371 1_455  A
C958  C963  1.358 .      A
C959  C958  1.371 1_655  A
C959  C960  1.381 .      A
C960  C961  1.385 .      A
C961  C962  1.384 1_655  A
C962  C961  1.384 1_455  A
C962  C963  1.371 .      A
C963  N321  1.357 .      A
C966  N323  1.385 .      A
C966  N324  1.388 .      A
N323  C967  1.343 .      A
C967  C968  1.370 1_655  A
C967  C972  1.368 .      A
C968  C967  1.370 1_455  A
C968  C969  1.382 .      A
C969  C970  1.390 .      A
C970  C971  1.387 .      A
C971  C972  1.371 1_455  A
C972  C971  1.371 1_655  A
C972  N324  1.349 .      A
C975  N326  1.379 .      A
C975  N327  1.371 .      A
N326  C976  1.320 .      A
C976  C977  1.326 .      A
C976  C981  1.351 .      A
C977  C978  1.343 .      A
C978  C979  1.362 .      A
C979  C980  1.363 .      A
C980  C981  1.358 .      A
C981  N327  1.345 .      A
C984  N329  1.390 .      A
C984  N330  1.386 .      A
N329  C985  1.349 .      A
C985  C986  1.373 .      A
C985  C990  1.364 .      A
C986  C987  1.377 .      A
C987  C988  1.378 .      A
C988  C989  1.379 .      A
C989  C990  1.379 .      A
C990  N330  1.357 .      A
C993  N332  1.374 .      A
C993  N333  1.380 .      A
N332  C994  1.349 .      A
C994  C995  1.373 .      A
C994  C999  1.373 .      A
C995  C996  1.384 .      A
C996  C997  1.391 .      A
C997  C998  1.385 .      A
C998  C999  1.370 .      A
C999  N333  1.348 .      A
C1002 N335  1.388 .      A
C1002 N336  1.372 .      A
N335  C1003 1.351 .      A
C1003 C1004 1.374 .      A
C1003 C1008 1.365 .      A
C1004 C1005 1.385 .      A
C1005 C1006 1.389 .      A
C1006 C1007 1.383 .      A
C1007 C1008 1.373 .      A
C1008 N336  1.343 .      A
C1011 N338  1.381 .      A
C1011 N339  1.377 1_554  A
N338  C1012 1.351 .      A
C1012 C1013 1.370 .      A
C1012 C1017 1.370 1_554  A
C1013 C1014 1.391 .      A
C1014 C1015 1.388 1_554  A
C1015 C1014 1.388 1_556  A
C1015 C1016 1.379 .      A
C1016 C1017 1.370 .      A
C1017 C1012 1.370 1_556  A
C1017 N339  1.342 .      A
N339  C1011 1.377 1_556  A
C1020 N341  1.398 1_455  A
C1020 N342  1.389 .      A
N341  C1020 1.398 1_655  A
N341  C1021 1.342 .      A
C1021 C1022 1.376 .      A
C1021 C1026 1.363 1_655  A
C1022 C1023 1.380 .      A
C1023 C1024 1.382 .      A
C1024 C1025 1.381 1_655  A
C1025 C1024 1.381 1_455  A
C1025 C1026 1.371 .      A
C1026 C1021 1.363 1_455  A
C1026 N342  1.358 .      A
C1029 N344  1.394 .      A
C1029 N345  1.390 .      A
N344  C1030 1.329 .      A
C1030 C1031 1.361 .      A
C1030 C1035 1.356 .      A
C1031 C1032 1.365 .      A
C1032 C1033 1.372 .      A
C1033 C1034 1.370 .      A
C1034 C1035 1.352 .      A
C1035 N345  1.344 .      A
C1038 N347  1.370 .      A
C1038 N348  1.374 .      A
N347  C1039 1.344 .      A
C1039 C1040 1.359 .      A
C1039 C1044 1.359 .      A
C1040 C1041 1.370 .      A
C1041 C1042 1.378 .      A
C1042 C1043 1.377 .      A
C1043 C1044 1.370 .      A
C1044 N348  1.342 .      A
C1047 N350  1.376 .      A
C1047 N351  1.371 .      A
N350  C1048 1.345 .      A
C1048 C1049 1.378 .      A
C1048 C1053 1.363 .      A
C1049 C1050 1.381 .      A
C1050 C1051 1.386 .      A
C1051 C1052 1.383 .      A
C1052 C1053 1.376 .      A
C1053 N351  1.352 .      A
C1056 N353  1.397 .      A
C1056 N354  1.391 .      A
N353  C1057 1.362 .      A
C1057 C1058 1.368 .      A
C1057 C1062 1.373 .      A
C1058 C1059 1.383 .      A
C1059 C1060 1.385 .      A
C1060 C1061 1.380 .      A
C1061 C1062 1.376 .      A
C1062 N354  1.341 .      A
C1065 N356  1.397 .      A
C1065 N357  1.387 .      A
N356  C1066 1.326 .      A
C1066 C1067 1.377 .      A
C1066 C1071 1.362 .      A
C1067 C1068 1.378 .      A
C1068 C1069 1.384 .      A
C1069 C1070 1.386 .      A
C1070 C1071 1.372 .      A
C1071 N357  1.371 .      A
C1074 N359  1.391 .      A
C1074 N360  1.392 .      A
N359  C1075 1.355 .      A
C1075 C1076 1.373 .      A
C1075 C1080 1.366 .      A
C1076 C1077 1.391 .      A
C1077 C1078 1.384 .      A
C1078 C1079 1.375 .      A
C1079 C1080 1.373 .      A
C1080 N360  1.348 .      A
