data_str_m1_o12004_STI
_audit_creation_date              2015-10-01T06:33:39-0700
_symmetry_space_group_name_H-M    P1
_symmetry_Int_Tables_number       1
_space_group_crystal_system       triclinic
loop_
_symmetry_equiv_pos_as_xyz
  x,y,z
_cell_length_a                    22.6005630
_cell_length_b                    22.5214593
_cell_length_c                    22.4953853
_cell_angle_alpha                 112.979463
_cell_angle_beta                  76.8103804
_cell_angle_gamma                 75.6938373
_cell_volume                      9514.19563748

loop_
_atom_site_label
_atom_site_type_symbol
_atom_site_description
_atom_site_fract_x
_atom_site_fract_y
_atom_site_fract_z
_atom_type_partial_charge
Zn1   Zn    Zn3+2 0.860361 0.914762 0.115988 0.000000
Zn2   Zn    Zn3+2 0.019822 0.240137 0.489961 0.000000
Zn3   Zn    Zn3+2 0.335179 0.097995 0.417727 0.000000
Zn4   Zn    Zn3+2 0.576099 0.130943 0.663830 0.000000
Zn5   Zn    Zn3+2 0.556702 0.100658 0.187987 0.000000
Zn6   Zn    Zn3+2 0.652515 0.584231 0.374668 0.000000
Zn7   Zn    Zn3+2 0.788629 0.142722 0.432564 0.000000
Zn8   Zn    Zn3+2 0.351155 0.363726 0.654610 0.000000
Zn9   Zn    Zn3+2 0.545157 0.373221 0.434151 0.000000
Zn10  Zn    Zn3+2 0.161945 0.117168 0.829689 0.000000
Zn11  Zn    Zn3+2 0.937174 0.366420 0.822216 0.000000
Zn12  Zn    Zn3+2 0.182476 0.375476 0.074887 0.000000
Zn13  Zn    Zn3+2 0.433968 0.914709 0.548825 0.000000
Zn14  Zn    Zn3+2 0.940409 0.144505 0.047709 0.000000
Zn15  Zn    Zn3+2 0.077404 0.577968 0.945771 0.000000
Zn16  Zn    Zn3+2 0.516670 0.240195 0.990413 0.000000
Zn17  Zn    Zn3+2 0.716122 0.384453 0.052040 0.000000
Zn18  Zn    Zn3+2 0.955439 0.400708 0.306963 0.000000
C1    C     C_3   0.680325 0.911174 0.286799 0.000000
N1    N     N_3   0.699357 0.913811 0.221966 0.000000
C2    C     C_3   0.684261 0.985954 0.236423 0.000000
C3    C     C_R   0.704605 0.986818 0.170303 0.000000
N2    N     N_R   0.657274 0.010034 0.144573 0.000000
C4    C     C_R   0.685502 0.957108 0.077683 0.000000
C5    C     C_R   0.672687 0.952847 0.019974 0.000000
C6    C     C_R   0.703469 0.890394 0.958860 0.000000
C7    C     C_R   0.751122 0.834777 0.954295 0.000000
C8    C     C_R   0.773262 0.844448 0.008391 0.000000
C9    C     C_R   0.742139 0.907952 0.067283 0.000000
N3    N     N_R   0.761164 0.931206 0.121029 0.000000
H1    H     H_    0.707531 0.933898 0.318877 0.000000
H2    H     H_    0.626870 0.939894 0.315532 0.000000
H3    H     H_    0.692481 0.856117 0.275294 0.000000
H4    H     H_    0.672944 0.892453 0.193029 0.000000
H5    H     H_    0.632090 0.016981 0.262863 0.000000
H6    H     H_    0.711950 0.006246 0.267398 0.000000
H7    H     H_    0.648626 0.998768 0.018382 0.000000
H8    H     H_    0.692789 0.886207 0.913255 0.000000
H9    H     H_    0.775438 0.786581 0.906168 0.000000
H10   H     H_    0.815479 0.804895 0.003374 0.000000
C10   C     C_3   0.852406 0.138007 0.235177 0.000000
N4    N     N_3   0.799131 0.143362 0.288556 0.000000
C11   C     C_3   0.782265 0.083495 0.258963 0.000000
C12   C     C_R   0.815355 0.029744 0.273821 0.000000
N5    N     N_R   0.819068 0.044516 0.338432 0.000000
C13   C     C_R   0.861922 0.982185 0.324250 0.000000
C14   C     C_R   0.894616 0.969276 0.365404 0.000000
C15   C     C_R   0.946194 0.906229 0.336701 0.000000
C16   C     C_R   0.966529 0.858816 0.267232 0.000000
C17   C     C_R   0.935245 0.873669 0.225740 0.000000
C18   C     C_R   0.882048 0.934544 0.255440 0.000000
N6    N     N_R   0.852053 0.962200 0.221779 0.000000
H11   H     H_    0.837698 0.132417 0.190747 0.000000
H12   H     H_    0.863804 0.185310 0.254306 0.000000
H13   H     H_    0.895559 0.092755 0.219999 0.000000
H14   H     H_    0.759511 0.185797 0.299161 0.000000
H15   H     H_    0.729822 0.099072 0.283743 0.000000
H16   H     H_    0.795279 0.061785 0.202433 0.000000
H17   H     H_    0.882668 0.008485 0.417868 0.000000
H18   H     H_    0.972804 0.895224 0.367846 0.000000
H19   H     H_    0.008962 0.811323 0.244665 0.000000
H20   H     H_    0.955338 0.840829 0.170693 0.000000
C19   C     C_3   0.221254 0.295141 0.370324 0.000000
N7    N     N_3   0.230744 0.229403 0.371324 0.000000
C20   C     C_3   0.192323 0.244122 0.440132 0.000000
C21   C     C_R   0.183905 0.179871 0.439442 0.000000
N8    N     N_R   0.235819 0.121257 0.425262 0.000000
C22   C     C_R   0.204104 0.081020 0.436596 0.000000
C23   C     C_R   0.229983 0.015098 0.428225 0.000000
C24   C     C_R   0.188534 0.984940 0.448213 0.000000
C25   C     C_R   0.121699 0.021000 0.475912 0.000000
C26   C     C_R   0.096948 0.086249 0.481820 0.000000
C27   C     C_R   0.138306 0.115164 0.461243 0.000000
N9    N     N_R   0.122129 0.177306 0.461736 0.000000
H21   H     H_    0.253258 0.285152 0.319369 0.000000
H22   H     H_    0.169661 0.321061 0.377918 0.000000
H23   H     H_    0.234292 0.329417 0.411783 0.000000
H24   H     H_    0.279616 0.209135 0.365535 0.000000
H25   H     H_    0.218010 0.263871 0.475061 0.000000
H26   H     H_    0.143295 0.284900 0.459358 0.000000
H27   H     H_    0.280501 0.985087 0.402965 0.000000
H28   H     H_    0.208369 0.932774 0.441176 0.000000
H29   H     H_    0.088840 0.997387 0.490867 0.000000
H30   H     H_    0.046687 0.112597 0.498229 0.000000
C28   C     C_3   0.806593 0.352024 0.649228 0.000000
N10   N     N_3   0.843923 0.280862 0.595809 0.000000
C29   C     C_3   0.859830 0.276499 0.528490 0.000000
C30   C     C_R   0.900856 0.204644 0.473318 0.000000
N11   N     N_R   0.968086 0.182517 0.452798 0.000000
C31   C     C_R   0.988692 0.118277 0.399887 0.000000
C32   C     C_R   0.052344 0.072910 0.356969 0.000000
C33   C     C_R   0.062746 0.014199 0.298263 0.000000
C34   C     C_R   0.010801 0.008004 0.277811 0.000000
C35   C     C_R   0.948901 0.058092 0.318698 0.000000
C36   C     C_R   0.936668 0.106029 0.384896 0.000000
N12   N     N_R   0.878602 0.157649 0.432941 0.000000
H31   H     H_    0.786858 0.351030 0.698164 0.000000
H32   H     H_    0.838675 0.382083 0.654779 0.000000
H33   H     H_    0.766126 0.376633 0.636695 0.000000
H34   H     H_    0.821619 0.246895 0.599307 0.000000
H35   H     H_    0.815265 0.295857 0.520073 0.000000
H36   H     H_    0.890698 0.306923 0.527859 0.000000
H37   H     H_    0.094328 0.082584 0.365072 0.000000
H38   H     H_    0.112074 0.977903 0.264282 0.000000
H39   H     H_    0.019468 0.967712 0.227112 0.000000
H40   H     H_    0.913253 0.062530 0.295964 0.000000
C37   C     C_3   0.526327 0.912670 0.201786 0.000000
N13   N     N_3   0.553415 0.964470 0.230442 0.000000
C38   C     C_3   0.508335 0.020026 0.299298 0.000000
C39   C     C_R   0.459052 0.074869 0.295369 0.000000
N14   N     N_R   0.472718 0.084538 0.237073 0.000000
C40   C     C_R   0.415796 0.089204 0.224821 0.000000
C41   C     C_R   0.398728 0.096108 0.172139 0.000000
C42   C     C_R   0.344635 0.082649 0.161563 0.000000
C43   C     C_R   0.307258 0.064978 0.204668 0.000000
C44   C     C_R   0.318349 0.069801 0.263888 0.000000
C45   C     C_R   0.371658 0.084980 0.274049 0.000000
N15   N     N_R   0.394314 0.084613 0.323994 0.000000
H41   H     H_    0.555830 0.879221 0.145705 0.000000
H42   H     H_    0.529985 0.879498 0.227371 0.000000
H43   H     H_    0.475148 0.937948 0.207725 0.000000
H44   H     H_    0.564571 0.983218 0.195664 0.000000
H45   H     H_    0.481966 0.997274 0.326368 0.000000
H46   H     H_    0.535564 0.042186 0.330547 0.000000
H47   H     H_    0.424726 0.112391 0.139739 0.000000
H48   H     H_    0.333012 0.083316 0.117772 0.000000
H49   H     H_    0.269275 0.047671 0.191888 0.000000
H50   H     H_    0.289437 0.055616 0.297163 0.000000
C46   C     C_3   0.519529 0.129198 0.501263 0.000000
N16   N     N_3   0.477608 0.137203 0.461694 0.000000
C47   C     C_3   0.435111 0.208771 0.485970 0.000000
C48   C     C_R   0.366578 0.224319 0.525373 0.000000
N17   N     N_R   0.330603 0.184203 0.502957 0.000000
C49   C     C_R   0.272071 0.222330 0.555359 0.000000
C50   C     C_R   0.215890 0.209387 0.566335 0.000000
C51   C     C_R   0.158465 0.266676 0.598766 0.000000
C52   C     C_R   0.162117 0.332046 0.622364 0.000000
C53   C     C_R   0.217222 0.339290 0.634174 0.000000
C54   C     C_R   0.272008 0.282655 0.600803 0.000000
N18   N     N_R   0.331311 0.284384 0.587833 0.000000
H51   H     H_    0.493793 0.139136 0.553234 0.000000
H52   H     H_    0.555985 0.075146 0.473631 0.000000
H53   H     H_    0.544396 0.166150 0.508257 0.000000
H54   H     H_    0.456361 0.100564 0.446594 0.000000
H55   H     H_    0.452635 0.245815 0.519279 0.000000
H56   H     H_    0.434874 0.217098 0.440613 0.000000
H57   H     H_    0.215854 0.157812 0.547590 0.000000
H58   H     H_    0.112588 0.259728 0.601830 0.000000
H59   H     H_    0.121180 0.378887 0.641010 0.000000
H60   H     H_    0.220809 0.388009 0.659708 0.000000
C55   C     C_3   0.816074 0.918790 0.466106 0.000000
N19   N     N_3   0.769602 0.988050 0.518261 0.000000
C56   C     C_3   0.738301 0.024837 0.485990 0.000000
C57   C     C_R   0.707919 0.099190 0.535609 0.000000
N20   N     N_R   0.665419 0.127151 0.603805 0.000000
C58   C     C_R   0.675798 0.185984 0.634511 0.000000
C59   C     C_R   0.649704 0.233677 0.703531 0.000000
C60   C     C_R   0.655469 0.297239 0.722897 0.000000
C61   C     C_R   0.682135 0.313211 0.672494 0.000000
C62   C     C_R   0.712467 0.262264 0.603668 0.000000
C63   C     C_R   0.713476 0.197160 0.586906 0.000000
N21   N     N_R   0.737186 0.142214 0.523279 0.000000
H61   H     H_    0.810390 0.905322 0.415332 0.000000
H62   H     H_    0.866507 0.916545 0.461490 0.000000
H63   H     H_    0.807631 0.880431 0.482921 0.000000
H64   H     H_    0.796208 0.015361 0.541600 0.000000
H65   H     H_    0.775420 0.020106 0.442484 0.000000
H66   H     H_    0.703656 0.005791 0.464921 0.000000
H67   H     H_    0.625035 0.223302 0.742005 0.000000
H68   H     H_    0.633924 0.336565 0.776564 0.000000
H69   H     H_    0.677196 0.366357 0.687534 0.000000
H70   H     H_    0.732837 0.273632 0.563538 0.000000
C64   C     C_3   0.573008 0.368139 0.608755 0.000000
N22   N     N_3   0.527312 0.333229 0.603759 0.000000
C65   C     C_3   0.549821 0.278716 0.619591 0.000000
C66   C     C_R   0.494972 0.263424 0.649393 0.000000
N23   N     N_R   0.428714 0.304081 0.671751 0.000000
C67   C     C_R   0.403112 0.283429 0.715739 0.000000
C68   C     C_R   0.339452 0.299106 0.745687 0.000000
C69   C     C_R   0.324780 0.260575 0.775903 0.000000
C70   C     C_R   0.370812 0.212124 0.781794 0.000000
C71   C     C_R   0.434622 0.196225 0.749801 0.000000
C72   C     C_R   0.448532 0.230948 0.715093 0.000000
N24   N     N_R   0.507129 0.215437 0.673005 0.000000
H71   H     H_    0.570862 0.396861 0.578780 0.000000
H72   H     H_    0.562812 0.403912 0.663716 0.000000
H73   H     H_    0.621645 0.328241 0.584666 0.000000
H74   H     H_    0.532288 0.308277 0.552321 0.000000
H75   H     H_    0.587635 0.232135 0.572880 0.000000
H76   H     H_    0.569099 0.297672 0.660762 0.000000
H77   H     H_    0.302360 0.333549 0.739381 0.000000
H78   H     H_    0.276022 0.267365 0.792814 0.000000
H79   H     H_    0.357807 0.183218 0.807248 0.000000
H80   H     H_    0.471430 0.155419 0.748976 0.000000
C73   C     C_3   0.700073 0.145365 0.140538 0.000000
N25   N     N_3   0.660543 0.142992 0.199401 0.000000
C74   C     C_3   0.642475 0.205109 0.263653 0.000000
C75   C     C_R   0.572161 0.235685 0.294566 0.000000
N26   N     N_R   0.537295 0.200371 0.263824 0.000000
C76   C     C_R   0.479430 0.252527 0.286362 0.000000
C77   C     C_R   0.430025 0.249430 0.260995 0.000000
C78   C     C_R   0.381858 0.310678 0.277249 0.000000
C79   C     C_R   0.387866 0.373412 0.312335 0.000000
C80   C     C_R   0.439717 0.374994 0.334931 0.000000
C81   C     C_R   0.480691 0.314952 0.328326 0.000000
N27   N     N_R   0.537395 0.306165 0.339606 0.000000
H81   H     H_    0.748746 0.141233 0.143666 0.000000
H82   H     H_    0.706008 0.100269 0.092549 0.000000
H83   H     H_    0.676740 0.192833 0.138051 0.000000
H84   H     H_    0.692915 0.106055 0.204350 0.000000
H85   H     H_    0.662979 0.192832 0.298308 0.000000
H86   H     H_    0.656802 0.243192 0.255311 0.000000
H87   H     H_    0.431623 0.201225 0.224527 0.000000
H88   H     H_    0.343543 0.309136 0.256105 0.000000
H89   H     H_    0.354519 0.420623 0.318090 0.000000
H90   H     H_    0.451054 0.421246 0.351916 0.000000
C82   C     C_3   0.773287 0.395469 0.338434 0.000000
N28   N     N_3   0.710421 0.411653 0.386572 0.000000
C83   C     C_3   0.664399 0.411897 0.351582 0.000000
C84   C     C_R   0.604865 0.471255 0.398160 0.000000
N29   N     N_R   0.555881 0.464223 0.439890 0.000000
C85   C     C_R   0.520450 0.531280 0.489567 0.000000
C86   C     C_R   0.463999 0.558795 0.546485 0.000000
C87   C     C_R   0.440421 0.628513 0.593724 0.000000
C88   C     C_R   0.475306 0.669062 0.586385 0.000000
C89   C     C_R   0.531033 0.641485 0.528789 0.000000
C90   C     C_R   0.549407 0.574175 0.478276 0.000000
N30   N     N_R   0.601055 0.538506 0.418110 0.000000
H91   H     H_    0.807879 0.403289 0.365475 0.000000
H92   H     H_    0.793954 0.341401 0.296728 0.000000
H93   H     H_    0.766073 0.430311 0.316495 0.000000
H94   H     H_    0.696456 0.461601 0.426973 0.000000
H95   H     H_    0.682208 0.416741 0.304623 0.000000
H96   H     H_    0.652086 0.365321 0.342188 0.000000
H97   H     H_    0.436183 0.529608 0.555080 0.000000
H98   H     H_    0.395738 0.650850 0.638131 0.000000
H99   H     H_    0.459085 0.722269 0.625797 0.000000
H100  H     H_    0.560139 0.671856 0.526556 0.000000
C91   C     C_3   0.800845 0.283765 0.386465 0.000000
N31   N     N_3   0.769109 0.340272 0.456438 0.000000
C92   C     C_3   0.701344 0.351480 0.488298 0.000000
C93   C     C_R   0.681790 0.292291 0.452427 0.000000
N32   N     N_R   0.622025 0.305581 0.443092 0.000000
C94   C     C_R   0.614879 0.245132 0.429216 0.000000
C95   C     C_R   0.563601 0.228876 0.417068 0.000000
C96   C     C_R   0.575237 0.159473 0.382127 0.000000
C97   C     C_R   0.625081 0.112032 0.384750 0.000000
C98   C     C_R   0.669755 0.132271 0.410793 0.000000
C99   C     C_R   0.667294 0.197686 0.425581 0.000000
N33   N     N_R   0.712768 0.223529 0.438373 0.000000
H101  H     H_    0.768552 0.283978 0.356579 0.000000
H102  H     H_    0.843307 0.291473 0.360589 0.000000
H103  H     H_    0.819419 0.233958 0.387024 0.000000
H104  H     H_    0.770971 0.386173 0.457482 0.000000
H105  H     H_    0.693720 0.362678 0.542272 0.000000
H106  H     H_    0.668563 0.399101 0.491758 0.000000
H107  H     H_    0.518748 0.267836 0.426693 0.000000
H108  H     H_    0.541316 0.143862 0.359109 0.000000
H109  H     H_    0.626325 0.060394 0.371612 0.000000
H110  H     H_    0.707111 0.095395 0.413769 0.000000
C100  C     C_3   0.382550 0.585169 0.730326 0.000000
N34   N     N_3   0.378463 0.530771 0.671256 0.000000
C101  C     C_3   0.439411 0.470374 0.639169 0.000000
C102  C     C_R   0.437812 0.412330 0.577239 0.000000
N35   N     N_R   0.383647 0.396638 0.589546 0.000000
C103  C     C_R   0.360012 0.402486 0.541497 0.000000
C104  C     C_R   0.298424 0.409057 0.540171 0.000000
C105  C     C_R   0.275485 0.441013 0.504243 0.000000
C106  C     C_R   0.311626 0.472102 0.477601 0.000000
C107  C     C_R   0.374283 0.462043 0.478037 0.000000
C108  C     C_R   0.401215 0.416585 0.500065 0.000000
N36   N     N_R   0.456396 0.410859 0.514090 0.000000
H111  H     H_    0.337928 0.632818 0.753369 0.000000
H112  H     H_    0.385632 0.568316 0.770076 0.000000
H113  H     H_    0.426190 0.597218 0.713767 0.000000
H114  H     H_    0.340453 0.517514 0.691417 0.000000
H115  H     H_    0.480469 0.485861 0.622999 0.000000
H116  H     H_    0.444280 0.453786 0.678538 0.000000
H117  H     H_    0.266323 0.395348 0.569817 0.000000
H118  H     H_    0.226419 0.448719 0.503995 0.000000
H119  H     H_    0.290737 0.504665 0.457032 0.000000
H120  H     H_    0.400818 0.490381 0.462239 0.000000
C109  C     C_3   0.941014 0.091770 0.743718 0.000000
N37   N     N_3   0.950339 0.157869 0.768336 0.000000
C110  C     C_3   0.010629 0.144681 0.780989 0.000000
C111  C     C_R   0.032888 0.204316 0.804468 0.000000
N38   N     N_R   0.004916 0.271267 0.810614 0.000000
C112  C     C_R   0.058772 0.284000 0.796197 0.000000
C113  C     C_R   0.065770 0.329689 0.772820 0.000000
C114  C     C_R   0.124541 0.335032 0.756621 0.000000
C115  C     C_R   0.177738 0.285317 0.750445 0.000000
C116  C     C_R   0.168451 0.242607 0.778416 0.000000
C117  C     C_R   0.109973 0.238949 0.796441 0.000000
N39   N     N_R   0.096589 0.187215 0.804213 0.000000
H121  H     H_    0.899345 0.095073 0.725731 0.000000
H122  H     H_    0.985119 0.049701 0.699335 0.000000
H123  H     H_    0.930390 0.078458 0.786459 0.000000
H124  H     H_    0.912385 0.192143 0.815871 0.000000
H125  H     H_    0.005807 0.125488 0.818540 0.000000
H126  H     H_    0.050712 0.102922 0.732235 0.000000
H127  H     H_    0.029197 0.357324 0.761457 0.000000
H128  H     H_    0.127964 0.378665 0.749631 0.000000
H129  H     H_    0.225237 0.285026 0.729323 0.000000
H130  H     H_    0.204285 0.213681 0.788817 0.000000
C118  C     C_3   0.290846 0.345056 0.925997 0.000000
N40   N     N_3   0.237833 0.325775 0.952585 0.000000
C119  C     C_3   0.219321 0.276105 0.904457 0.000000
C120  C     C_R   0.169369 0.261098 0.944238 0.000000
N41   N     N_R   0.158012 0.292202 0.014407 0.000000
C121  C     C_R   0.161220 0.239020 0.029294 0.000000
C122  C     C_R   0.183564 0.234636 0.080335 0.000000
C123  C     C_R   0.225776 0.171255 0.067352 0.000000
C124  C     C_R   0.243727 0.112754 0.005247 0.000000
C125  C     C_R   0.217747 0.116849 0.956590 0.000000
C126  C     C_R   0.174524 0.179022 0.969582 0.000000
N42   N     N_R   0.173309 0.192506 0.916741 0.000000
H131  H     H_    0.280760 0.365986 0.891059 0.000000
H132  H     H_    0.292028 0.389245 0.970055 0.000000
H133  H     H_    0.338837 0.302575 0.904785 0.000000
H134  H     H_    0.198785 0.368749 0.968286 0.000000
H135  H     H_    0.198039 0.299681 0.878217 0.000000
H136  H     H_    0.259900 0.226449 0.869638 0.000000
H137  H     H_    0.179111 0.280095 0.124098 0.000000
H138  H     H_    0.250155 0.168688 0.102844 0.000000
H139  H     H_    0.281132 0.064774 0.993013 0.000000
H140  H     H_    0.238925 0.074957 0.904907 0.000000
C127  C     C_3   0.296346 0.108829 0.713813 0.000000
N43   N     N_3   0.244797 0.106030 0.683789 0.000000
C128  C     C_3   0.248767 0.036441 0.644640 0.000000
C129  C     C_R   0.280659 0.998340 0.674093 0.000000
N44   N     N_R   0.345281 0.948836 0.640770 0.000000
C130  C     C_R   0.349557 0.930084 0.690023 0.000000
C131  C     C_R   0.400987 0.878380 0.684813 0.000000
C132  C     C_R   0.394390 0.864093 0.739910 0.000000
C133  C     C_R   0.336049 0.898944 0.796741 0.000000
C134  C     C_R   0.284971 0.951141 0.800992 0.000000
C135  C     C_R   0.293731 0.969448 0.749359 0.000000
N45   N     N_R   0.250178 0.019030 0.743959 0.000000
H141  H     H_    0.280156 0.116533 0.767569 0.000000
H142  H     H_    0.345963 0.068761 0.683175 0.000000
H143  H     H_    0.302822 0.155823 0.720525 0.000000
H144  H     H_    0.242278 0.133250 0.655816 0.000000
H145  H     H_    0.198495 0.036312 0.653414 0.000000
H146  H     H_    0.274707 0.013250 0.588471 0.000000
H147  H     H_    0.444783 0.848955 0.638825 0.000000
H148  H     H_    0.433900 0.823712 0.737595 0.000000
H149  H     H_    0.330014 0.884372 0.837533 0.000000
H150  H     H_    0.238246 0.973212 0.841067 0.000000
C136  C     C_3   0.149064 0.047575 0.062177 0.000000
N46   N     N_3   0.106451 0.092230 0.043891 0.000000
C137  C     C_3   0.114492 0.052578 0.972239 0.000000
C138  C     C_R   0.077882 0.094779 0.945308 0.000000
N47   N     N_R   0.016823 0.092868 0.955494 0.000000
C139  C     C_R   0.022517 0.049584 0.890532 0.000000
C140  C     C_R   0.987446 0.008901 0.869429 0.000000
C141  C     C_R   0.006409 0.964691 0.799255 0.000000
C142  C     C_R   0.060256 0.960833 0.751357 0.000000
C143  C     C_R   0.097571 0.998718 0.773744 0.000000
C144  C     C_R   0.078211 0.040493 0.843819 0.000000
N48   N     N_R   0.110231 0.075855 0.876849 0.000000
H151  H     H_    0.152557 0.079787 0.112120 0.000000
H152  H     H_    0.128317 0.009395 0.067554 0.000000
H153  H     H_    0.198871 0.018238 0.021965 0.000000
H154  H     H_    0.115066 0.137665 0.054005 0.000000
H155  H     H_    0.166161 0.025503 0.939396 0.000000
H156  H     H_    0.094966 0.011215 0.968463 0.000000
H157  H     H_    0.951539 0.004374 0.905344 0.000000
H158  H     H_    0.979826 0.931687 0.781774 0.000000
H159  H     H_    0.074472 0.926132 0.696774 0.000000
H160  H     H_    0.141385 0.993738 0.737495 0.000000
C145  C     C_3   0.939350 0.424736 0.038255 0.000000
N49   N     N_3   0.917690 0.405578 0.979607 0.000000
C146  C     C_3   0.849662 0.415658 0.006760 0.000000
C147  C     C_R   0.822348 0.394165 0.952109 0.000000
N50   N     N_R   0.844677 0.395004 0.890407 0.000000
C148  C     C_R   0.789194 0.411648 0.877537 0.000000
C149  C     C_R   0.780175 0.430326 0.828174 0.000000
C150  C     C_R   0.717393 0.450374 0.827517 0.000000
C151  C     C_R   0.666639 0.447006 0.872583 0.000000
C152  C     C_R   0.677214 0.426707 0.921101 0.000000
C153  C     C_R   0.738628 0.412128 0.924481 0.000000
N51   N     N_R   0.758743 0.399557 0.971898 0.000000
H161  H     H_    0.988344 0.386659 0.022775 0.000000
H162  H     H_    0.937846 0.478407 0.058455 0.000000
H163  H     H_    0.906517 0.424591 0.082155 0.000000
H164  H     H_    0.944232 0.354026 0.942907 0.000000
H165  H     H_    0.841407 0.386629 0.034848 0.000000
H166  H     H_    0.821844 0.471266 0.043291 0.000000
H167  H     H_    0.820017 0.431521 0.792357 0.000000
H168  H     H_    0.708010 0.467373 0.790627 0.000000
H169  H     H_    0.618312 0.461002 0.870101 0.000000
H170  H     H_    0.637809 0.423908 0.955156 0.000000
C154  C     C_3   0.987751 0.459614 0.604223 0.000000
N52   N     N_3   0.956924 0.439959 0.653929 0.000000
C155  C     C_3   0.003762 0.379337 0.648101 0.000000
C156  C     C_R   0.972424 0.330932 0.655800 0.000000
N53   N     N_R   0.944022 0.331421 0.718160 0.000000
C157  C     C_R   0.927611 0.275577 0.696380 0.000000
C158  C     C_R   0.886073 0.259899 0.737231 0.000000
C159  C     C_R   0.865260 0.207405 0.706478 0.000000
C160  C     C_R   0.894552 0.164013 0.636382 0.000000
C161  C     C_R   0.937359 0.179253 0.595693 0.000000
C162  C     C_R   0.950181 0.239390 0.626129 0.000000
N54   N     N_R   0.977160 0.274670 0.597628 0.000000
H171  H     H_    0.952463 0.507981 0.611081 0.000000
H172  H     H_    0.031412 0.469392 0.613472 0.000000
H173  H     H_    0.002603 0.418059 0.550605 0.000000
H174  H     H_    0.916286 0.429468 0.646986 0.000000
H175  H     H_    0.042938 0.351457 0.596151 0.000000
H176  H     H_    0.023288 0.396687 0.689294 0.000000
H177  H     H_    0.868787 0.287338 0.792182 0.000000
H178  H     H_    0.828907 0.197745 0.737872 0.000000
H179  H     H_    0.880147 0.120880 0.612359 0.000000
H180  H     H_    0.948969 0.149222 0.541859 0.000000
C163  C     C_3   0.820142 0.580980 0.960683 0.000000
N55   N     N_3   0.875371 0.598668 0.973617 0.000000
C164  C     C_3   0.917141 0.545192 0.983599 0.000000
C165  C     C_R   0.976102 0.496523 0.918290 0.000000
N56   N     N_R   0.960670 0.459530 0.862410 0.000000
C166  C     C_R   0.967503 0.495141 0.826928 0.000000
C167  C     C_R   0.925110 0.512200 0.796100 0.000000
C168  C     C_R   0.922700 0.566866 0.781583 0.000000
C169  C     C_R   0.961277 0.604655 0.799616 0.000000
C170  C     C_R   0.999165 0.590837 0.836261 0.000000
C171  C     C_R   0.001477 0.536161 0.849816 0.000000
N57   N     N_R   0.015485 0.530804 0.902975 0.000000
H181  H     H_    0.790476 0.619939 0.949859 0.000000
H182  H     H_    0.836838 0.528959 0.915915 0.000000
H183  H     H_    0.788886 0.581604 0.006564 0.000000
H184  H     H_    0.854262 0.644695 0.020210 0.000000
H185  H     H_    0.933808 0.570203 0.026176 0.000000
H186  H     H_    0.886735 0.519233 0.998393 0.000000
H187  H     H_    0.891503 0.486195 0.787020 0.000000
H188  H     H_    0.889234 0.581304 0.757653 0.000000
H189  H     H_    0.957714 0.648561 0.789939 0.000000
H190  H     H_    0.020962 0.626401 0.859054 0.000000
C172  C     C_3   0.002569 0.549078 0.235221 0.000000
N58   N     N_3   0.995445 0.502088 0.173202 0.000000
C173  C     C_3   0.013733 0.430264 0.161600 0.000000
C174  C     C_R   0.058154 0.413557 0.196098 0.000000
N59   N     N_R   0.123242 0.404991 0.174220 0.000000
C175  C     C_R   0.136900 0.415417 0.231948 0.000000
C176  C     C_R   0.195620 0.411242 0.240412 0.000000
C177  C     C_R   0.197236 0.427218 0.305871 0.000000
C178  C     C_R   0.140981 0.445874 0.360735 0.000000
C179  C     C_R   0.083012 0.445717 0.350229 0.000000
C180  C     C_R   0.082792 0.428655 0.284630 0.000000
N60   N     N_R   0.033147 0.422518 0.261893 0.000000
H191  H     H_    0.054852 0.540141 0.227288 0.000000
H192  H     H_    0.978763 0.603105 0.245548 0.000000
H193  H     H_    0.977558 0.545221 0.281209 0.000000
H194  H     H_    0.024403 0.503244 0.131169 0.000000
H195  H     H_    0.969387 0.425091 0.186462 0.000000
H196  H     H_    0.035472 0.392945 0.105802 0.000000
H197  H     H_    0.239271 0.394891 0.197551 0.000000
H198  H     H_    0.242548 0.425576 0.314524 0.000000
H199  H     H_    0.142875 0.459233 0.411750 0.000000
H200  H     H_    0.039250 0.460424 0.392831 0.000000
C181  C     C_3   0.154873 0.422794 0.881562 0.000000
N61   N     N_3   0.112529 0.396733 0.914813 0.000000
C182  C     C_3   0.079804 0.439097 0.988715 0.000000
C183  C     C_R   0.112402 0.483367 0.020814 0.000000
N62   N     N_R   0.145025 0.470992 0.063027 0.000000
C184  C     C_R   0.149842 0.533317 0.095311 0.000000
C185  C     C_R   0.169841 0.556055 0.150453 0.000000
C186  C     C_R   0.168335 0.623420 0.178042 0.000000
C187  C     C_R   0.145769 0.667030 0.151428 0.000000
C188  C     C_R   0.123282 0.644451 0.097469 0.000000
C189  C     C_R   0.125644 0.577251 0.070023 0.000000
N63   N     N_R   0.103005 0.546243 0.020210 0.000000
H201  H     H_    0.183734 0.446419 0.909544 0.000000
H202  H     H_    0.195341 0.379865 0.835785 0.000000
H203  H     H_    0.126092 0.453995 0.863939 0.000000
H204  H     H_    0.076280 0.392884 0.894211 0.000000
H205  H     H_    0.030581 0.473666 0.000450 0.000000
H206  H     H_    0.078624 0.404393 0.011916 0.000000
H207  H     H_    0.182713 0.524074 0.174228 0.000000
H208  H     H_    0.183594 0.642794 0.221705 0.000000
H209  H     H_    0.144232 0.719712 0.174256 0.000000
H210  H     H_    0.103638 0.679083 0.078347 0.000000
C190  C     C_3   0.333639 0.492806 0.216979 0.000000
N64   N     N_3   0.363396 0.421991 0.160220 0.000000
C191  C     C_3   0.330909 0.418195 0.110798 0.000000
C192  C     C_R   0.345186 0.344496 0.062154 0.000000
N65   N     N_R   0.408871 0.291191 0.026287 0.000000
C193  C     C_R   0.393910 0.237727 0.992341 0.000000
C194  C     C_R   0.438102 0.172604 0.947166 0.000000
C195  C     C_R   0.420151 0.122163 0.908219 0.000000
C196  C     C_R   0.356930 0.138772 0.914152 0.000000
C197  C     C_R   0.313312 0.204424 0.961991 0.000000
C198  C     C_R   0.329843 0.254933 0.003227 0.000000
N66   N     N_R   0.293836 0.324032 0.048285 0.000000
H211  H     H_    0.282780 0.503287 0.247663 0.000000
H212  H     H_    0.362341 0.499580 0.251361 0.000000
H213  H     H_    0.333201 0.530181 0.196276 0.000000
H214  H     H_    0.353484 0.389493 0.180520 0.000000
H215  H     H_    0.277723 0.443977 0.138487 0.000000
H216  H     H_    0.344555 0.446189 0.082466 0.000000
H217  H     H_    0.486806 0.160398 0.941220 0.000000
H218  H     H_    0.455560 0.071244 0.872653 0.000000
H219  H     H_    0.341718 0.101115 0.880777 0.000000
H220  H     H_    0.268463 0.215352 0.961875 0.000000
C199  C     C_3   0.377310 0.152724 0.614877 0.000000
N67   N     N_3   0.398532 0.098325 0.545588 0.000000
C200  C     C_3   0.356971 0.060900 0.546824 0.000000
C201  C     C_R   0.380542 0.001956 0.481356 0.000000
N68   N     N_R   0.374276 0.007479 0.424681 0.000000
C202  C     C_R   0.400246 0.940078 0.376022 0.000000
C203  C     C_R   0.401458 0.913148 0.309323 0.000000
C204  C     C_R   0.429456 0.841578 0.268458 0.000000
C205  C     C_R   0.458223 0.799546 0.293807 0.000000
C206  C     C_R   0.455116 0.828071 0.361772 0.000000
C207  C     C_R   0.422082 0.898048 0.403371 0.000000
N69   N     N_R   0.409329 0.936174 0.471777 0.000000
H221  H     H_    0.395154 0.192870 0.613968 0.000000
H222  H     H_    0.323487 0.177684 0.636546 0.000000
H223  H     H_    0.398451 0.131050 0.644619 0.000000
H224  H     H_    0.444728 0.063897 0.533526 0.000000
H225  H     H_    0.363142 0.039145 0.581198 0.000000
H226  H     H_    0.307220 0.091766 0.555015 0.000000
H227  H     H_    0.380187 0.946603 0.289833 0.000000
H228  H     H_    0.431366 0.818536 0.215605 0.000000
H229  H     H_    0.483130 0.744100 0.260247 0.000000
H230  H     H_    0.479542 0.796866 0.380739 0.000000
C208  C     C_3   0.508199 0.960470 0.754400 0.000000
N70   N     N_3   0.517825 0.008365 0.727886 0.000000
C209  C     C_3   0.465862 0.026180 0.702291 0.000000
C210  C     C_R   0.492590 0.025978 0.634751 0.000000
N71   N     N_R   0.546499 0.044169 0.618416 0.000000
C211  C     C_R   0.578113 0.997116 0.550919 0.000000
C212  C     C_R   0.643287 0.957684 0.524003 0.000000
C213  C     C_R   0.669651 0.899289 0.459326 0.000000
C214  C     C_R   0.629507 0.878351 0.424745 0.000000
C215  C     C_R   0.562871 0.909338 0.459670 0.000000
C216  C     C_R   0.539474 0.964367 0.525404 0.000000
N72   N     N_R   0.485623 0.979236 0.577148 0.000000
H231  H     H_    0.538456 0.958675 0.786437 0.000000
H232  H     H_    0.455872 0.977577 0.786019 0.000000
H233  H     H_    0.524457 0.907109 0.711956 0.000000
H234  H     H_    0.562842 0.981855 0.686892 0.000000
H235  H     H_    0.443655 0.986606 0.692362 0.000000
H236  H     H_    0.426584 0.075445 0.742067 0.000000
H237  H     H_    0.671798 0.968766 0.555924 0.000000
H238  H     H_    0.721193 0.867614 0.436884 0.000000
H239  H     H_    0.649985 0.831743 0.375233 0.000000
H240  H     H_    0.532112 0.884397 0.439133 0.000000
C217  C     C_3   0.364801 0.742795 0.443633 0.000000
N73   N     N_3   0.411166 0.766242 0.472384 0.000000
C218  C     C_3   0.476053 0.711775 0.431513 0.000000
C219  C     C_R   0.526044 0.738615 0.452413 0.000000
N74   N     N_R   0.509449 0.807811 0.501727 0.000000
C220  C     C_R   0.566268 0.802362 0.513463 0.000000
C221  C     C_R   0.576306 0.848303 0.567467 0.000000
C222  C     C_R   0.638260 0.833595 0.570822 0.000000
C223  C     C_R   0.689425 0.773138 0.519465 0.000000
C224  C     C_R   0.677262 0.724786 0.468297 0.000000
C225  C     C_R   0.614651 0.738837 0.469004 0.000000
N75   N     N_R   0.591545 0.694669 0.430768 0.000000
H241  H     H_    0.314265 0.780275 0.478464 0.000000
H242  H     H_    0.374031 0.740114 0.391896 0.000000
H243  H     H_    0.369596 0.690845 0.439075 0.000000
H244  H     H_    0.398468 0.771860 0.522463 0.000000
H245  H     H_    0.477741 0.666551 0.440351 0.000000
H246  H     H_    0.487155 0.694669 0.375648 0.000000
H247  H     H_    0.535872 0.892648 0.607850 0.000000
H248  H     H_    0.647149 0.869676 0.613002 0.000000
H249  H     H_    0.738297 0.762641 0.520791 0.000000
H250  H     H_    0.715988 0.677826 0.428463 0.000000
C226  C     C_3   0.014861 0.235609 0.951999 0.000000
N76   N     N_3   0.946836 0.258163 0.991750 0.000000
C227  C     C_3   0.904336 0.239088 0.954713 0.000000
C228  C     C_R   0.848447 0.246032 0.008449 0.000000
N77   N     N_R   0.863842 0.211498 0.044457 0.000000
C229  C     C_R   0.809072 0.239679 0.098432 0.000000
C230  C     C_R   0.804612 0.237146 0.157702 0.000000
C231  C     C_R   0.745402 0.274151 0.210091 0.000000
C232  C     C_R   0.692246 0.309926 0.199961 0.000000
C233  C     C_R   0.701161 0.319125 0.142781 0.000000
C234  C     C_R   0.761948 0.285925 0.094333 0.000000
N78   N     N_R   0.784921 0.296357 0.040786 0.000000
H251  H     H_    0.042854 0.232070 0.985649 0.000000
H252  H     H_    0.029595 0.185250 0.908016 0.000000
H253  H     H_    0.024445 0.273696 0.936047 0.000000
H254  H     H_    0.929126 0.311074 0.017025 0.000000
H255  H     H_    0.890702 0.272197 0.931040 0.000000
H256  H     H_    0.926611 0.183635 0.916343 0.000000
H257  H     H_    0.846857 0.210067 0.163606 0.000000
H258  H     H_    0.740380 0.270981 0.257341 0.000000
H259  H     H_    0.643418 0.332337 0.237614 0.000000
H260  H     H_    0.661610 0.349728 0.136215 0.000000
C235  C     C_3   0.815477 0.420834 0.179110 0.000000
N79   N     N_3   0.871909 0.395851 0.195796 0.000000
C236  C     C_3   0.918828 0.330529 0.139528 0.000000
C237  C     C_R   0.946611 0.284980 0.165238 0.000000
N80   N     N_R   0.953503 0.308271 0.229269 0.000000
C238  C     C_R   0.968649 0.248350 0.232922 0.000000
C239  C     C_R   0.969468 0.237354 0.287666 0.000000
C240  C     C_R   0.999187 0.170824 0.275178 0.000000
C241  C     C_R   0.019455 0.116012 0.210134 0.000000
C242  C     C_R   0.000060 0.128581 0.161415 0.000000
C243  C     C_R   0.975565 0.194390 0.174133 0.000000
N81   N     N_R   0.958588 0.214510 0.130717 0.000000
H261  H     H_    0.771148 0.434407 0.221732 0.000000
H262  H     H_    0.814620 0.467391 0.173186 0.000000
H263  H     H_    0.813722 0.382840 0.131917 0.000000
H264  H     H_    0.855230 0.384086 0.234517 0.000000
H265  H     H_    0.893493 0.302792 0.111612 0.000000
H266  H     H_    0.958448 0.337063 0.106950 0.000000
H267  H     H_    0.946253 0.277842 0.338937 0.000000
H268  H     H_    0.008453 0.163009 0.316046 0.000000
H269  H     H_    0.047090 0.063923 0.198531 0.000000
H270  H     H_    0.009866 0.089866 0.110853 0.000000
C244  C     C_3   0.066942 0.881024 0.066671 0.000000
N82   N     N_3   0.997853 0.915511 0.081277 0.000000
C245  C     C_3   0.988075 0.984106 0.088443 0.000000
C246  C     C_R   0.924768 0.014941 0.081569 0.000000
N83   N     N_R   0.883139 0.979621 0.077081 0.000000
C247  C     C_R   0.850139 0.000996 0.041937 0.000000
C248  C     C_R   0.827885 0.960881 0.996176 0.000000
C249  C     C_R   0.803760 0.983514 0.954768 0.000000
C250  C     C_R   0.807253 0.043773 0.955671 0.000000
C251  C     C_R   0.841068 0.076630 0.992155 0.000000
C252  C     C_R   0.864122 0.053417 0.034274 0.000000
N84   N     N_R   0.911071 0.065918 0.060060 0.000000
H271  H     H_    0.084301 0.916836 0.101818 0.000000
H272  H     H_    0.073678 0.834634 0.074746 0.000000
H273  H     H_    0.096154 0.864110 0.012061 0.000000
H274  H     H_    0.971991 0.922519 0.129688 0.000000
H275  H     H_    0.986821 0.014459 0.140427 0.000000
H276  H     H_    0.029190 0.979963 0.047273 0.000000
H277  H     H_    0.839985 0.907806 0.984228 0.000000
H278  H     H_    0.787486 0.951372 0.917323 0.000000
H279  H     H_    0.792315 0.058950 0.919842 0.000000
H280  H     H_    0.858123 0.109579 0.975782 0.000000
C253  C     C_3   0.920958 0.715452 0.201214 0.000000
N85   N     N_3   0.962708 0.713647 0.140607 0.000000
C254  C     C_3   0.921869 0.731548 0.104295 0.000000
C255  C     C_R   0.959671 0.742738 0.048992 0.000000
N86   N     N_R   0.937924 0.806149 0.047439 0.000000
C256  C     C_R   0.984914 0.790288 0.987481 0.000000
C257  C     C_R   0.987654 0.828603 0.952567 0.000000
C258  C     C_R   0.041970 0.804326 0.893944 0.000000
C259  C     C_R   0.093059 0.742288 0.870402 0.000000
C260  C     C_R   0.088672 0.702320 0.903358 0.000000
C261  C     C_R   0.033171 0.725763 0.959826 0.000000
N87   N     N_R   0.018357 0.691185 0.994456 0.000000
H281  H     H_    0.951103 0.702694 0.230244 0.000000
H282  H     H_    0.882298 0.768013 0.235741 0.000000
H283  H     H_    0.898224 0.676664 0.184281 0.000000
H284  H     H_    0.993930 0.661893 0.108108 0.000000
H285  H     H_    0.905834 0.688809 0.081328 0.000000
H286  H     H_    0.878236 0.779752 0.140606 0.000000
H287  H     H_    0.949222 0.876107 0.968798 0.000000
H288  H     H_    0.044902 0.834599 0.866856 0.000000
H289  H     H_    0.135946 0.724456 0.825380 0.000000
H290  H     H_    0.128205 0.654320 0.885109 0.000000
C262  C     C_3   0.155820 0.551472 0.665115 0.000000
N88   N     N_3   0.199523 0.518944 0.691570 0.000000
C263  C     C_3   0.159406 0.513114 0.747858 0.000000
C264  C     C_R   0.199216 0.491298 0.785372 0.000000
N89   N     N_R   0.267696 0.451224 0.753944 0.000000
C265  C     C_R   0.285428 0.477702 0.809273 0.000000
C266  C     C_R   0.348078 0.464725 0.809285 0.000000
C267  C     C_R   0.356287 0.501158 0.870546 0.000000
C268  C     C_R   0.302560 0.549842 0.930134 0.000000
C269  C     C_R   0.239811 0.562595 0.929271 0.000000
C270  C     C_R   0.232211 0.525513 0.868773 0.000000
N90   N     N_R   0.175375 0.532982 0.857578 0.000000
H291  H     H_    0.118060 0.601849 0.707479 0.000000
H292  H     H_    0.184473 0.561885 0.625932 0.000000
H293  H     H_    0.131805 0.516304 0.640835 0.000000
H294  H     H_    0.221570 0.553372 0.712918 0.000000
H295  H     H_    0.123699 0.565519 0.785803 0.000000
H296  H     H_    0.132158 0.479375 0.730150 0.000000
H297  H     H_    0.390058 0.429515 0.762645 0.000000
H298  H     H_    0.405067 0.493379 0.871499 0.000000
H299  H     H_    0.309924 0.579374 0.976989 0.000000
H300  H     H_    0.198463 0.603887 0.973164 0.000000
C271  C     C_3   0.777154 0.165176 0.873869 0.000000
N91   N     N_3   0.724101 0.232648 0.915468 0.000000
C272  C     C_3   0.680891 0.232179 0.973814 0.000000
C273  C     C_R   0.626460 0.300634 0.014527 0.000000
N92   N     N_R   0.562764 0.309584 0.019201 0.000000
C274  C     C_R   0.534834 0.379063 0.044804 0.000000
C275  C     C_R   0.476444 0.415493 0.045775 0.000000
C276  C     C_R   0.458776 0.486482 0.069680 0.000000
C277  C     C_R   0.500602 0.519074 0.090443 0.000000
C278  C     C_R   0.561779 0.480342 0.084208 0.000000
C279  C     C_R   0.577924 0.410022 0.059611 0.000000
N93   N     N_R   0.636894 0.361757 0.040473 0.000000
H301  H     H_    0.809742 0.157793 0.902539 0.000000
H302  H     H_    0.757469 0.123363 0.860153 0.000000
H303  H     H_    0.805443 0.163024 0.825630 0.000000
H304  H     H_    0.697149 0.239410 0.884988 0.000000
H305  H     H_    0.659823 0.192726 0.955416 0.000000
H306  H     H_    0.707813 0.221042 0.005875 0.000000
H307  H     H_    0.448579 0.387997 0.022396 0.000000
H308  H     H_    0.412965 0.516459 0.070322 0.000000
H309  H     H_    0.486657 0.574339 0.108230 0.000000
H310  H     H_    0.596596 0.504228 0.095091 0.000000
C280  C     C_3   0.503832 0.388899 0.881189 0.000000
N94   N     N_3   0.541647 0.319239 0.866775 0.000000
C281  C     C_3   0.502196 0.277190 0.852690 0.000000
C282  C     C_R   0.542080 0.204058 0.832214 0.000000
N95   N     N_R   0.574493 0.151076 0.763996 0.000000
C283  C     C_R   0.616650 0.102882 0.770943 0.000000
C284  C     C_R   0.664085 0.041172 0.718533 0.000000
C285  C     C_R   0.704085 0.999179 0.736337 0.000000
C286  C     C_R   0.696088 0.019896 0.805396 0.000000
C287  C     C_R   0.648429 0.082983 0.857448 0.000000
C288  C     C_R   0.608711 0.124092 0.838978 0.000000
N96   N     N_R   0.559986 0.187583 0.880071 0.000000
H311  H     H_    0.526579 0.425160 0.906154 0.000000
H312  H     H_    0.503706 0.388868 0.831902 0.000000
H313  H     H_    0.452735 0.406618 0.916428 0.000000
H314  H     H_    0.551788 0.321762 0.910201 0.000000
H315  H     H_    0.458084 0.297306 0.899317 0.000000
H316  H     H_    0.487710 0.280701 0.810830 0.000000
H317  H     H_    0.670433 0.026299 0.665131 0.000000
H318  H     H_    0.741926 0.950103 0.696288 0.000000
H319  H     H_    0.727573 0.986560 0.818710 0.000000
H320  H     H_    0.642420 0.097611 0.910680 0.000000
C289  C     C_3   0.512730 0.361872 0.192412 0.000000
N97   N     N_3   0.495687 0.301999 0.160682 0.000000
C290  C     C_3   0.554312 0.240365 0.132151 0.000000
C291  C     C_R   0.542958 0.177250 0.091646 0.000000
N98   N     N_R   0.544286 0.124182 0.109211 0.000000
C292  C     C_R   0.535986 0.077713 0.055965 0.000000
C293  C     C_R   0.530967 0.015741 0.049313 0.000000
C294  C     C_R   0.529152 0.970430 0.988165 0.000000
C295  C     C_R   0.535396 0.986498 0.934455 0.000000
C296  C     C_R   0.539419 0.049420 0.942581 0.000000
C297  C     C_R   0.534838 0.098306 0.006562 0.000000
N99   N     N_R   0.535484 0.164439 0.029116 0.000000
H321  H     H_    0.468388 0.410106 0.218674 0.000000
H322  H     H_    0.535418 0.357186 0.229770 0.000000
H323  H     H_    0.548996 0.364367 0.152932 0.000000
H324  H     H_    0.481745 0.304177 0.120298 0.000000
H325  H     H_    0.595310 0.243775 0.097805 0.000000
H326  H     H_    0.568267 0.236569 0.174255 0.000000
H327  H     H_    0.531284 0.001568 0.089951 0.000000
H328  H     H_    0.526573 0.920903 0.980884 0.000000
H329  H     H_    0.538097 0.948754 0.885150 0.000000
H330  H     H_    0.548252 0.056169 0.897332 0.000000
C298  C     C_3   0.498106 0.564937 0.264505 0.000000
N100  N     N_3   0.542953 0.542121 0.295400 0.000000
C299  C     C_3   0.595132 0.476401 0.242616 0.000000
C300  C     C_R   0.657142 0.487658 0.221466 0.000000
N101  N     N_R   0.663891 0.544258 0.269627 0.000000
C301  C     C_R   0.684159 0.573696 0.231512 0.000000
C302  C     C_R   0.685499 0.639289 0.256363 0.000000
C303  C     C_R   0.695688 0.665588 0.210500 0.000000
C304  C     C_R   0.702680 0.626805 0.142128 0.000000
C305  C     C_R   0.703141 0.559705 0.117457 0.000000
C306  C     C_R   0.695488 0.533177 0.163081 0.000000
N102  N     N_R   0.685302 0.473795 0.153069 0.000000
H331  H     H_    0.455476 0.611847 0.305379 0.000000
H332  H     H_    0.523326 0.578171 0.225914 0.000000
H333  H     H_    0.478876 0.524447 0.240535 0.000000
H334  H     H_    0.516600 0.532367 0.332766 0.000000
H335  H     H_    0.600352 0.440484 0.264336 0.000000
H336  H     H_    0.582029 0.455533 0.196554 0.000000
H337  H     H_    0.675860 0.670705 0.310546 0.000000
H338  H     H_    0.695152 0.717873 0.228718 0.000000
H339  H     H_    0.705791 0.650462 0.108637 0.000000
H340  H     H_    0.705544 0.531285 0.065182 0.000000
C307  C     C_3   0.800728 0.466266 0.569592 0.000000
N103  N     N_3   0.871714 0.441511 0.539203 0.000000
C308  C     C_3   0.893347 0.389932 0.467410 0.000000
C309  C     C_R   0.965553 0.361280 0.433957 0.000000
N104  N     N_R   0.990522 0.365239 0.373618 0.000000
C310  C     C_R   0.050377 0.314059 0.342590 0.000000
C311  C     C_R   0.088408 0.282969 0.273161 0.000000
C312  C     C_R   0.135494 0.217351 0.242677 0.000000
C313  C     C_R   0.141270 0.181562 0.279537 0.000000
C314  C     C_R   0.101947 0.212312 0.347736 0.000000
C315  C     C_R   0.059324 0.279801 0.380409 0.000000
N105  N     N_R   0.008074 0.308203 0.440375 0.000000
H341  H     H_    0.783197 0.509007 0.623339 0.000000
H342  H     H_    0.777661 0.484817 0.538605 0.000000
H343  H     H_    0.785917 0.423616 0.570388 0.000000
H344  H     H_    0.889602 0.414067 0.562895 0.000000
H345  H     H_    0.876780 0.347225 0.461451 0.000000
H346  H     H_    0.872639 0.412916 0.438157 0.000000
H347  H     H_    0.076615 0.303219 0.239699 0.000000
H348  H     H_    0.161047 0.190015 0.187879 0.000000
H349  H     H_    0.170124 0.126824 0.253150 0.000000
H350  H     H_    0.096588 0.179787 0.370024 0.000000
C316  C     C_3   0.828027 0.663003 0.306685 0.000000
N106  N     N_3   0.850231 0.608887 0.325339 0.000000
C317  C     C_3   0.832390 0.551181 0.287947 0.000000
C318  C     C_R   0.813934 0.518928 0.332289 0.000000
N107  N     N_R   0.860828 0.490762 0.355237 0.000000
C319  C     C_R   0.827288 0.526031 0.424253 0.000000
C320  C     C_R   0.854134 0.542984 0.474580 0.000000
C321  C     C_R   0.812456 0.591508 0.541848 0.000000
C322  C     C_R   0.745183 0.619427 0.558031 0.000000
C323  C     C_R   0.719080 0.603018 0.506429 0.000000
C324  C     C_R   0.761799 0.559640 0.439321 0.000000
N108  N     N_R   0.750112 0.552933 0.381185 0.000000
H351  H     H_    0.774331 0.691290 0.333420 0.000000
H352  H     H_    0.852417 0.700427 0.322928 0.000000
H353  H     H_    0.840570 0.639409 0.249879 0.000000
H354  H     H_    0.826607 0.629548 0.378528 0.000000
H355  H     H_    0.789572 0.570644 0.275658 0.000000
H356  H     H_    0.874212 0.514096 0.239764 0.000000
H357  H     H_    0.906503 0.521759 0.461595 0.000000
H358  H     H_    0.832241 0.606493 0.582449 0.000000
H359  H     H_    0.713250 0.656124 0.611022 0.000000
H360  H     H_    0.667703 0.628419 0.518196 0.000000

loop_
_geom_bond_atom_site_label_1
_geom_bond_atom_site_label_2
_geom_bond_distance
_geom_bond_site_symmetry_2
_ccdc_geom_bond_type
Zn1   N3    2.149 .      S
Zn1   N6    2.134 .      S
Zn1   N83   2.081 .      S
Zn1   N86   2.266 .      S
Zn2   N9    2.182 .      S
Zn2   N11   2.025 1_455  S
Zn2   N54   2.120 1_455  S
Zn2   N105  2.221 .      S
Zn3   N8    2.126 .      S
Zn3   N15   2.084 .      S
Zn3   N17   2.088 .      S
Zn3   N68   2.094 .      S
Zn4   N20   2.118 .      S
Zn4   N24   2.043 .      S
Zn4   N71   2.170 .      S
Zn4   N95   2.107 .      S
Zn5   N2    2.329 .      S
Zn5   N14   2.157 .      S
Zn5   N26   2.080 .      S
Zn5   N98   2.094 .      S
Zn6   N30   2.056 .      S
Zn6   N75   2.177 .      S
Zn6   N101  2.099 .      S
Zn6   N108  2.201 .      S
Zn7   N5    2.185 .      S
Zn7   N12   2.143 .      S
Zn7   N21   2.111 .      S
Zn7   N33   2.107 .      S
Zn8   N18   2.064 .      S
Zn8   N23   2.139 .      S
Zn8   N35   1.964 .      S
Zn8   N89   2.288 .      S
Zn9   N27   2.151 .      S
Zn9   N29   2.081 .      S
Zn9   N32   2.114 .      S
Zn9   N36   2.074 .      S
Zn10  N39   2.223 .      S
Zn10  N42   2.152 .      S
Zn10  N45   2.306 .      S
Zn10  N48   2.025 .      S
Zn11  N38   2.183 1_655  S
Zn11  N50   2.059 .      S
Zn11  N53   2.111 .      S
Zn11  N56   2.188 .      S
Zn12  N41   2.130 .      S
Zn12  N59   2.065 .      S
Zn12  N62   2.251 .      S
Zn12  N66   2.316 .      S
Zn13  N44   2.234 .      S
Zn13  N69   2.124 .      S
Zn13  N72   2.082 .      S
Zn13  N74   2.232 .      S
Zn14  N47   2.032 1_654  S
Zn14  N77   2.032 .      S
Zn14  N81   2.124 .      S
Zn14  N84   2.128 .      S
Zn15  N57   2.136 .      S
Zn15  N63   2.196 1_556  S
Zn15  N87   2.225 .      S
Zn15  N90   2.276 .      S
Zn16  N65   2.214 1_556  S
Zn16  N92   2.066 1_556  S
Zn16  N96   2.132 .      S
Zn16  N99   2.195 1_556  S
Zn17  N51   2.035 1_554  S
Zn17  N78   2.079 .      S
Zn17  N93   2.024 .      S
Zn17  N102  2.171 .      S
Zn18  N60   2.087 1_655  S
Zn18  N80   2.152 .      S
Zn18  N104  2.163 .      S
Zn18  N107  2.223 .      S
C1    N1    1.452 .      S
C1    H1    1.109 .      S
C1    H2    1.108 .      S
C1    H3    1.108 .      S
N1    C2    1.458 .      S
N1    H4    1.042 .      S
C2    C3    1.463 .      S
C2    H5    1.087 1_565  S
C2    H6    1.085 1_565  S
C5    H7    1.061 .      S
C6    H8    1.081 .      S
C7    H9    1.081 .      S
C8    H10   1.081 .      S
H5    C2    1.087 1_545  S
H6    C2    1.085 1_545  S
C10   N4    1.436 .      S
C10   H11   1.095 .      S
C10   H12   1.102 .      S
C10   H13   1.092 .      S
N4    C11   1.441 .      S
N4    H14   1.036 .      S
C11   C12   1.456 .      S
C11   H15   1.086 .      S
C11   H16   1.102 .      S
C14   H17   1.081 1_565  S
C15   H18   1.081 .      S
C16   H19   1.081 1_655  S
C17   H20   1.072 .      S
H17   C14   1.081 1_545  S
H19   C16   1.081 1_455  S
C19   N7    1.452 .      S
C19   H21   1.108 .      S
C19   H22   1.107 .      S
C19   H23   1.108 .      S
N7    C20   1.450 .      S
N7    H24   1.041 .      S
C20   C21   1.500 .      S
C20   H25   1.102 .      S
C20   H26   1.107 .      S
C23   H27   1.052 1_545  S
C24   H28   1.081 .      S
C25   H29   1.081 1_545  S
C26   H30   1.041 .      S
H27   C23   1.052 1_565  S
H29   C25   1.081 1_565  S
C28   N10   1.446 .      S
C28   H31   1.101 .      S
C28   H32   1.103 .      S
C28   H33   1.101 .      S
N10   C29   1.432 .      S
N10   H34   1.032 .      S
C29   C30   1.478 .      S
C29   H35   1.084 .      S
C29   H36   1.093 .      S
N11   Zn2   2.025 1_655  S
C32   H37   1.064 .      S
C33   H38   1.081 1_545  S
C34   H39   1.079 1_545  S
C35   H40   1.053 .      S
H38   C33   1.081 1_565  S
H39   C34   1.079 1_565  S
C37   N13   1.448 .      S
C37   H41   1.109 .      S
C37   H42   1.106 .      S
C37   H43   1.107 .      S
N13   C38   1.463 1_565  S
N13   H44   1.037 .      S
C38   N13   1.463 1_545  S
C38   C39   1.491 .      S
C38   H45   1.103 1_545  S
C38   H46   1.094 .      S
C41   H47   1.063 .      S
C42   H48   1.080 .      S
C43   H49   1.078 .      S
C44   H50   1.075 .      S
H45   C38   1.103 1_565  S
C46   N16   1.466 .      S
C46   H51   1.085 .      S
C46   H52   1.108 .      S
C46   H53   1.097 .      S
N16   C47   1.458 .      S
N16   H54   1.038 .      S
C47   C48   1.473 .      S
C47   H55   1.107 .      S
C47   H56   1.108 .      S
C50   H57   1.070 .      S
C51   H58   1.077 .      S
C52   H59   1.068 .      S
C53   H60   1.055 .      S
C55   N19   1.453 .      S
C55   H61   1.109 .      S
C55   H62   1.107 .      S
C55   H63   1.109 .      S
N19   C56   1.459 1_565  S
N19   H64   1.044 1_565  S
C56   N19   1.459 1_545  S
C56   C57   1.464 .      S
C56   H65   1.083 .      S
C56   H66   1.095 .      S
C59   H67   1.057 .      S
C60   H68   1.078 .      S
C61   H69   1.077 .      S
C62   H70   1.068 .      S
H64   N19   1.044 1_545  S
C64   N22   1.443 .      S
C64   H71   1.102 .      S
C64   H72   1.110 .      S
C64   H73   1.081 .      S
N22   C65   1.417 .      S
N22   H74   1.034 .      S
C65   C66   1.455 .      S
C65   H75   1.105 .      S
C65   H76   1.094 .      S
C68   H77   1.069 .      S
C69   H78   1.031 .      S
C70   H79   1.071 .      S
C71   H80   1.067 .      S
C73   N25   1.447 .      S
C73   H81   1.102 .      S
C73   H82   1.107 .      S
C73   H83   1.098 .      S
N25   C74   1.443 .      S
N25   H84   1.024 .      S
C74   C75   1.437 .      S
C74   H85   1.081 .      S
C74   H86   1.054 .      S
C77   H87   1.060 .      S
C78   H88   1.080 .      S
C79   H89   1.080 .      S
C80   H90   1.078 .      S
C82   N28   1.435 .      S
C82   H91   1.102 .      S
C82   H92   1.099 .      S
C82   H93   1.078 .      S
N28   C83   1.441 .      S
N28   H94   1.042 .      S
C83   C84   1.439 .      S
C83   H95   1.099 .      S
C83   H96   1.105 .      S
C86   H97   1.055 .      S
C87   H98   1.080 .      S
C88   H99   1.078 .      S
C89   H100  1.066 .      S
C91   N31   1.443 .      S
C91   H101  1.100 .      S
C91   H102  1.094 .      S
C91   H103  1.102 .      S
N31   C92   1.446 .      S
N31   H104  1.036 .      S
C92   C93   1.496 .      S
C92   H105  1.101 .      S
C92   H106  1.105 .      S
C95   H107  1.075 .      S
C96   H108  1.073 .      S
C97   H109  1.073 .      S
C98   H110  1.063 .      S
C100  N34   1.455 .      S
C100  H111  1.109 .      S
C100  H112  1.109 .      S
C100  H113  1.108 .      S
N34   C101  1.457 .      S
N34   H114  1.043 .      S
C101  C102  1.508 .      S
C101  H115  1.105 .      S
C101  H116  1.104 .      S
C104  H117  1.057 .      S
C105  H118  1.081 .      S
C106  H119  1.081 .      S
C107  H120  1.078 .      S
C109  N37   1.460 .      S
C109  H121  1.104 .      S
C109  H122  1.108 .      S
C109  H123  1.108 .      S
N37   C110  1.438 1_655  S
N37   H124  1.042 .      S
C110  N37   1.438 1_455  S
C110  C111  1.496 .      S
C110  H125  1.086 .      S
C110  H126  1.108 .      S
N38   Zn11  2.183 1_455  S
C113  H127  1.050 .      S
C114  H128  1.072 .      S
C115  H129  1.067 .      S
C116  H130  1.039 .      S
C118  N40   1.454 .      S
C118  H131  1.100 .      S
C118  H132  1.108 .      S
C118  H133  1.102 .      S
N40   C119  1.446 .      S
N40   H134  1.004 .      S
C119  C120  1.467 .      S
C119  H135  1.053 .      S
C119  H136  1.089 .      S
C122  H137  1.070 .      S
C123  H138  1.080 .      S
C124  H139  1.081 1_554  S
C125  H140  1.066 .      S
H139  C124  1.081 1_556  S
C127  N43   1.476 .      S
C127  H141  1.109 .      S
C127  H142  1.099 .      S
C127  H143  1.061 .      S
N43   C128  1.434 .      S
N43   H144  1.037 .      S
C128  C129  1.432 1_545  S
C128  H145  1.109 .      S
C128  H146  1.099 .      S
C129  C128  1.432 1_565  S
C131  H147  1.078 .      S
C132  H148  1.081 .      S
C133  H149  1.081 .      S
C134  H150  1.064 .      S
C136  N46   1.461 .      S
C136  H151  1.108 .      S
C136  H152  1.108 .      S
C136  H153  1.106 .      S
N46   C137  1.446 1_554  S
N46   H154  1.036 .      S
C137  N46   1.446 1_556  S
C137  C138  1.498 .      S
C137  H155  1.088 .      S
C137  H156  1.108 .      S
N47   Zn14  2.032 1_456  S
C140  H157  1.062 .      S
C141  H158  1.081 1_455  S
C142  H159  1.081 .      S
C143  H160  1.079 .      S
H158  C141  1.081 1_655  S
C145  N49   1.456 1_554  S
C145  H161  1.097 .      S
C145  H162  1.101 .      S
C145  H163  1.093 .      S
N49   C145  1.456 1_556  S
N49   C146  1.442 1_556  S
N49   H164  1.035 .      S
C146  N49   1.442 1_554  S
C146  C147  1.468 1_554  S
C146  H165  1.091 .      S
C146  H166  1.100 .      S
C147  C146  1.468 1_556  S
C149  H167  1.076 .      S
C150  H168  1.081 .      S
C151  H169  1.080 .      S
C152  H170  1.067 .      S
N51   Zn17  2.035 1_556  S
C154  N52   1.454 .      S
C154  H171  1.109 .      S
C154  H172  1.109 1_655  S
C154  H173  1.105 1_655  S
N52   C155  1.444 1_655  S
N52   H174  1.033 .      S
C155  N52   1.444 1_455  S
C155  C156  1.481 1_455  S
C155  H175  1.106 .      S
C155  H176  1.093 .      S
C156  C155  1.481 1_655  S
C158  H177  1.061 .      S
C159  H178  1.079 .      S
C160  H179  1.081 .      S
C161  H180  1.059 .      S
N54   Zn2   2.120 1_655  S
H172  C154  1.109 1_455  S
H173  C154  1.105 1_455  S
C163  N55   1.457 .      S
C163  H181  1.109 .      S
C163  H182  1.103 .      S
C163  H183  1.102 1_556  S
N55   C164  1.462 .      S
N55   H184  1.039 1_556  S
C164  C165  1.504 .      S
C164  H185  1.107 1_556  S
C164  H186  1.082 .      S
C167  H187  1.077 .      S
C168  H188  1.081 .      S
C169  H189  1.081 .      S
C170  H190  1.066 1_655  S
H183  C163  1.102 1_554  S
H184  N55   1.039 1_554  S
H185  C164  1.107 1_554  S
H190  C170  1.066 1_455  S
C172  N58   1.458 1_455  S
C172  H191  1.108 .      S
C172  H192  1.106 1_455  S
C172  H193  1.107 1_455  S
N58   C172  1.458 1_655  S
N58   C173  1.465 1_655  S
N58   H194  1.034 1_655  S
C173  N58   1.465 1_455  S
C173  C174  1.466 .      S
C173  H195  1.088 1_455  S
C173  H196  1.102 .      S
C176  H197  1.071 .      S
C177  H198  1.080 .      S
C178  H199  1.081 .      S
C179  H200  1.079 .      S
N60   Zn18  2.087 1_455  S
H192  C172  1.106 1_655  S
H193  C172  1.107 1_655  S
H194  N58   1.034 1_455  S
H195  C173  1.088 1_655  S
C181  N61   1.454 .      S
C181  H201  1.096 .      S
C181  H202  1.090 .      S
C181  H203  1.088 .      S
N61   C182  1.440 .      S
N61   H204  1.035 .      S
C182  C183  1.450 1_556  S
C182  H205  1.091 1_556  S
C182  H206  1.098 1_556  S
C183  C182  1.450 1_554  S
C185  H207  1.076 .      S
C186  H208  1.081 .      S
C187  H209  1.081 .      S
C188  H210  1.081 .      S
N63   Zn15  2.196 1_554  S
H205  C182  1.091 1_554  S
H206  C182  1.098 1_554  S
C190  N64   1.454 .      S
C190  H211  1.109 .      S
C190  H212  1.108 .      S
C190  H213  1.109 .      S
N64   C191  1.453 .      S
N64   H214  1.044 .      S
C191  C192  1.487 .      S
C191  H215  1.096 .      S
C191  H216  1.104 .      S
N65   Zn16  2.214 1_554  S
C194  H217  1.029 .      S
C195  H218  1.065 .      S
C196  H219  1.080 .      S
C197  H220  0.983 .      S
C199  N67   1.428 .      S
C199  H221  1.082 .      S
C199  H222  1.100 .      S
C199  H223  1.095 .      S
N67   C200  1.411 .      S
N67   H224  1.035 .      S
C200  C201  1.407 .      S
C200  H225  1.081 .      S
C200  H226  1.096 .      S
C203  H227  1.080 .      S
C204  H228  1.081 .      S
C205  H229  1.081 .      S
C206  H230  1.063 .      S
C208  N70   1.458 1_565  S
C208  H231  1.106 .      S
C208  H232  1.109 .      S
C208  H233  1.103 .      S
N70   C208  1.458 1_545  S
N70   C209  1.459 .      S
N70   H234  1.041 1_545  S
C209  C210  1.499 .      S
C209  H235  1.101 1_545  S
C209  H236  1.093 .      S
C212  H237  1.070 .      S
C213  H238  1.077 .      S
C214  H239  1.081 .      S
C215  H240  1.072 .      S
H234  N70   1.041 1_565  S
H235  C209  1.101 1_565  S
C217  N73   1.453 .      S
C217  H241  1.109 .      S
C217  H242  1.109 .      S
C217  H243  1.109 .      S
N73   C218  1.455 .      S
N73   H244  1.044 .      S
C218  C219  1.490 .      S
C218  H245  1.105 .      S
C218  H246  1.105 .      S
C221  H247  1.058 .      S
C222  H248  1.080 .      S
C223  H249  1.081 .      S
C224  H250  1.064 .      S
C226  N76   1.433 1_455  S
C226  H251  1.105 .      S
C226  H252  1.078 .      S
C226  H253  1.099 .      S
N76   C226  1.433 1_655  S
N76   C227  1.446 .      S
N76   H254  1.017 1_556  S
C227  C228  1.463 1_556  S
C227  H255  1.098 .      S
C227  H256  1.099 .      S
C228  C227  1.463 1_554  S
C230  H257  1.065 .      S
C231  H258  1.075 .      S
C232  H259  1.074 .      S
C233  H260  1.064 .      S
H254  N76   1.017 1_554  S
C235  N79   1.454 .      S
C235  H261  1.094 .      S
C235  H262  1.104 .      S
C235  H263  1.090 .      S
N79   C236  1.433 .      S
N79   H264  1.025 .      S
C236  C237  1.446 .      S
C236  H265  1.071 .      S
C236  H266  1.100 .      S
C239  H267  1.050 .      S
C240  H268  1.056 1_655  S
C241  H269  1.076 .      S
C242  H270  1.057 .      S
H268  C240  1.056 1_455  S
C244  N82   1.455 1_455  S
C244  H271  1.109 .      S
C244  H272  1.109 .      S
C244  H273  1.109 .      S
N82   C244  1.455 1_655  S
N82   C245  1.443 .      S
N82   H274  1.040 .      S
C245  C246  1.499 1_565  S
C245  H275  1.089 1_565  S
C245  H276  1.108 1_655  S
C246  C245  1.499 1_545  S
C248  H277  1.063 .      S
C249  H278  1.080 .      S
C250  H279  1.078 .      S
C251  H280  1.061 .      S
H275  C245  1.089 1_545  S
H276  C245  1.108 1_455  S
C253  N85   1.450 .      S
C253  H281  1.107 .      S
C253  H282  1.109 .      S
C253  H283  1.106 .      S
N85   C254  1.449 .      S
N85   H284  1.041 .      S
C254  C255  1.486 .      S
C254  H285  1.093 .      S
C254  H286  1.109 .      S
C257  H287  1.060 .      S
C258  H288  1.081 .      S
C259  H289  1.081 .      S
C260  H290  1.070 .      S
C262  N88   1.455 .      S
C262  H291  1.109 .      S
C262  H292  1.108 .      S
C262  H293  1.109 .      S
N88   C263  1.452 .      S
N88   H294  1.044 .      S
C263  C264  1.488 .      S
C263  H295  1.096 .      S
C263  H296  1.106 .      S
C266  H297  1.074 .      S
C267  H298  1.079 .      S
C268  H299  1.081 .      S
C269  H300  1.070 .      S
C271  N91   1.449 .      S
C271  H301  1.107 .      S
C271  H302  1.106 .      S
C271  H303  1.103 .      S
N91   C272  1.452 .      S
N91   H304  1.044 .      S
C272  C273  1.475 1_556  S
C272  H305  1.095 .      S
C272  H306  1.104 1_556  S
C273  C272  1.475 1_554  S
N92   Zn16  2.066 1_554  S
C275  H307  1.071 .      S
C276  H308  1.081 .      S
C277  H309  1.081 .      S
C278  H310  1.078 .      S
H306  C272  1.104 1_554  S
C280  N94   1.453 .      S
C280  H311  1.108 .      S
C280  H312  1.109 .      S
C280  H313  1.108 .      S
N94   C281  1.451 .      S
N94   H314  1.037 .      S
C281  C282  1.491 .      S
C281  H315  1.108 .      S
C281  H316  1.089 .      S
C284  H317  1.077 .      S
C285  H318  1.081 .      S
C286  H319  1.081 1_545  S
C287  H320  1.075 .      S
H319  C286  1.081 1_565  S
C289  N97   1.451 .      S
C289  H321  1.106 .      S
C289  H322  1.104 .      S
C289  H323  1.092 .      S
N97   C290  1.450 .      S
N97   H324  1.042 .      S
C290  C291  1.481 .      S
C290  H325  1.103 .      S
C290  H326  1.091 .      S
C293  H327  1.080 .      S
C294  H328  1.081 .      S
C295  H329  1.079 .      S
C296  H330  1.069 .      S
N99   Zn16  2.195 1_554  S
C298  N100  1.455 .      S
C298  H331  1.106 .      S
C298  H332  1.108 .      S
C298  H333  1.109 .      S
N100  C299  1.455 .      S
N100  H334  1.044 .      S
C299  C300  1.490 .      S
C299  H335  1.093 .      S
C299  H336  1.100 .      S
C302  H337  1.078 .      S
C303  H338  1.081 .      S
C304  H339  1.079 .      S
C305  H340  1.078 .      S
C307  N103  1.453 .      S
C307  H341  1.109 .      S
C307  H342  1.104 .      S
C307  H343  1.098 .      S
N103  C308  1.446 .      S
N103  H344  1.030 .      S
C308  C309  1.478 .      S
C308  H345  1.088 .      S
C308  H346  1.099 .      S
C311  H347  1.070 .      S
C312  H348  1.067 .      S
C313  H349  1.073 .      S
C314  H350  1.051 .      S
C316  N106  1.451 .      S
C316  H351  1.107 .      S
C316  H352  1.109 .      S
C316  H353  1.107 .      S
N106  C317  1.456 .      S
N106  H354  1.041 .      S
C317  C318  1.491 .      S
C317  H355  1.101 .      S
C317  H356  1.096 .      S
C320  H357  1.081 .      S
C321  H358  1.081 .      S
C322  H359  1.081 .      S
C323  H360  1.076 .      S
C3    N2    1.412 1_565  A
C3    N3    1.382 .      A
N2    C3    1.412 1_545  A
N2    C4    1.370 1_545  A
C4    N2    1.370 1_565  A
C4    C5    1.366 .      A
C4    C9    1.371 .      A
C5    C6    1.387 1_554  A
C6    C5    1.387 1_556  A
C6    C7    1.386 .      A
C7    C8    1.380 1_556  A
C8    C7    1.380 1_554  A
C8    C9    1.376 .      A
C9    N3    1.332 .      A
C12   N5    1.386 .      A
C12   N6    1.384 1_545  A
N5    C13   1.359 1_545  A
C13   N5    1.359 1_565  A
C13   C14   1.380 .      A
C13   C18   1.377 .      A
C14   C15   1.384 .      A
C15   C16   1.386 .      A
C16   C17   1.382 .      A
C17   C18   1.369 .      A
C18   N6    1.347 .      A
N6    C12   1.384 1_565  A
C21   N8    1.399 .      A
C21   N9    1.395 .      A
N8    C22   1.348 .      A
C22   C23   1.373 .      A
C22   C27   1.355 .      A
C23   C24   1.379 1_545  A
C24   C23   1.379 1_565  A
C24   C25   1.378 1_565  A
C25   C24   1.378 1_545  A
C25   C26   1.377 .      A
C26   C27   1.360 .      A
C27   N9    1.351 .      A
C30   N11   1.377 .      A
C30   N12   1.385 .      A
N11   C31   1.340 .      A
C31   C32   1.384 1_655  A
C31   C36   1.357 .      A
C32   C31   1.384 1_455  A
C32   C33   1.374 .      A
C33   C34   1.374 .      A
C34   C35   1.378 1_455  A
C35   C34   1.378 1_655  A
C35   C36   1.367 .      A
C36   N12   1.364 .      A
C39   N14   1.391 .      A
C39   N15   1.380 .      A
N14   C40   1.364 .      A
C40   C41   1.379 .      A
C40   C45   1.362 .      A
C41   C42   1.379 .      A
C42   C43   1.381 .      A
C43   C44   1.379 .      A
C44   C45   1.374 .      A
C45   N15   1.339 .      A
C48   N17   1.388 .      A
C48   N18   1.383 .      A
N17   C49   1.347 .      A
C49   C50   1.362 .      A
C49   C54   1.343 .      A
C50   C51   1.374 .      A
C51   C52   1.388 .      A
C52   C53   1.366 .      A
C53   C54   1.331 .      A
C54   N18   1.319 .      A
C57   N20   1.395 .      A
C57   N21   1.377 .      A
N20   C58   1.342 .      A
C58   C59   1.371 .      A
C58   C63   1.355 .      A
C59   C60   1.374 .      A
C60   C61   1.375 .      A
C61   C62   1.387 .      A
C62   C63   1.357 .      A
C63   N21   1.344 .      A
C66   N23   1.397 .      A
C66   N24   1.376 .      A
N23   C67   1.327 .      A
C67   C68   1.330 .      A
C67   C72   1.353 .      A
C68   C69   1.351 .      A
C69   C70   1.380 .      A
C70   C71   1.340 .      A
C71   C72   1.344 .      A
C72   N24   1.309 .      A
C75   N26   1.364 .      A
C75   N27   1.389 .      A
N26   C76   1.349 .      A
C76   C77   1.369 .      A
C76   C81   1.365 .      A
C77   C78   1.380 .      A
C78   C79   1.382 .      A
C79   C80   1.382 .      A
C80   C81   1.367 .      A
C81   N27   1.345 .      A
C84   N29   1.364 .      A
C84   N30   1.375 .      A
N29   C85   1.359 .      A
C85   C86   1.377 .      A
C85   C90   1.362 .      A
C86   C87   1.380 .      A
C87   C88   1.377 .      A
C88   C89   1.375 .      A
C89   C90   1.375 .      A
C90   N30   1.344 .      A
C93   N32   1.392 .      A
C93   N33   1.403 .      A
N32   C94   1.333 .      A
C94   C95   1.352 .      A
C94   C99   1.347 .      A
C95   C96   1.369 .      A
C96   C97   1.378 .      A
C97   C98   1.364 .      A
C98   C99   1.361 .      A
C99   N33   1.333 .      A
C102  N35   1.355 .      A
C102  N36   1.371 .      A
N35   C103  1.346 .      A
C103  C104  1.371 .      A
C103  C108  1.348 .      A
C104  C105  1.379 .      A
C105  C106  1.380 .      A
C106  C107  1.381 .      A
C107  C108  1.375 .      A
C108  N36   1.343 .      A
C111  N38   1.421 .      A
C111  N39   1.393 .      A
N38   C112  1.317 .      A
C112  C113  1.351 .      A
C112  C117  1.340 .      A
C113  C114  1.343 .      A
C114  C115  1.362 .      A
C115  C116  1.370 .      A
C116  C117  1.324 .      A
C117  N39   1.337 .      A
C120  N41   1.382 1_556  A
C120  N42   1.392 .      A
N41   C120  1.382 1_554  A
N41   C121  1.354 .      A
C121  C122  1.383 .      A
C121  C126  1.385 1_554  A
C122  C123  1.381 .      A
C123  C124  1.376 .      A
C124  C125  1.377 1_554  A
C125  C124  1.377 1_556  A
C125  C126  1.369 .      A
C126  C121  1.385 1_556  A
C126  N42   1.341 .      A
C129  N44   1.408 .      A
C129  N45   1.392 1_565  A
N44   C130  1.345 .      A
C130  C131  1.372 .      A
C130  C135  1.384 .      A
C131  C132  1.383 .      A
C132  C133  1.387 .      A
C133  C134  1.384 .      A
C134  C135  1.367 .      A
C135  N45   1.359 1_565  A
N45   C129  1.392 1_545  A
N45   C135  1.359 1_545  A
C138  N47   1.361 .      A
C138  N48   1.381 .      A
N47   C139  1.357 .      A
C139  C140  1.373 1_455  A
C139  C144  1.353 .      A
C140  C139  1.373 1_655  A
C140  C141  1.386 1_645  A
C141  C140  1.386 1_465  A
C141  C142  1.388 .      A
C142  C143  1.381 .      A
C143  C144  1.373 1_565  A
C144  C143  1.373 1_545  A
C144  N48   1.333 .      A
C147  N50   1.374 .      A
C147  N51   1.363 .      A
N50   C148  1.347 .      A
C148  C149  1.370 .      A
C148  C153  1.362 .      A
C149  C150  1.384 .      A
C150  C151  1.386 .      A
C151  C152  1.383 .      A
C152  C153  1.372 .      A
C153  N51   1.348 .      A
C156  N53   1.398 .      A
C156  N54   1.380 .      A
N53   C157  1.339 .      A
C157  C158  1.369 .      A
C157  C162  1.358 .      A
C158  C159  1.372 .      A
C159  C160  1.371 .      A
C160  C161  1.377 .      A
C161  C162  1.396 .      A
C162  N54   1.369 .      A
C165  N56   1.386 .      A
C165  N57   1.384 1_655  A
N56   C166  1.345 .      A
C166  C167  1.370 .      A
C166  C171  1.367 1_655  A
C167  C168  1.384 .      A
C168  C169  1.381 .      A
C169  C170  1.379 .      A
C170  C171  1.371 1_655  A
C171  C166  1.367 1_455  A
C171  C170  1.371 1_455  A
C171  N57   1.346 .      A
N57   C165  1.384 1_455  A
C174  N59   1.378 .      A
C174  N60   1.371 .      A
N59   C175  1.348 .      A
C175  C176  1.369 .      A
C175  C180  1.368 .      A
C176  C177  1.384 .      A
C177  C178  1.390 .      A
C178  C179  1.384 .      A
C179  C180  1.374 .      A
C180  N60   1.350 .      A
C183  N62   1.396 .      A
C183  N63   1.385 .      A
N62   C184  1.351 .      A
C184  C185  1.371 .      A
C184  C189  1.384 .      A
C185  C186  1.385 .      A
C186  C187  1.391 .      A
C187  C188  1.385 .      A
C188  C189  1.375 .      A
C189  N63   1.354 .      A
C192  N65   1.423 .      A
C192  N66   1.405 .      A
N65   C193  1.322 1_554  A
C193  N65   1.322 1_556  A
C193  C194  1.353 .      A
C193  C198  1.339 1_556  A
C194  C195  1.355 .      A
C195  C196  1.345 .      A
C196  C197  1.367 .      A
C197  C198  1.356 1_556  A
C198  C193  1.339 1_554  A
C198  C197  1.356 1_554  A
C198  N66   1.370 .      A
C201  N68   1.363 .      A
C201  N69   1.369 1_545  A
N68   C202  1.348 1_545  A
C202  N68   1.348 1_565  A
C202  C203  1.372 .      A
C202  C207  1.371 .      A
C203  C204  1.385 .      A
C204  C205  1.389 .      A
C205  C206  1.385 .      A
C206  C207  1.366 .      A
C207  N69   1.353 .      A
N69   C201  1.369 1_565  A
C210  N71   1.395 .      A
C210  N72   1.386 1_545  A
N71   C211  1.347 1_545  A
C211  N71   1.347 1_565  A
C211  C212  1.361 .      A
C211  C216  1.361 .      A
C212  C213  1.387 .      A
C213  C214  1.378 .      A
C214  C215  1.373 .      A
C215  C216  1.375 .      A
C216  N72   1.340 .      A
N72   C210  1.386 1_565  A
C219  N74   1.404 .      A
C219  N75   1.407 .      A
N74   C220  1.355 .      A
C220  C221  1.363 .      A
C220  C225  1.361 .      A
C221  C222  1.384 .      A
C222  C223  1.382 .      A
C223  C224  1.378 .      A
C224  C225  1.366 .      A
C225  N75   1.340 .      A
C228  N77   1.367 .      A
C228  N78   1.397 .      A
N77   C229  1.317 .      A
C229  C230  1.339 .      A
C229  C234  1.341 .      A
C230  C231  1.355 .      A
C231  C232  1.391 .      A
C232  C233  1.360 .      A
C233  C234  1.344 .      A
C234  N78   1.331 .      A
C237  N80   1.388 .      A
C237  N81   1.387 .      A
N80   C238  1.348 .      A
C238  C239  1.351 .      A
C238  C243  1.344 .      A
C239  C240  1.365 .      A
C240  C241  1.371 1_655  A
C241  C240  1.371 1_455  A
C241  C242  1.369 .      A
C242  C243  1.333 1_455  A
C243  C242  1.333 1_655  A
C243  N81   1.318 .      A
C246  N83   1.371 1_545  A
C246  N84   1.405 .      A
N83   C246  1.371 1_565  A
N83   C247  1.342 1_565  A
C247  N83   1.342 1_545  A
C247  C248  1.365 1_544  A
C247  C252  1.357 .      A
C248  C247  1.365 1_566  A
C248  C249  1.375 .      A
C249  C250  1.371 1_565  A
C250  C249  1.371 1_545  A
C250  C251  1.377 .      A
C251  C252  1.386 1_556  A
C252  C251  1.386 1_554  A
C252  N84   1.357 .      A
C255  N86   1.408 .      A
C255  N87   1.413 1_654  A
N86   C256  1.363 1_554  A
C256  N86   1.363 1_556  A
C256  C257  1.378 .      A
C256  C261  1.375 1_655  A
C257  C258  1.383 1_655  A
C258  C257  1.383 1_455  A
C258  C259  1.383 .      A
C259  C260  1.379 .      A
C260  C261  1.374 .      A
C261  C256  1.375 1_455  A
C261  N87   1.345 .      A
N87   C255  1.413 1_456  A
C264  N89   1.422 .      A
C264  N90   1.404 .      A
N89   C265  1.353 .      A
C265  C266  1.373 .      A
C265  C270  1.378 .      A
C266  C267  1.384 .      A
C267  C268  1.387 .      A
C268  C269  1.382 .      A
C269  C270  1.367 .      A
C270  N90   1.347 .      A
C273  N92   1.377 .      A
C273  N93   1.374 .      A
N92   C274  1.349 .      A
C274  C275  1.361 .      A
C274  C279  1.359 .      A
C275  C276  1.386 .      A
C276  C277  1.388 .      A
C277  C278  1.383 .      A
C278  C279  1.373 .      A
C279  N93   1.342 .      A
C282  N95   1.393 .      A
C282  N96   1.377 .      A
N95   C283  1.341 .      A
C283  C284  1.371 .      A
C283  C288  1.365 .      A
C284  C285  1.382 1_545  A
C285  C284  1.382 1_565  A
C285  C286  1.389 1_565  A
C286  C285  1.389 1_545  A
C286  C287  1.385 .      A
C287  C288  1.377 .      A
C288  N96   1.355 .      A
C291  N98   1.394 .      A
C291  N99   1.381 .      A
N98   C292  1.336 .      A
C292  C293  1.381 .      A
C292  C297  1.364 .      A
C293  C294  1.373 1_544  A
C294  C293  1.373 1_566  A
C294  C295  1.378 .      A
C295  C296  1.385 1_565  A
C296  C295  1.385 1_545  A
C296  C297  1.390 1_556  A
C297  C296  1.390 1_554  A
C297  N99   1.378 .      A
C300  N101  1.384 .      A
C300  N102  1.396 .      A
N101  C301  1.341 .      A
C301  C302  1.371 .      A
C301  C306  1.370 .      A
C302  C303  1.380 .      A
C303  C304  1.388 .      A
C304  C305  1.388 .      A
C305  C306  1.374 .      A
C306  N102  1.354 .      A
C309  N104  1.392 .      A
C309  N105  1.415 1_655  A
N104  C310  1.348 1_655  A
C310  N104  1.348 1_455  A
C310  C311  1.380 .      A
C310  C315  1.369 .      A
C311  C312  1.373 .      A
C312  C313  1.369 .      A
C313  C314  1.366 .      A
C314  C315  1.364 .      A
C315  N105  1.348 .      A
N105  C309  1.415 1_455  A
C318  N107  1.402 .      A
C318  N108  1.396 .      A
N107  C319  1.348 .      A
C319  C320  1.373 .      A
C319  C324  1.377 .      A
C320  C321  1.386 .      A
C321  C322  1.391 .      A
C322  C323  1.385 .      A
C323  C324  1.372 .      A
C324  N108  1.351 .      A
