data_str_m1_o12038_NPO
_audit_creation_date              2015-10-01T06:42:20-0700
_symmetry_space_group_name_H-M    P1
_symmetry_Int_Tables_number       1
_space_group_crystal_system       triclinic
loop_
_symmetry_equiv_pos_as_xyz
  x,y,z
_cell_length_a                    18.6119146
_cell_length_b                    18.8908225
_cell_length_c                    10.4480071
_cell_angle_alpha                 90.9291704
_cell_angle_beta                  90.4415583
_cell_angle_gamma                 61.1317698
_cell_volume                      3216.54528247

loop_
_atom_site_label
_atom_site_type_symbol
_atom_site_description
_atom_site_fract_x
_atom_site_fract_y
_atom_site_fract_z
_atom_type_partial_charge
Zn1   Zn    Zn3+2 0.558824 0.071311 0.690531 0.000000
Zn2   Zn    Zn3+2 0.225345 0.395785 0.698864 0.000000
Zn3   Zn    Zn3+2 0.551651 0.394610 0.671801 0.000000
Zn4   Zn    Zn3+2 0.992139 0.493532 0.193122 0.000000
Zn5   Zn    Zn3+2 0.684209 0.831756 0.194863 0.000000
Zn6   Zn    Zn3+2 0.653641 0.524269 0.179430 0.000000
N1    N     N_2   0.268041 0.071968 0.316479 0.000000
C1    C     C_R   0.298175 0.121645 0.369466 0.000000
C2    C     C_R   0.381456 0.096584 0.373351 0.000000
C3    C     C_R   0.410446 0.139559 0.445600 0.000000
C4    C     C_R   0.355845 0.207447 0.512705 0.000000
C5    C     C_R   0.272766 0.237588 0.492119 0.000000
C6    C     C_R   0.244024 0.194584 0.422552 0.000000
C7    C     C_R   0.377503 0.224706 0.639248 0.000000
N2    N     N_R   0.435499 0.158745 0.706824 0.000000
C8    C     C_R   0.394383 0.162426 0.812877 0.000000
C9    C     C_R   0.422569 0.110891 0.911021 0.000000
C10   C     C_R   0.367179 0.117756 0.002271 0.000000
N3    N     N_2   0.394295 0.066168 0.106035 0.000000
C11   C     C_R   0.285393 0.176133 0.994148 0.000000
C12   C     C_R   0.260377 0.233741 0.900379 0.000000
C13   C     C_R   0.318323 0.227269 0.813406 0.000000
N4    N     N_R   0.309498 0.273846 0.712517 0.000000
H1    H     H_    0.312027 0.013010 0.301207 0.000000
H2    H     H_    0.214567 0.080372 0.358195 0.000000
H3    H     H_    0.424737 0.039225 0.330870 0.000000
H4    H     H_    0.475437 0.115116 0.461774 0.000000
H5    H     H_    0.228582 0.287124 0.548167 0.000000
H6    H     H_    0.178967 0.214942 0.419798 0.000000
H7    H     H_    0.486780 0.078115 0.926483 0.000000
H8    H     H_    0.347520 0.080716 0.168404 0.000000
H9    H     H_    0.449498 0.057985 0.141488 0.000000
H10   H     H_    0.241824 0.179117 0.064756 0.000000
H11   H     H_    0.196816 0.277633 0.893417 0.000000
N5    N     N_2   0.480262 0.266258 0.215809 0.000000
C14   C     C_R   0.504609 0.257440 0.087273 0.000000
C15   C     C_R   0.541403 0.182341 0.031487 0.000000
C16   C     C_R   0.550061 0.176728 0.901464 0.000000
C17   C     C_R   0.527210 0.242839 0.826328 0.000000
C18   C     C_R   0.497839 0.316987 0.884126 0.000000
C19   C     C_R   0.486160 0.324185 0.014200 0.000000
C20   C     C_R   0.563348 0.227468 0.699651 0.000000
N6    N     N_R   0.605061 0.148367 0.658159 0.000000
C21   C     C_R   0.673588 0.143601 0.606095 0.000000
C22   C     C_R   0.738663 0.079531 0.547687 0.000000
C23   C     C_R   0.807558 0.086791 0.521169 0.000000
N7    N     N_2   0.877992 0.019734 0.471830 0.000000
C24   C     C_R   0.807934 0.159253 0.543570 0.000000
C25   C     C_R   0.738059 0.226234 0.588051 0.000000
C26   C     C_R   0.671726 0.216286 0.616765 0.000000
N8    N     N_R   0.598543 0.272756 0.661401 0.000000
H12   H     H_    0.516900 0.217760 0.272166 0.000000
H13   H     H_    0.462743 0.322851 0.251592 0.000000
H14   H     H_    0.559074 0.128947 0.087880 0.000000
H15   H     H_    0.582427 0.119756 0.858538 0.000000
H16   H     H_    0.493064 0.367108 0.831360 0.000000
H17   H     H_    0.467141 0.381668 0.058251 0.000000
H18   H     H_    0.733457 0.030101 0.507296 0.000000
H19   H     H_    0.930196 0.025204 0.480873 0.000000
H20   H     H_    0.883306 0.965856 0.502242 0.000000
H21   H     H_    0.862279 0.163785 0.522605 0.000000
H22   H     H_    0.736157 0.283971 0.601535 0.000000
N9    N     N_2   0.967634 0.815366 0.670556 0.000000
C27   C     C_R   0.887731 0.846807 0.620482 0.000000
C28   C     C_R   0.873341 0.812145 0.514553 0.000000
C29   C     C_R   0.794963 0.846169 0.463506 0.000000
C30   C     C_R   0.731008 0.910292 0.520668 0.000000
C31   C     C_R   0.743606 0.936283 0.638328 0.000000
C32   C     C_R   0.822712 0.908365 0.683025 0.000000
C33   C     C_R   0.648474 0.941616 0.465581 0.000000
N10   N     N_R   0.630309 0.902548 0.365801 0.000000
C34   C     C_R   0.550708 0.924857 0.392352 0.000000
C35   C     C_R   0.504167 0.891133 0.346630 0.000000
C36   C     C_R   0.427654 0.916121 0.399796 0.000000
N11   N     N_2   0.380546 0.880245 0.357287 0.000000
C37   C     C_R   0.397012 0.975716 0.494518 0.000000
C38   C     C_R   0.444374 0.008387 0.541655 0.000000
C39   C     C_R   0.521723 0.979982 0.491009 0.000000
N12   N     N_R   0.580795 0.994653 0.536402 0.000000
H23   H     H_    0.969194 0.828299 0.766262 0.000000
H24   H     H_    0.006739 0.756857 0.641573 0.000000
H25   H     H_    0.924245 0.758276 0.476218 0.000000
H26   H     H_    0.778401 0.824154 0.381966 0.000000
H27   H     H_    0.692279 0.984665 0.686252 0.000000
H28   H     H_    0.835523 0.932010 0.768170 0.000000
H29   H     H_    0.526654 0.841998 0.279552 0.000000
H30   H     H_    0.338187 0.883386 0.423038 0.000000
H31   H     H_    0.414016 0.825842 0.310003 0.000000
H32   H     H_    0.336133 0.996141 0.532296 0.000000
H33   H     H_    0.419271 0.056762 0.612069 0.000000
N13   N     N_2   0.286501 0.961226 0.949071 0.000000
C40   C     C_R   0.363845 0.957595 0.946962 0.000000
C41   C     C_R   0.392143 0.973986 0.835676 0.000000
C42   C     C_R   0.468254 0.969644 0.834104 0.000000
C43   C     C_R   0.514626 0.951322 0.943123 0.000000
C44   C     C_R   0.487294 0.933856 0.053571 0.000000
C45   C     C_R   0.411730 0.936961 0.055900 0.000000
C46   C     C_R   0.594307 0.949194 0.940597 0.000000
N14   N     N_R   0.611519 0.995645 0.856108 0.000000
C47   C     C_R   0.682282 0.987853 0.905291 0.000000
C48   C     C_R   0.723988 0.029238 0.874621 0.000000
C49   C     C_R   0.795084 0.011467 0.942403 0.000000
N15   N     N_2   0.839437 0.052085 0.913796 0.000000
C50   C     C_R   0.827425 0.947868 0.027487 0.000000
C51   C     C_R   0.784130 0.907870 0.055613 0.000000
C52   C     C_R   0.708996 0.934228 0.002792 0.000000
N16   N     N_R   0.654983 0.909072 0.032091 0.000000
H34   H     H_    0.247434 0.996314 0.878177 0.000000
H35   H     H_    0.261739 0.969234 0.039306 0.000000
H36   H     H_    0.355465 0.988689 0.749578 0.000000
H37   H     H_    0.494258 0.977921 0.748021 0.000000
H38   H     H_    0.524489 0.920704 0.138415 0.000000
H39   H     H_    0.389742 0.923999 0.143142 0.000000
H40   H     H_    0.704414 0.074007 0.800847 0.000000
H41   H     H_    0.900711 0.020128 0.936876 0.000000
H42   H     H_    0.825707 0.079117 0.825700 0.000000
H43   H     H_    0.886913 0.928937 0.070246 0.000000
H44   H     H_    0.808933 0.853744 0.108525 0.000000
N17   N     N_2   0.375843 0.471674 0.191134 0.000000
C53   C     C_R   0.315080 0.456131 0.240183 0.000000
C54   C     C_R   0.239818 0.488385 0.181043 0.000000
C55   C     C_R   0.176285 0.483224 0.237327 0.000000
C56   C     C_R   0.189592 0.443178 0.350642 0.000000
C57   C     C_R   0.267131 0.402901 0.401809 0.000000
C58   C     C_R   0.329311 0.411886 0.349728 0.000000
C59   C     C_R   0.125066 0.442138 0.424584 0.000000
N18   N     N_R   0.055378 0.442972 0.372952 0.000000
C60   C     C_R   0.035406 0.407880 0.470400 0.000000
C61   C     C_R   0.974463 0.386634 0.480592 0.000000
C62   C     C_R   0.961337 0.360968 0.598458 0.000000
N19   N     N_2   0.893247 0.349192 0.618503 0.000000
C63   C     C_R   0.012621 0.350075 0.700604 0.000000
C64   C     C_R   0.075599 0.367251 0.687916 0.000000
C65   C     C_R   0.084384 0.396836 0.574373 0.000000
N20   N     N_R   0.141482 0.417785 0.550244 0.000000
H45   H     H_    0.365305 0.498030 0.102991 0.000000
H46   H     H_    0.431253 0.448332 0.237887 0.000000
H47   H     H_    0.229196 0.521426 0.094167 0.000000
H48   H     H_    0.116510 0.513881 0.195383 0.000000
H49   H     H_    0.277296 0.370724 0.490430 0.000000
H50   H     H_    0.387251 0.386626 0.398866 0.000000
H51   H     H_    0.937564 0.388880 0.401965 0.000000
H52   H     H_    0.858956 0.353116 0.539648 0.000000
H53   H     H_    0.901705 0.306908 0.686240 0.000000
H54   H     H_    0.002157 0.329633 0.791107 0.000000
H55   H     H_    0.115145 0.360305 0.766463 0.000000
N21   N     N_2   0.844487 0.788489 0.776374 0.000000
C66   C     C_R   0.910636 0.713519 0.810427 0.000000
C67   C     C_R   0.953416 0.656077 0.717427 0.000000
C68   C     C_R   0.014567 0.580152 0.751065 0.000000
C69   C     C_R   0.029237 0.561868 0.878784 0.000000
C70   C     C_R   0.992645 0.621911 0.969940 0.000000
C71   C     C_R   0.932659 0.697594 0.936612 0.000000
C72   C     C_R   0.085376 0.481488 0.924427 0.000000
N22   N     N_R   0.162157 0.432972 0.871787 0.000000
C73   C     C_R   0.202196 0.386869 0.971132 0.000000
C74   C     C_R   0.283763 0.336802 0.979814 0.000000
C75   C     C_R   0.311491 0.291250 0.088523 0.000000
N23   N     N_2   0.393586 0.234300 0.093298 0.000000
C76   C     C_R   0.258733 0.294296 0.183177 0.000000
C77   C     C_R   0.176543 0.348509 0.174153 0.000000
C78   C     C_R   0.151026 0.397733 0.069749 0.000000
N24   N     N_R   0.076179 0.458865 0.046018 0.000000
H56   H     H_    0.815665 0.785959 0.693335 0.000000
H57   H     H_    0.806977 0.820203 0.851942 0.000000
H58   H     H_    0.937321 0.670968 0.618871 0.000000
H59   H     H_    0.047659 0.534456 0.678825 0.000000
H60   H     H_    0.012334 0.608740 0.067873 0.000000
H61   H     H_    0.902018 0.743558 0.009379 0.000000
H62   H     H_    0.324903 0.334139 0.905076 0.000000
H63   H     H_    0.405685 0.186244 0.150812 0.000000
H64   H     H_    0.411476 0.222557 0.999897 0.000000
H65   H     H_    0.281959 0.253618 0.262907 0.000000
H66   H     H_    0.134844 0.346778 0.242001 0.000000
N25   N     N_2   0.242201 0.713001 0.045236 0.000000
C79   C     C_R   0.276349 0.636387 0.984851 0.000000
C80   C     C_R   0.359424 0.592603 0.964075 0.000000
C81   C     C_R   0.392523 0.520695 0.895489 0.000000
C82   C     C_R   0.343082 0.489813 0.851494 0.000000
C83   C     C_R   0.259921 0.532557 0.878926 0.000000
C84   C     C_R   0.226529 0.606211 0.942201 0.000000
C85   C     C_R   0.367087 0.435762 0.738986 0.000000
N26   N     N_R   0.424261 0.440187 0.660018 0.000000
C86   C     C_R   0.378838 0.474504 0.554327 0.000000
C87   C     C_R   0.398113 0.503748 0.448345 0.000000
C88   C     C_R   0.334297 0.555309 0.370468 0.000000
N27   N     N_2   0.348940 0.597371 0.273093 0.000000
C89   C     C_R   0.255563 0.566785 0.388165 0.000000
C90   C     C_R   0.239624 0.527651 0.485358 0.000000
C91   C     C_R   0.303483 0.480309 0.564626 0.000000
N28   N     N_R   0.299061 0.445644 0.672277 0.000000
H67   H     H_    0.283819 0.724513 0.093942 0.000000
H68   H     H_    0.186813 0.730364 0.089369 0.000000
H69   H     H_    0.398179 0.616141 0.998331 0.000000
H70   H     H_    0.455889 0.492536 0.869283 0.000000
H71   H     H_    0.218460 0.513447 0.839150 0.000000
H72   H     H_    0.160949 0.640682 0.956590 0.000000
H73   H     H_    0.459622 0.487471 0.423939 0.000000
H74   H     H_    0.305508 0.616885 0.201884 0.000000
H75   H     H_    0.409383 0.573513 0.246230 0.000000
H76   H     H_    0.206979 0.605858 0.324695 0.000000
H77   H     H_    0.178322 0.537399 0.502695 0.000000
N29   N     N_2   0.816820 0.117844 0.203861 0.000000
C92   C     C_R   0.767643 0.197335 0.250356 0.000000
C93   C     C_R   0.713672 0.212466 0.349747 0.000000
C94   C     C_R   0.670463 0.289376 0.401426 0.000000
C95   C     C_R   0.678773 0.350945 0.352582 0.000000
C96   C     C_R   0.723011 0.338293 0.240323 0.000000
C97   C     C_R   0.770139 0.261008 0.192402 0.000000
C98   C     C_R   0.632010 0.430748 0.413100 0.000000
N30   N     N_R   0.585498 0.445183 0.523904 0.000000
C99   C     C_R   0.539206 0.526124 0.523679 0.000000
C100  C     C_R   0.474318 0.571255 0.603655 0.000000
C101  C     C_R   0.422648 0.651031 0.572698 0.000000
N31   N     N_2   0.354515 0.699210 0.650976 0.000000
C102  C     C_R   0.434949 0.682527 0.460908 0.000000
C103  C     C_R   0.499911 0.635318 0.380113 0.000000
C104  C     C_R   0.553611 0.557820 0.416942 0.000000
N32   N     N_R   0.615020 0.499705 0.347521 0.000000
H78   H     H_    0.800675 0.076125 0.235460 0.000000
H79   H     H_    0.833855 0.114089 0.109520 0.000000
H80   H     H_    0.702109 0.165238 0.382047 0.000000
H81   H     H_    0.619392 0.306825 0.464659 0.000000
H82   H     H_    0.721954 0.388764 0.191527 0.000000
H83   H     H_    0.808205 0.250543 0.109027 0.000000
H84   H     H_    0.461987 0.544495 0.685226 0.000000
H85   H     H_    0.332041 0.760352 0.640122 0.000000
H86   H     H_    0.360320 0.679137 0.743395 0.000000
H87   H     H_    0.391791 0.743767 0.434985 0.000000
H88   H     H_    0.505568 0.658743 0.289881 0.000000
N33   N     N_2   0.562323 0.693693 0.501427 0.000000
C105  C     C_R   0.571916 0.641484 0.602581 0.000000
C106  C     C_R   0.634188 0.562192 0.601116 0.000000
C107  C     C_R   0.647299 0.514638 0.705519 0.000000
C108  C     C_R   0.594942 0.543481 0.808119 0.000000
C109  C     C_R   0.526434 0.618061 0.801111 0.000000
C110  C     C_R   0.517230 0.669123 0.702405 0.000000
C111  C     C_R   0.596267 0.483971 0.894164 0.000000
N34   N     N_R   0.590835 0.419264 0.842775 0.000000
C112  C     C_R   0.605697 0.372014 0.943810 0.000000
C113  C     C_R   0.628173 0.291554 0.945639 0.000000
C114  C     C_R   0.632703 0.258842 0.063805 0.000000
N35   N     N_2   0.665708 0.174947 0.076773 0.000000
C115  C     C_R   0.601654 0.309641 0.169108 0.000000
C116  C     C_R   0.590098 0.387703 0.164987 0.000000
C117  C     C_R   0.607926 0.411110 0.052105 0.000000
N36   N     N_R   0.609982 0.479887 0.025875 0.000000
H89   H     H_    0.611760 0.673699 0.441069 0.000000
H90   H     H_    0.533063 0.754039 0.526703 0.000000
H91   H     H_    0.673041 0.536054 0.519364 0.000000
H92   H     H_    0.695478 0.452393 0.703283 0.000000
H93   H     H_    0.476761 0.632478 0.865375 0.000000
H94   H     H_    0.464539 0.728678 0.697942 0.000000
H95   H     H_    0.645201 0.254097 0.860908 0.000000
H96   H     H_    0.676436 0.155895 0.169937 0.000000
H97   H     H_    0.710461 0.141726 0.010652 0.000000
H98   H     H_    0.587808 0.286672 0.252635 0.000000
H99   H     H_    0.560719 0.430654 0.241058 0.000000
N37   N     N_2   0.696174 0.640173 0.635120 0.000000
C118  C     C_R   0.731293 0.600463 0.749986 0.000000
C119  C     C_R   0.701372 0.643233 0.859182 0.000000
C120  C     C_R   0.734977 0.610832 0.973744 0.000000
C121  C     C_R   0.798653 0.534451 0.984020 0.000000
C122  C     C_R   0.829208 0.488760 0.873199 0.000000
C123  C     C_R   0.795095 0.521784 0.755635 0.000000
C124  C     C_R   0.826683 0.500175 0.111580 0.000000
N38   N     N_R   0.909513 0.455221 0.137086 0.000000
C125  C     C_R   0.914931 0.389884 0.192823 0.000000
C126  C     C_R   0.984890 0.319259 0.219794 0.000000
C127  C     C_R   0.975746 0.263967 0.293482 0.000000
N39   N     N_2   0.044237 0.188772 0.319889 0.000000
C128  C     C_R   0.900380 0.285067 0.349441 0.000000
C129  C     C_R   0.831771 0.358229 0.321690 0.000000
C130  C     C_R   0.839149 0.403311 0.226809 0.000000
N40   N     N_R   0.780834 0.471710 0.172838 0.000000
H100  H     H_    0.658210 0.701718 0.640369 0.000000
H101  H     H_    0.723148 0.613097 0.551065 0.000000
H102  H     H_    0.652381 0.703552 0.851795 0.000000
H103  H     H_    0.712262 0.646661 0.054758 0.000000
H104  H     H_    0.878211 0.427045 0.878269 0.000000
H105  H     H_    0.818330 0.485759 0.669729 0.000000
H106  H     H_    0.044233 0.307343 0.185030 0.000000
H107  H     H_    0.040708 0.164565 0.405618 0.000000
H108  H     H_    0.099240 0.186094 0.298115 0.000000
H109  H     H_    0.896244 0.245261 0.418496 0.000000
H110  H     H_    0.778671 0.384254 0.383249 0.000000
N41   N     N_2   0.824867 0.650209 0.642896 0.000000
C131  C     C_R   0.826018 0.653473 0.775582 0.000000
C132  C     C_R   0.768385 0.719933 0.840347 0.000000
C133  C     C_R   0.769385 0.719932 0.971058 0.000000
C134  C     C_R   0.828579 0.655147 0.036539 0.000000
C135  C     C_R   0.886308 0.589000 0.969961 0.000000
C136  C     C_R   0.882151 0.586520 0.839632 0.000000
C137  C     C_R   0.844001 0.667933 0.168077 0.000000
N42   N     N_R   0.812088 0.747606 0.205978 0.000000
C138  C     C_R   0.880101 0.749074 0.251664 0.000000
C139  C     C_R   0.891438 0.815076 0.281047 0.000000
C140  C     C_R   0.970129 0.800164 0.310891 0.000000
N43   N     N_2   0.987200 0.864864 0.323044 0.000000
C141  C     C_R   0.031470 0.722019 0.334227 0.000000
C142  C     C_R   0.017821 0.656909 0.313575 0.000000
C143  C     C_R   0.943642 0.671876 0.262047 0.000000
N44   N     N_R   0.921815 0.618295 0.213682 0.000000
H111  H     H_    0.775531 0.698973 0.602751 0.000000
H112  H     H_    0.832501 0.594340 0.620737 0.000000
H113  H     H_    0.721399 0.770955 0.789731 0.000000
H114  H     H_    0.726345 0.772785 0.021263 0.000000
H115  H     H_    0.935695 0.539551 0.017539 0.000000
H116  H     H_    0.924584 0.532803 0.787306 0.000000
H117  H     H_    0.842889 0.877240 0.280329 0.000000
H118  H     H_    0.031026 0.856870 0.390387 0.000000
H119  H     H_    0.936817 0.921191 0.315727 0.000000
H120  H     H_    0.090266 0.712348 0.368838 0.000000
H121  H     H_    0.064307 0.597197 0.338587 0.000000
N45   N     N_2   0.950655 0.545954 0.485002 0.000000
C144  C     C_R   0.874502 0.579436 0.422083 0.000000
C145  C     C_R   0.829497 0.538782 0.414733 0.000000
C146  C     C_R   0.756925 0.571404 0.348982 0.000000
C147  C     C_R   0.722959 0.650024 0.315139 0.000000
C148  C     C_R   0.756182 0.696361 0.355839 0.000000
C149  C     C_R   0.834417 0.660742 0.401756 0.000000
C150  C     C_R   0.651463 0.687282 0.237467 0.000000
N46   N     N_R   0.614940 0.645610 0.183813 0.000000
C151  C     C_R   0.564628 0.697945 0.097464 0.000000
C152  C     C_R   0.501840 0.696293 0.032546 0.000000
C153  C     C_R   0.462828 0.754952 0.940303 0.000000
N47   N     N_2   0.389960 0.765339 0.881738 0.000000
C154  C     C_R   0.498016 0.801614 0.902190 0.000000
C155  C     C_R   0.560080 0.802530 0.974909 0.000000
C156  C     C_R   0.581074 0.759833 0.084559 0.000000
N48   N     N_R   0.635093 0.756228 0.173217 0.000000
H122  H     H_    0.952043 0.523276 0.574300 0.000000
H123  H     H_    0.980184 0.579673 0.477252 0.000000
H124  H     H_    0.843663 0.487435 0.471385 0.000000
H125  H     H_    0.720088 0.541839 0.343824 0.000000
H126  H     H_    0.717853 0.760326 0.355142 0.000000
H127  H     H_    0.860279 0.696902 0.436881 0.000000
H128  H     H_    0.480813 0.655105 0.062057 0.000000
H129  H     H_    0.356315 0.820775 0.839733 0.000000
H130  H     H_    0.357490 0.745538 0.936108 0.000000
H131  H     H_    0.477128 0.836659 0.816005 0.000000
H132  H     H_    0.601204 0.822521 0.938883 0.000000

loop_
_geom_bond_atom_site_label_1
_geom_bond_atom_site_label_2
_geom_bond_distance
_geom_bond_site_symmetry_2
_ccdc_geom_bond_type
Zn1   N2    2.088 .      S
Zn1   N6    2.050 .      S
Zn1   N12   2.054 1_545  S
Zn1   N14   2.168 1_545  S
Zn2   N4    2.074 .      S
Zn2   N20   2.092 .      S
Zn2   N22   2.082 .      S
Zn2   N28   2.027 .      S
Zn3   N8    2.031 .      S
Zn3   N26   2.099 .      S
Zn3   N30   2.084 .      S
Zn3   N34   2.054 .      S
Zn4   N18   2.183 1_655  S
Zn4   N24   2.062 1_655  S
Zn4   N38   2.068 .      S
Zn4   N44   2.079 .      S
Zn5   N10   2.154 .      S
Zn5   N16   2.150 .      S
Zn5   N42   2.134 .      S
Zn5   N48   2.042 .      S
Zn6   N32   2.046 .      S
Zn6   N36   2.129 .      S
Zn6   N40   2.080 .      S
Zn6   N46   2.044 .      S
N1    C1    1.410 .      S
N1    H1    1.026 .      S
N1    H2    1.028 .      S
C2    H3    1.080 .      S
C3    H4    1.079 .      S
C4    C7    1.457 .      S
C5    H5    1.068 .      S
C6    H6    1.079 .      S
C9    H7    1.060 .      S
C10   N3    1.389 .      S
N3    H8    1.015 .      S
N3    H9    1.029 .      S
C11   H10   1.081 1_556  S
C12   H11   1.070 .      S
H10   C11   1.081 1_554  S
N5    C14   1.402 .      S
N5    H12   1.029 .      S
N5    H13   1.020 .      S
C15   H14   1.081 .      S
C16   H15   1.042 .      S
C17   C20   1.450 .      S
C18   H16   1.069 .      S
C19   H17   1.064 .      S
C22   H18   1.065 .      S
C23   N7    1.405 .      S
N7    H19   1.029 .      S
N7    H20   1.029 1_545  S
C24   H21   1.080 .      S
C25   H22   1.081 .      S
H20   N7    1.029 1_565  S
N9    C27   1.408 .      S
N9    H23   1.029 .      S
N9    H24   1.029 1_655  S
C28   H25   1.075 .      S
C29   H26   1.050 .      S
C30   C33   1.470 .      S
C31   H27   1.071 .      S
C32   H28   1.065 .      S
C35   H29   1.066 .      S
C36   N11   1.408 .      S
N11   H30   1.029 .      S
N11   H31   1.029 .      S
C37   H32   1.081 .      S
C38   H33   1.080 .      S
N12   Zn1   2.054 1_565  S
H24   N9    1.029 1_455  S
N13   C40   1.408 .      S
N13   H34   1.029 .      S
N13   H35   1.029 1_556  S
C41   H36   1.081 .      S
C42   H37   1.073 .      S
C43   C46   1.464 .      S
C44   H38   1.076 .      S
C45   H39   1.081 .      S
N14   Zn1   2.168 1_565  S
C48   H40   1.078 .      S
C49   N15   1.408 .      S
N15   H41   1.029 .      S
N15   H42   1.029 .      S
C50   H43   1.081 .      S
C51   H44   1.060 .      S
H35   N13   1.029 1_554  S
N17   C53   1.401 .      S
N17   H45   1.026 .      S
N17   H46   1.028 .      S
C54   H47   1.072 .      S
C55   H48   1.069 .      S
C56   C59   1.441 .      S
C57   H49   1.080 .      S
C58   H50   1.075 .      S
N18   Zn4   2.183 1_455  S
C61   H51   1.055 .      S
C62   N19   1.406 .      S
N19   H52   1.020 .      S
N19   H53   1.029 .      S
C63   H54   1.081 .      S
C64   H55   1.065 .      S
N21   C66   1.405 .      S
N21   H56   1.029 .      S
N21   H57   1.029 .      S
C67   H58   1.074 .      S
C68   H59   1.080 .      S
C69   C72   1.452 .      S
C70   H60   1.076 1_656  S
C71   H61   1.079 1_556  S
C74   H62   1.081 .      S
C75   N23   1.381 .      S
N23   H63   1.027 .      S
N23   H64   1.019 1_554  S
C76   H65   1.080 .      S
C77   H66   1.068 .      S
N24   Zn4   2.062 1_455  S
H60   C70   1.076 1_454  S
H61   C71   1.079 1_554  S
H64   N23   1.019 1_556  S
N25   C79   1.409 1_554  S
N25   H67   1.029 .      S
N25   H68   1.029 .      S
C79   N25   1.409 1_556  S
C80   H69   1.071 .      S
C81   H70   1.069 .      S
C82   C85   1.467 .      S
C83   H71   1.076 .      S
C84   H72   1.081 .      S
C87   H73   1.064 .      S
C88   N27   1.407 .      S
N27   H74   1.027 .      S
N27   H75   1.029 .      S
C89   H76   1.079 .      S
C90   H77   1.081 .      S
N29   C92   1.409 .      S
N29   H78   1.029 .      S
N29   H79   1.029 .      S
C93   H80   1.074 .      S
C94   H81   1.072 .      S
C95   C98   1.463 .      S
C96   H82   1.080 .      S
C97   H83   1.081 .      S
C100  H84   1.079 .      S
C101  N31   1.408 .      S
N31   H85   1.029 .      S
N31   H86   1.029 .      S
C102  H87   1.080 .      S
C103  H88   1.075 .      S
N33   C105  1.408 .      S
N33   H89   1.026 .      S
N33   H90   1.029 .      S
C106  H91   1.071 .      S
C107  H92   1.081 .      S
C108  C111  1.442 .      S
C109  H93   1.068 .      S
C110  H94   1.079 .      S
C113  H95   1.073 .      S
C114  N35   1.405 .      S
N35   H96   1.028 .      S
N35   H97   1.027 .      S
C115  H98   1.068 .      S
C116  H99   1.071 .      S
N37   C118  1.405 .      S
N37   H100  1.029 .      S
N37   H101  1.014 .      S
C119  H102  1.065 .      S
C120  H103  1.031 1_556  S
C121  C124  1.469 1_556  S
C122  H104  1.081 .      S
C123  H105  1.076 .      S
C124  C121  1.469 1_554  S
C126  H106  1.080 1_655  S
C127  N39   1.406 1_655  S
N39   C127  1.406 1_455  S
N39   H107  1.029 .      S
N39   H108  1.027 .      S
C128  H109  1.080 .      S
C129  H110  1.078 .      S
H103  C120  1.031 1_554  S
H106  C126  1.080 1_455  S
N41   C131  1.387 .      S
N41   H111  1.028 .      S
N41   H112  1.018 .      S
C132  H113  1.081 .      S
C133  H114  1.063 1_556  S
C134  C137  1.442 .      S
C135  H115  1.069 1_556  S
C136  H116  1.080 .      S
C139  H117  1.082 .      S
C140  N43   1.407 .      S
N43   H118  1.029 1_655  S
N43   H119  1.027 .      S
C141  H120  1.079 .      S
C142  H121  1.074 .      S
H114  C133  1.063 1_554  S
H115  C135  1.069 1_554  S
H118  N43   1.029 1_455  S
N45   C144  1.405 .      S
N45   H122  1.028 .      S
N45   H123  1.027 .      S
C145  H124  1.063 .      S
C146  H125  1.074 .      S
C147  C150  1.422 .      S
C148  H126  1.066 .      S
C149  H127  1.068 .      S
C152  H128  1.076 .      S
C153  N47   1.409 .      S
N47   H129  1.029 .      S
N47   H130  1.029 .      S
C154  H131  1.080 .      S
C155  H132  1.076 .      S
C1    C2    1.385 .      A
C1    C6    1.366 .      A
C2    C3    1.384 .      A
C3    C4    1.376 .      A
C4    C5    1.382 .      A
C5    C6    1.367 .      A
C7    N2    1.391 .      A
C7    N4    1.381 .      A
N2    C8    1.333 .      A
C8    C9    1.344 .      A
C8    C13   1.353 .      A
C9    C10   1.368 1_556  A
C10   C9    1.368 1_554  A
C10   C11   1.386 1_554  A
C11   C10   1.386 1_556  A
C11   C12   1.378 .      A
C12   C13   1.374 .      A
C13   N4    1.342 .      A
C14   C15   1.365 .      A
C14   C19   1.378 .      A
C15   C16   1.366 1_554  A
C16   C15   1.366 1_556  A
C16   C17   1.368 .      A
C17   C18   1.365 .      A
C18   C19   1.372 1_556  A
C19   C18   1.372 1_554  A
C20   N6    1.374 .      A
C20   N8    1.370 .      A
N6    C21   1.352 .      A
C21   C22   1.370 .      A
C21   C26   1.359 .      A
C22   C23   1.384 .      A
C23   C24   1.388 .      A
C24   C25   1.382 .      A
C25   C26   1.372 .      A
C26   N8    1.342 .      A
C27   C28   1.366 .      A
C27   C32   1.368 .      A
C28   C29   1.385 .      A
C29   C30   1.355 .      A
C30   C31   1.376 .      A
C31   C32   1.383 .      A
C33   N10   1.399 .      A
C33   N12   1.382 .      A
N10   C34   1.360 .      A
C34   C35   1.379 .      A
C34   C39   1.367 .      A
C35   C36   1.383 .      A
C36   C37   1.387 .      A
C37   C38   1.382 1_565  A
C38   C37   1.382 1_545  A
C38   C39   1.377 1_545  A
C39   C38   1.377 1_565  A
C39   N12   1.339 .      A
C40   C41   1.380 .      A
C40   C45   1.380 1_556  A
C41   C42   1.379 .      A
C42   C43   1.368 .      A
C43   C44   1.372 1_556  A
C44   C43   1.372 1_554  A
C44   C45   1.379 .      A
C45   C40   1.380 1_554  A
C46   N14   1.397 .      A
C46   N16   1.394 1_556  A
N14   C47   1.351 .      A
C47   C48   1.384 1_565  A
C47   C52   1.360 1_556  A
C48   C47   1.384 1_545  A
C48   C49   1.389 .      A
C49   C50   1.387 1_546  A
C50   C49   1.387 1_564  A
C50   C51   1.380 .      A
C51   C52   1.354 .      A
C52   C47   1.360 1_554  A
C52   N16   1.342 .      A
N16   C46   1.394 1_554  A
C53   C54   1.375 .      A
C53   C58   1.375 .      A
C54   C55   1.370 .      A
C55   C56   1.371 .      A
C56   C57   1.374 .      A
C57   C58   1.366 .      A
C59   N18   1.394 .      A
C59   N20   1.381 .      A
N18   C60   1.371 .      A
C60   C61   1.379 1_455  A
C60   C65   1.365 .      A
C61   C60   1.379 1_655  A
C61   C62   1.396 .      A
C62   C63   1.376 1_655  A
C63   C62   1.376 1_455  A
C63   C64   1.367 .      A
C64   C65   1.363 .      A
C65   N20   1.328 .      A
C66   C67   1.378 .      A
C66   C71   1.372 .      A
C67   C68   1.382 1_655  A
C68   C67   1.382 1_455  A
C68   C69   1.376 .      A
C69   C70   1.373 1_455  A
C70   C69   1.373 1_655  A
C70   C71   1.371 .      A
C72   N22   1.384 .      A
C72   N24   1.385 1_556  A
N22   C73   1.335 .      A
C73   C74   1.350 .      A
C73   C78   1.353 1_556  A
C74   C75   1.375 1_556  A
C75   C74   1.375 1_554  A
C75   C76   1.380 .      A
C76   C77   1.373 .      A
C77   C78   1.371 .      A
C78   C73   1.353 1_554  A
C78   N24   1.337 .      A
N24   C72   1.385 1_554  A
C79   C80   1.373 .      A
C79   C84   1.371 .      A
C80   C81   1.380 .      A
C81   C82   1.379 .      A
C82   C83   1.386 .      A
C83   C84   1.379 .      A
C85   N26   1.386 .      A
C85   N28   1.373 .      A
N26   C86   1.354 .      A
C86   C87   1.370 .      A
C86   C91   1.358 .      A
C87   C88   1.384 .      A
C88   C89   1.387 .      A
C89   C90   1.381 .      A
C90   C91   1.371 .      A
C91   N28   1.333 .      A
C92   C93   1.378 .      A
C92   C97   1.376 .      A
C93   C94   1.379 .      A
C94   C95   1.353 .      A
C95   C96   1.388 .      A
C96   C97   1.378 .      A
C98   N30   1.393 .      A
C98   N32   1.376 .      A
N30   C99   1.345 .      A
C99   C100  1.372 .      A
C99   C104  1.362 .      A
C100  C101  1.383 .      A
C101  C102  1.389 .      A
C102  C103  1.386 .      A
C103  C104  1.375 .      A
C104  N32   1.346 .      A
C105  C106  1.382 .      A
C105  C110  1.372 .      A
C106  C107  1.368 .      A
C107  C108  1.371 .      A
C108  C109  1.372 .      A
C109  C110  1.376 .      A
C111  N34   1.375 .      A
C111  N36   1.394 1_556  A
N34   C112  1.332 .      A
C112  C113  1.368 .      A
C112  C117  1.352 1_556  A
C113  C114  1.373 1_556  A
C114  C113  1.373 1_554  A
C114  C115  1.380 .      A
C115  C116  1.385 .      A
C116  C117  1.364 .      A
C117  C112  1.352 1_554  A
C117  N36   1.351 .      A
N36   C111  1.394 1_554  A
C118  C119  1.345 .      A
C118  C123  1.386 .      A
C119  C120  1.357 .      A
C120  C121  1.360 .      A
C121  C122  1.383 .      A
C122  C123  1.390 .      A
C124  N38   1.380 .      A
C124  N40   1.375 .      A
N38   C125  1.332 .      A
C125  C126  1.373 .      A
C125  C130  1.356 .      A
C126  C127  1.383 .      A
C127  C128  1.391 .      A
C128  C129  1.389 .      A
C129  C130  1.367 .      A
C130  N40   1.351 .      A
C131  C132  1.367 .      A
C131  C136  1.371 .      A
C132  C133  1.366 .      A
C133  C134  1.376 1_556  A
C134  C133  1.376 1_554  A
C134  C135  1.374 1_554  A
C135  C134  1.374 1_556  A
C135  C136  1.365 .      A
C137  N42   1.377 .      A
C137  N44   1.377 .      A
N42   C138  1.362 .      A
C138  C139  1.391 .      A
C138  C143  1.369 .      A
C139  C140  1.385 .      A
C140  C141  1.386 1_655  A
C141  C140  1.386 1_455  A
C141  C142  1.384 .      A
C142  C143  1.376 1_455  A
C143  C142  1.376 1_655  A
C143  N44   1.350 .      A
C144  C145  1.384 .      A
C144  C149  1.365 .      A
C145  C146  1.368 .      A
C146  C147  1.356 .      A
C147  C148  1.355 .      A
C148  C149  1.363 .      A
C150  N46   1.376 .      A
C150  N48   1.372 .      A
N46   C151  1.338 .      A
C151  C152  1.360 .      A
C151  C156  1.353 .      A
C152  C153  1.390 1_554  A
C153  C152  1.390 1_556  A
C153  C154  1.392 .      A
C154  C155  1.385 .      A
C155  C156  1.354 1_556  A
C156  C155  1.354 1_554  A
C156  N48   1.340 .      A
