data_str_m1_o12271_ASV
_audit_creation_date              2015-10-01T06:27:09-0700
_symmetry_space_group_name_H-M    P1
_symmetry_Int_Tables_number       1
_space_group_crystal_system       triclinic
loop_
_symmetry_equiv_pos_as_xyz
  x,y,z
_cell_length_a                    15.0418922
_cell_length_b                    19.3896436
_cell_length_c                    19.5241257
_cell_angle_alpha                 88.9032854
_cell_angle_beta                  91.6820379
_cell_angle_gamma                 90.2700551
_cell_volume                      5690.80119021

loop_
_atom_site_label
_atom_site_type_symbol
_atom_site_description
_atom_site_fract_x
_atom_site_fract_y
_atom_site_fract_z
_atom_type_partial_charge
Zn1   Zn    Zn3+2 0.257341 0.602891 0.841480 0.000000
Zn2   Zn    Zn3+2 0.545865 0.369490 0.328345 0.000000
Zn3   Zn    Zn3+2 0.261555 0.101453 0.328095 0.000000
Zn4   Zn    Zn3+2 0.970704 0.351608 0.358699 0.000000
Zn5   Zn    Zn3+2 0.534948 0.600967 0.576583 0.000000
Zn6   Zn    Zn3+2 0.553134 0.629868 0.094428 0.000000
Zn7   Zn    Zn3+2 0.960367 0.591792 0.589112 0.000000
Zn8   Zn    Zn3+2 0.970571 0.590170 0.096797 0.000000
Zn9   Zn    Zn3+2 0.978124 0.829135 0.333223 0.000000
Zn10  Zn    Zn3+2 0.543965 0.852452 0.336259 0.000000
Br1   Br    Br    0.369842 0.351598 0.407241 0.000000
C1    C     C_R   0.387609 0.264016 0.450813 0.000000
C2    C     C_R   0.384952 0.252236 0.520663 0.000000
C3    C     C_R   0.431146 0.197496 0.549251 0.000000
C4    C     C_R   0.488248 0.162122 0.509088 0.000000
C5    C     C_R   0.477566 0.165840 0.438970 0.000000
C6    C     C_R   0.421941 0.215207 0.410491 0.000000
C7    C     C_R   0.411313 0.225173 0.337459 0.000000
N1    N     N_R   0.354618 0.182991 0.297793 0.000000
C8    C     C_R   0.368176 0.209079 0.234830 0.000000
C9    C     C_R   0.337491 0.182243 0.174206 0.000000
C10   C     C_R   0.364245 0.213495 0.114000 0.000000
C11   C     C_R   0.420478 0.270430 0.115773 0.000000
C12   C     C_R   0.452212 0.296196 0.177593 0.000000
C13   C     C_R   0.425849 0.264690 0.237102 0.000000
N2    N     N_R   0.454546 0.278630 0.302265 0.000000
H1    H     H_    0.353799 0.287273 0.554270 0.000000
H2    H     H_    0.434225 0.190270 0.604327 0.000000
H3    H     H_    0.540099 0.130838 0.532715 0.000000
H4    H     H_    0.517073 0.133916 0.407100 0.000000
H5    H     H_    0.294844 0.137667 0.173486 0.000000
H6    H     H_    0.341230 0.193539 0.065258 0.000000
H7    H     H_    0.440596 0.293996 0.068205 0.000000
H8    H     H_    0.499253 0.337659 0.179053 0.000000
Br2   Br    Br    0.746407 0.456168 0.499432 0.000000
C14   C     C_R   0.742335 0.361041 0.507777 0.000000
C15   C     C_R   0.747301 0.332857 0.573065 0.000000
C16   C     C_R   0.741306 0.262702 0.583147 0.000000
C17   C     C_R   0.732543 0.221106 0.527363 0.000000
C18   C     C_R   0.733950 0.248965 0.461789 0.000000
C19   C     C_R   0.740091 0.319704 0.450988 0.000000
C20   C     C_R   0.751529 0.345172 0.379941 0.000000
N3    N     N_R   0.677709 0.331959 0.337197 0.000000
C21   C     C_R   0.710271 0.285525 0.294644 0.000000
C22   C     C_R   0.663541 0.241479 0.253164 0.000000
C23   C     C_R   0.710112 0.192224 0.218919 0.000000
C24   C     C_R   0.801643 0.188104 0.227298 0.000000
C25   C     C_R   0.847495 0.233854 0.269680 0.000000
C26   C     C_R   0.800044 0.281597 0.302391 0.000000
N4    N     N_R   0.830931 0.323805 0.351305 0.000000
H9    H     H_    0.754556 0.366022 0.616523 0.000000
H10   H     H_    0.742847 0.240601 0.634430 0.000000
H11   H     H_    0.726407 0.166417 0.535655 0.000000
H12   H     H_    0.731086 0.214526 0.418984 0.000000
H13   H     H_    0.593898 0.246538 0.245742 0.000000
H14   H     H_    0.676042 0.158149 0.183658 0.000000
H15   H     H_    0.835041 0.149516 0.198835 0.000000
H16   H     H_    0.917444 0.233505 0.280254 0.000000
Br3   Br    Br    0.644295 0.528310 0.337128 0.000000
C27   C     C_R   0.526142 0.562606 0.344863 0.000000
C28   C     C_R   0.481431 0.606174 0.299869 0.000000
C29   C     C_R   0.394076 0.621917 0.311851 0.000000
C30   C     C_R   0.350457 0.592927 0.364790 0.000000
C31   C     C_R   0.394893 0.549825 0.408573 0.000000
C32   C     C_R   0.482174 0.537913 0.399044 0.000000
C33   C     C_R   0.525815 0.491798 0.444051 0.000000
N5    N     N_R   0.536889 0.423143 0.426553 0.000000
C34   C     C_R   0.552586 0.394894 0.489292 0.000000
C35   C     C_R   0.557078 0.326534 0.507426 0.000000
C36   C     C_R   0.561921 0.309623 0.576998 0.000000
C37   C     C_R   0.574428 0.360071 0.625466 0.000000
C38   C     C_R   0.579619 0.428116 0.605010 0.000000
C39   C     C_R   0.558542 0.444479 0.538418 0.000000
N6    N     N_R   0.538322 0.507665 0.512714 0.000000
H17   H     H_    0.511815 0.625061 0.254556 0.000000
H18   H     H_    0.354424 0.653156 0.279236 0.000000
H19   H     H_    0.280842 0.602542 0.370256 0.000000
H20   H     H_    0.362108 0.524941 0.450118 0.000000
H21   H     H_    0.558109 0.288026 0.468693 0.000000
H22   H     H_    0.567619 0.256903 0.594554 0.000000
H23   H     H_    0.583005 0.345836 0.679043 0.000000
H24   H     H_    0.582935 0.468039 0.641492 0.000000
Br4   Br    Br    0.758627 0.433249 0.248930 0.000000
C40   C     C_R   0.682059 0.395400 0.179883 0.000000
C41   C     C_R   0.706240 0.337776 0.145080 0.000000
C42   C     C_R   0.663818 0.320011 0.084683 0.000000
C43   C     C_R   0.600902 0.363191 0.055914 0.000000
C44   C     C_R   0.577358 0.421611 0.089752 0.000000
C45   C     C_R   0.619276 0.438403 0.151504 0.000000
C46   C     C_R   0.575913 0.485454 0.196091 0.000000
N7    N     N_R   0.528521 0.449609 0.246450 0.000000
C47   C     C_R   0.445297 0.467748 0.227856 0.000000
C48   C     C_R   0.372361 0.427341 0.238104 0.000000
C49   C     C_R   0.301003 0.434371 0.193303 0.000000
C50   C     C_R   0.298711 0.485652 0.144420 0.000000
C51   C     C_R   0.371946 0.526987 0.135510 0.000000
C52   C     C_R   0.444654 0.518048 0.177564 0.000000
N8    N     N_R   0.527505 0.537887 0.161897 0.000000
H25   H     H_    0.762260 0.308489 0.163098 0.000000
H26   H     H_    0.682523 0.273922 0.058461 0.000000
H27   H     H_    0.568062 0.349777 0.008158 0.000000
H28   H     H_    0.521249 0.450607 0.069401 0.000000
H29   H     H_    0.372810 0.386796 0.275244 0.000000
H30   H     H_    0.244016 0.402171 0.198045 0.000000
H31   H     H_    0.239399 0.491244 0.112549 0.000000
H32   H     H_    0.376397 0.559090 0.091282 0.000000
Br5   Br    Br    0.254732 0.921515 0.462105 0.000000
C53   C     C_R   0.169324 0.991866 0.473222 0.000000
C54   C     C_R   0.160471 0.024460 0.535045 0.000000
C55   C     C_R   0.087181 0.064860 0.545573 0.000000
C56   C     C_R   0.026167 0.076662 0.492872 0.000000
C57   C     C_R   0.036045 0.045006 0.431022 0.000000
C58   C     C_R   0.107515 0.002246 0.421412 0.000000
C59   C     C_R   0.121001 0.974101 0.353783 0.000000
N9    N     N_R   0.163229 0.018320 0.306739 0.000000
C60   C     C_R   0.116771 0.003755 0.248784 0.000000
C61   C     C_R   0.124626 0.033463 0.184927 0.000000
C62   C     C_R   0.056054 0.022607 0.137446 0.000000
C63   C     C_R   0.979207 0.988195 0.156100 0.000000
C64   C     C_R   0.975655 0.954221 0.218741 0.000000
C65   C     C_R   0.048812 0.958247 0.261874 0.000000
N10   N     N_R   0.056613 0.929156 0.324690 0.000000
H33   H     H_    0.207950 0.014850 0.576752 0.000000
H34   H     H_    0.078345 0.088148 0.594770 0.000000
H35   H     H_    0.970047 0.110021 0.500293 0.000000
H36   H     H_    0.987246 0.053535 0.390212 0.000000
H37   H     H_    0.179542 0.066595 0.172897 0.000000
H38   H     H_    0.060462 0.043355 0.085905 0.000000
H39   H     H_    0.923608 0.985682 0.120248 0.000000
H40   H     H_    0.917708 0.925650 0.233493 0.000000
Br6   Br    Br    0.527461 0.114169 0.260650 0.000000
C66   C     C_R   0.460183 0.051884 0.207000 0.000000
C67   C     C_R   0.460673 0.061212 0.136777 0.000000
C68   C     C_R   0.396873 0.030277 0.095921 0.000000
C69   C     C_R   0.328839 0.994725 0.126161 0.000000
C70   C     C_R   0.328633 0.986076 0.196444 0.000000
C71   C     C_R   0.399834 0.007654 0.237324 0.000000
C72   C     C_R   0.406771 0.992228 0.312572 0.000000
N11   N     N_R   0.362303 0.031819 0.359424 0.000000
C73   C     C_R   0.405115 0.013551 0.419147 0.000000
C74   C     C_R   0.390348 0.031710 0.485704 0.000000
C75   C     C_R   0.455909 0.017647 0.534264 0.000000
C76   C     C_R   0.535093 0.990572 0.513947 0.000000
C77   C     C_R   0.537102 0.954031 0.454583 0.000000
C78   C     C_R   0.470029 0.966617 0.407874 0.000000
N12   N     N_R   0.469548 0.946730 0.342979 0.000000
H41   H     H_    0.508820 0.095595 0.114059 0.000000
H42   H     H_    0.396510 0.038158 0.040951 0.000000
H43   H     H_    0.274616 0.974494 0.094901 0.000000
H44   H     H_    0.272266 0.961329 0.218375 0.000000
H45   H     H_    0.331399 0.054286 0.502731 0.000000
H46   H     H_    0.450272 0.037506 0.585333 0.000000
H47   H     H_    0.594621 0.999682 0.543933 0.000000
H48   H     H_    0.594303 0.924581 0.441232 0.000000
Br7   Br    Br    0.993604 0.118082 0.257415 0.000000
C79   C     C_R   0.072826 0.182974 0.216638 0.000000
C80   C     C_R   0.085544 0.185141 0.146805 0.000000
C81   C     C_R   0.141041 0.233130 0.118301 0.000000
C82   C     C_R   0.186875 0.277790 0.159751 0.000000
C83   C     C_R   0.176432 0.274824 0.229841 0.000000
C84   C     C_R   0.115938 0.229736 0.257939 0.000000
C85   C     C_R   0.112824 0.220575 0.331869 0.000000
N13   N     N_R   0.066102 0.262558 0.376274 0.000000
C86   C     C_R   0.100173 0.237445 0.438416 0.000000
C87   C     C_R   0.095336 0.261676 0.504468 0.000000
C88   C     C_R   0.143939 0.231246 0.558083 0.000000
C89   C     C_R   0.208348 0.183668 0.545132 0.000000
C90   C     C_R   0.218993 0.164358 0.478697 0.000000
C91   C     C_R   0.160712 0.186479 0.429278 0.000000
N14   N     N_R   0.169736 0.173136 0.363886 0.000000
H49   H     H_    0.048904 0.152002 0.112890 0.000000
H50   H     H_    0.149922 0.234789 0.063557 0.000000
H51   H     H_    0.234221 0.312090 0.136524 0.000000
H52   H     H_    0.217968 0.305727 0.263202 0.000000
H53   H     H_    0.071151 0.310594 0.515551 0.000000
H54   H     H_    0.140038 0.251771 0.608984 0.000000
H55   H     H_    0.252820 0.165196 0.585847 0.000000
H56   H     H_    0.275427 0.137877 0.461945 0.000000
Br8   Br    Br    0.137228 0.583602 0.567361 0.000000
C92   C     C_R   0.170956 0.504891 0.524859 0.000000
C93   C     C_R   0.255477 0.484846 0.540142 0.000000
C94   C     C_R   0.279776 0.418918 0.527596 0.000000
C95   C     C_R   0.222237 0.378516 0.491695 0.000000
C96   C     C_R   0.150070 0.406700 0.459459 0.000000
C97   C     C_R   0.115777 0.465376 0.484434 0.000000
C98   C     C_R   0.018963 0.468702 0.484845 0.000000
N15   N     N_R   0.983034 0.486484 0.546246 0.000000
C99   C     C_R   0.941703 0.426092 0.561705 0.000000
C100  C     C_R   0.957753 0.392368 0.623090 0.000000
C101  C     C_R   0.946592 0.321865 0.629741 0.000000
C102  C     C_R   0.925904 0.283106 0.573068 0.000000
C103  C     C_R   0.917227 0.315214 0.509413 0.000000
C104  C     C_R   0.932344 0.385533 0.504587 0.000000
N16   N     N_R   0.974090 0.414534 0.451656 0.000000
H57   H     H_    0.297441 0.519874 0.568177 0.000000
H58   H     H_    0.343157 0.398640 0.543164 0.000000
H59   H     H_    0.236696 0.325524 0.483879 0.000000
H60   H     H_    0.112503 0.374550 0.425923 0.000000
H61   H     H_    0.988534 0.420266 0.663726 0.000000
H62   H     H_    0.960145 0.296349 0.678593 0.000000
H63   H     H_    0.922791 0.227491 0.577715 0.000000
H64   H     H_    0.916011 0.283936 0.464271 0.000000
Br9   Br    Br    0.804681 0.473800 0.101397 0.000000
C105  C     C_R   0.869222 0.395737 0.094590 0.000000
C106  C     C_R   0.850632 0.350208 0.042809 0.000000
C107  C     C_R   0.874176 0.282683 0.051812 0.000000
C108  C     C_R   0.916913 0.262920 0.111828 0.000000
C109  C     C_R   0.945496 0.311490 0.158877 0.000000
C110  C     C_R   0.919337 0.378960 0.151366 0.000000
C111  C     C_R   0.951917 0.432947 0.199232 0.000000
N17   N     N_R   0.986896 0.495482 0.171001 0.000000
C112  C     C_R   0.064852 0.497434 0.206302 0.000000
C113  C     C_R   0.125812 0.548855 0.203241 0.000000
C114  C     C_R   0.194341 0.547943 0.251635 0.000000
C115  C     C_R   0.204987 0.492595 0.297677 0.000000
C116  C     C_R   0.146612 0.438145 0.295622 0.000000
C117  C     C_R   0.072939 0.445141 0.254252 0.000000
N18   N     N_R   0.997432 0.409113 0.259325 0.000000
H65   H     H_    0.808363 0.364960 0.999568 0.000000
H66   H     H_    0.853312 0.244698 0.014780 0.000000
H67   H     H_    0.924677 0.208788 0.121795 0.000000
H68   H     H_    0.984637 0.296643 0.202878 0.000000
H69   H     H_    0.118444 0.588931 0.165056 0.000000
H70   H     H_    0.241853 0.588795 0.250097 0.000000
H71   H     H_    0.261799 0.487892 0.331849 0.000000
H72   H     H_    0.157328 0.392623 0.326408 0.000000
Br10  Br    Br    0.364043 0.813919 0.555004 0.000000
C118  C     C_R   0.482249 0.840558 0.578442 0.000000
C119  C     C_R   0.492593 0.890707 0.627183 0.000000
C120  C     C_R   0.575253 0.915328 0.645240 0.000000
C121  C     C_R   0.646079 0.897139 0.606939 0.000000
C122  C     C_R   0.635748 0.849336 0.555757 0.000000
C123  C     C_R   0.554935 0.815484 0.544397 0.000000
C124  C     C_R   0.540346 0.760555 0.492392 0.000000
N19   N     N_R   0.503708 0.696480 0.513830 0.000000
C125  C     C_R   0.431279 0.693838 0.472376 0.000000
C126  C     C_R   0.352746 0.665458 0.493292 0.000000
C127  C     C_R   0.274279 0.691555 0.465137 0.000000
C128  C     C_R   0.275302 0.747388 0.420643 0.000000
C129  C     C_R   0.354923 0.776546 0.403260 0.000000
C130  C     C_R   0.432715 0.745919 0.423122 0.000000
N20   N     N_R   0.508410 0.782863 0.427151 0.000000
H73   H     H_    0.434857 0.913638 0.648809 0.000000
H74   H     H_    0.582939 0.954344 0.683809 0.000000
H75   H     H_    0.710206 0.921016 0.616572 0.000000
H76   H     H_    0.694708 0.837420 0.529609 0.000000
H77   H     H_    0.352820 0.626242 0.533100 0.000000
H78   H     H_    0.211475 0.671747 0.480223 0.000000
H79   H     H_    0.213885 0.772777 0.405626 0.000000
H80   H     H_    0.357467 0.830695 0.393692 0.000000
Br11  Br    Br    0.627162 0.601170 0.739972 0.000000
C131  C     C_R   0.689554 0.520313 0.719696 0.000000
C132  C     C_R   0.683820 0.464322 0.763784 0.000000
C133  C     C_R   0.749978 0.416265 0.765913 0.000000
C134  C     C_R   0.825425 0.430266 0.730598 0.000000
C135  C     C_R   0.826251 0.483914 0.682621 0.000000
C136  C     C_R   0.750785 0.520806 0.668455 0.000000
C137  C     C_R   0.747432 0.573206 0.612551 0.000000
N21   N     N_R   0.670118 0.611321 0.602890 0.000000
C138  C     C_R   0.700889 0.675639 0.604898 0.000000
C139  C     C_R   0.661348 0.725168 0.642343 0.000000
C140  C     C_R   0.715385 0.776223 0.668882 0.000000
C141  C     C_R   0.797196 0.788659 0.640383 0.000000
C142  C     C_R   0.836518 0.737694 0.603500 0.000000
C143  C     C_R   0.790735 0.676489 0.598486 0.000000
N22   N     N_R   0.823646 0.611450 0.600676 0.000000
H81   H     H_    0.630273 0.459377 0.798689 0.000000
H82   H     H_    0.747802 0.373078 0.801669 0.000000
H83   H     H_    0.882691 0.398766 0.741801 0.000000
H84   H     H_    0.885867 0.500991 0.659081 0.000000
H85   H     H_    0.593480 0.719636 0.658159 0.000000
H86   H     H_    0.689655 0.811248 0.705776 0.000000
H87   H     H_    0.832925 0.835592 0.651710 0.000000
H88   H     H_    0.905476 0.742728 0.592321 0.000000
Br12  Br    Br    0.280577 0.694930 0.643081 0.000000
C144  C     C_R   0.363779 0.738843 0.701380 0.000000
C145  C     C_R   0.360759 0.807886 0.716631 0.000000
C146  C     C_R   0.423846 0.835185 0.761236 0.000000
C147  C     C_R   0.487636 0.793008 0.791493 0.000000
C148  C     C_R   0.485221 0.723127 0.779998 0.000000
C149  C     C_R   0.424596 0.696446 0.732730 0.000000
C150  C     C_R   0.411339 0.622466 0.723306 0.000000
N23   N     N_R   0.358216 0.583601 0.767957 0.000000
C151  C     C_R   0.371687 0.520293 0.746399 0.000000
C152  C     C_R   0.348904 0.460438 0.779275 0.000000
C153  C     C_R   0.364740 0.399278 0.747431 0.000000
C154  C     C_R   0.391393 0.401271 0.680352 0.000000
C155  C     C_R   0.413609 0.463692 0.649492 0.000000
C156  C     C_R   0.416599 0.521307 0.687011 0.000000
N24   N     N_R   0.446843 0.585320 0.669115 0.000000
H89   H     H_    0.309351 0.840661 0.694328 0.000000
H90   H     H_    0.422521 0.889362 0.773254 0.000000
H91   H     H_    0.535588 0.813879 0.827938 0.000000
H92   H     H_    0.528974 0.690566 0.810375 0.000000
H93   H     H_    0.324627 0.461618 0.829855 0.000000
H94   H     H_    0.349097 0.350648 0.772385 0.000000
H95   H     H_    0.393482 0.353997 0.652222 0.000000
H96   H     H_    0.424321 0.469294 0.596606 0.000000
Br13  Br    Br    0.350203 0.852016 0.267145 0.000000
C157  C     C_R   0.331003 0.771659 0.221171 0.000000
C158  C     C_R   0.243684 0.754577 0.210400 0.000000
C159  C     C_R   0.220704 0.705594 0.164210 0.000000
C160  C     C_R   0.285294 0.669692 0.133408 0.000000
C161  C     C_R   0.373097 0.682677 0.149859 0.000000
C162  C     C_R   0.398129 0.733461 0.194195 0.000000
C163  C     C_R   0.493959 0.746191 0.206669 0.000000
N25   N     N_R   0.520421 0.808983 0.234474 0.000000
C164  C     C_R   0.576624 0.832445 0.187260 0.000000
C165  C     C_R   0.599258 0.900356 0.177524 0.000000
C166  C     C_R   0.627120 0.920549 0.113496 0.000000
C167  C     C_R   0.630836 0.872702 0.061789 0.000000
C168  C     C_R   0.617839 0.803003 0.075437 0.000000
C169  C     C_R   0.592375 0.783082 0.139831 0.000000
N26   N     N_R   0.548578 0.723858 0.155184 0.000000
H97   H     H_    0.193720 0.782085 0.236875 0.000000
H98   H     H_    0.152966 0.696273 0.150644 0.000000
H99   H     H_    0.265739 0.632265 0.095638 0.000000
H100  H     H_    0.422934 0.653958 0.127219 0.000000
H101  H     H_    0.584445 0.938165 0.215201 0.000000
H102  H     H_    0.638880 0.974548 0.102128 0.000000
H103  H     H_    0.643776 0.890262 0.010144 0.000000
H104  H     H_    0.614864 0.766740 0.034183 0.000000
Br14  Br    Br    0.525468 0.553435 0.861500 0.000000
C170  C     C_R   0.460556 0.493561 0.916576 0.000000
C171  C     C_R   0.462545 0.422934 0.909756 0.000000
C172  C     C_R   0.404003 0.382435 0.945691 0.000000
C173  C     C_R   0.341429 0.413522 0.984703 0.000000
C174  C     C_R   0.339416 0.484503 0.988431 0.000000
C175  C     C_R   0.404796 0.524230 0.960217 0.000000
C176  C     C_R   0.403165 0.600131 0.961935 0.000000
N27   N     N_R   0.454047 0.641233 0.007200 0.000000
C177  C     C_R   0.428901 0.705375 0.983803 0.000000
C178  C     C_R   0.436921 0.768097 0.015049 0.000000
C179  C     C_R   0.407220 0.827197 0.981033 0.000000
C180  C     C_R   0.365958 0.823206 0.917181 0.000000
C181  C     C_R   0.347599 0.759327 0.890457 0.000000
C182  C     C_R   0.375563 0.701997 0.926287 0.000000
N28   N     N_R   0.352697 0.637069 0.913210 0.000000
H105  H     H_    0.507337 0.399602 0.874747 0.000000
H106  H     H_    0.404363 0.327019 0.940676 0.000000
H107  H     H_    0.292733 0.382413 0.010836 0.000000
H108  H     H_    0.286584 0.510030 0.012650 0.000000
H109  H     H_    0.454763 0.772192 0.067112 0.000000
H110  H     H_    0.414145 0.876608 0.005394 0.000000
H111  H     H_    0.343209 0.869539 0.890604 0.000000
H112  H     H_    0.314413 0.753973 0.842203 0.000000
Br15  Br    Br    0.743253 0.711123 0.928071 0.000000
C183  C     C_R   0.783014 0.755835 0.009579 0.000000
C184  C     C_R   0.804743 0.824732 0.004804 0.000000
C185  C     C_R   0.821880 0.861459 0.063255 0.000000
C186  C     C_R   0.817759 0.829009 0.126444 0.000000
C187  C     C_R   0.800298 0.759324 0.131014 0.000000
C188  C     C_R   0.782386 0.722509 0.073194 0.000000
C189  C     C_R   0.770107 0.647945 0.077055 0.000000
N29   N     N_R   0.686943 0.621867 0.057841 0.000000
C190  C     C_R   0.708986 0.577590 0.008867 0.000000
C191  C     C_R   0.655130 0.528582 0.981326 0.000000
C192  C     C_R   0.692231 0.480579 0.939130 0.000000
C193  C     C_R   0.782687 0.482162 0.926646 0.000000
C194  C     C_R   0.837735 0.528885 0.959560 0.000000
C195  C     C_R   0.799186 0.576088 0.000611 0.000000
N30   N     N_R   0.840097 0.610799 0.051520 0.000000
H113  H     H_    0.804207 0.850726 0.955313 0.000000
H114  H     H_    0.834222 0.916134 0.059139 0.000000
H115  H     H_    0.827893 0.858080 0.172346 0.000000
H116  H     H_    0.799737 0.733077 0.179347 0.000000
H117  H     H_    0.587478 0.526430 0.996518 0.000000
H118  H     H_    0.651723 0.439597 0.918277 0.000000
H119  H     H_    0.811699 0.442759 0.896199 0.000000
H120  H     H_    0.908860 0.524921 0.957345 0.000000
Br16  Br    Br    0.877992 0.558127 0.447137 0.000000
C196  C     C_R   0.814637 0.634544 0.455538 0.000000
C197  C     C_R   0.725144 0.627732 0.453262 0.000000
C198  C     C_R   0.676465 0.683389 0.437509 0.000000
C199  C     C_R   0.715826 0.747151 0.441646 0.000000
C200  C     C_R   0.805212 0.753912 0.453086 0.000000
C201  C     C_R   0.856318 0.696511 0.452279 0.000000
C202  C     C_R   0.952679 0.702322 0.455471 0.000000
N31   N     N_R   0.995767 0.675150 0.514104 0.000000
C203  C     C_R   0.056403 0.725618 0.525901 0.000000
C204  C     C_R   0.099499 0.737951 0.586624 0.000000
C205  C     C_R   0.132688 0.802242 0.599565 0.000000
C206  C     C_R   0.116861 0.854581 0.553361 0.000000
C207  C     C_R   0.080485 0.841338 0.489195 0.000000
C208  C     C_R   0.053244 0.775914 0.475579 0.000000
N32   N     N_R   0.993890 0.760716 0.425935 0.000000
H121  H     H_    0.692957 0.579019 0.456924 0.000000
H122  H     H_    0.609144 0.674680 0.419994 0.000000
H123  H     H_    0.677669 0.792606 0.433152 0.000000
H124  H     H_    0.834829 0.803579 0.458607 0.000000
H125  H     H_    0.104173 0.700393 0.625017 0.000000
H126  H     H_    0.164516 0.813713 0.648073 0.000000
H127  H     H_    0.129746 0.905270 0.570915 0.000000
H128  H     H_    0.061284 0.881673 0.454091 0.000000
Br17  Br    Br    0.962506 0.519984 0.817365 0.000000
C209  C     C_R   0.052647 0.467829 0.776870 0.000000
C210  C     C_R   0.055732 0.397343 0.787978 0.000000
C211  C     C_R   0.114626 0.358197 0.752857 0.000000
C212  C     C_R   0.170883 0.389823 0.707477 0.000000
C213  C     C_R   0.171865 0.460832 0.700132 0.000000
C214  C     C_R   0.111616 0.499992 0.733685 0.000000
C215  C     C_R   0.106400 0.574836 0.723159 0.000000
N33   N     N_R   0.032101 0.604354 0.689602 0.000000
C216  C     C_R   0.028247 0.664790 0.722578 0.000000
C217  C     C_R   0.962938 0.712714 0.718561 0.000000
C218  C     C_R   0.985534 0.780043 0.733593 0.000000
C219  C     C_R   0.071062 0.795382 0.756357 0.000000
C220  C     C_R   0.127454 0.742562 0.776991 0.000000
C221  C     C_R   0.103566 0.676699 0.760799 0.000000
N34   N     N_R   0.153035 0.619549 0.766999 0.000000
H129  H     H_    0.009471 0.372559 0.822006 0.000000
H130  H     H_    0.115184 0.302734 0.759607 0.000000
H131  H     H_    0.214400 0.358652 0.677944 0.000000
H132  H     H_    0.218939 0.485815 0.667811 0.000000
H133  H     H_    0.895706 0.695432 0.711849 0.000000
H134  H     H_    0.936814 0.820527 0.731451 0.000000
H135  H     H_    0.089628 0.848241 0.766519 0.000000
H136  H     H_    0.190166 0.754094 0.799964 0.000000
Br18  Br    Br    0.847567 0.586815 0.203481 0.000000
C222  C     C_R   0.941159 0.594481 0.269929 0.000000
C223  C     C_R   0.953681 0.542190 0.314589 0.000000
C224  C     C_R   0.028705 0.542378 0.354928 0.000000
C225  C     C_R   0.080151 0.599436 0.364906 0.000000
C226  C     C_R   0.063869 0.654859 0.323291 0.000000
C227  C     C_R   0.998627 0.648775 0.273067 0.000000
C228  C     C_R   0.991005 0.700900 0.222889 0.000000
N35   N     N_R   0.987771 0.685198 0.153881 0.000000
C229  C     C_R   0.999628 0.748573 0.126417 0.000000
C230  C     C_R   0.990691 0.769427 0.059638 0.000000
C231  C     C_R   0.015111 0.836975 0.045170 0.000000
C232  C     C_R   0.070472 0.870926 0.090600 0.000000
C233  C     C_R   0.073138 0.849719 0.158102 0.000000
C234  C     C_R   0.018479 0.796082 0.175928 0.000000
N36   N     N_R   0.004948 0.769535 0.239227 0.000000
H137  H     H_    0.909458 0.498431 0.314293 0.000000
H138  H     H_    0.049917 0.494759 0.373023 0.000000
H139  H     H_    0.136394 0.598130 0.400273 0.000000
H140  H     H_    0.107446 0.699271 0.325382 0.000000
H141  H     H_    0.959058 0.736577 0.022670 0.000000
H142  H     H_    0.996164 0.863284 0.998286 0.000000
H143  H     H_    0.107902 0.915237 0.073486 0.000000
H144  H     H_    0.119827 0.872401 0.193587 0.000000
Br19  Br    Br    0.220883 0.750824 0.008376 0.000000
C235  C     C_R   0.123775 0.742512 0.945517 0.000000
C236  C     C_R   0.090274 0.802056 0.915616 0.000000
C237  C     C_R   0.005377 0.802612 0.887153 0.000000
C238  C     C_R   0.958943 0.741962 0.880445 0.000000
C239  C     C_R   0.995818 0.681312 0.904878 0.000000
C240  C     C_R   0.077791 0.681183 0.938479 0.000000
C241  C     C_R   0.112420 0.614948 0.963950 0.000000
N37   N     N_R   0.165190 0.575145 0.921528 0.000000
C242  C     C_R   0.143325 0.510952 0.942025 0.000000
C243  C     C_R   0.163801 0.450374 0.911281 0.000000
C244  C     C_R   0.132179 0.389192 0.938753 0.000000
C245  C     C_R   0.078347 0.389989 0.994888 0.000000
C246  C     C_R   0.054890 0.451996 0.022756 0.000000
C247  C     C_R   0.088207 0.511989 0.996435 0.000000
N38   N     N_R   0.066014 0.576947 0.013393 0.000000
H145  H     H_    0.126289 0.850065 0.921520 0.000000
H146  H     H_    0.976445 0.850480 0.868123 0.000000
H147  H     H_    0.894554 0.741999 0.854749 0.000000
H148  H     H_    0.958159 0.634274 0.900671 0.000000
H149  H     H_    0.199005 0.450325 0.864875 0.000000
H150  H     H_    0.147667 0.340791 0.915343 0.000000
H151  H     H_    0.051843 0.342208 0.015276 0.000000
H152  H     H_    0.008786 0.453768 0.061818 0.000000
Br20  Br    Br    0.651888 0.013468 0.330642 0.000000
C248  C     C_R   0.732887 0.998072 0.403508 0.000000
C249  C     C_R   0.739373 0.042780 0.457153 0.000000
C250  C     C_R   0.803557 0.032432 0.508089 0.000000
C251  C     C_R   0.864441 0.980347 0.502045 0.000000
C252  C     C_R   0.859034 0.937569 0.446599 0.000000
C253  C     C_R   0.788437 0.943076 0.399996 0.000000
C254  C     C_R   0.771620 0.889901 0.348619 0.000000
N39   N     N_R   0.686666 0.862238 0.333155 0.000000
C255  C     C_R   0.709299 0.803063 0.303998 0.000000
C256  C     C_R   0.655113 0.746666 0.298919 0.000000
C257  C     C_R   0.691481 0.685577 0.284265 0.000000
C258  C     C_R   0.777053 0.675761 0.305274 0.000000
C259  C     C_R   0.833351 0.731096 0.308214 0.000000
C260  C     C_R   0.798482 0.795106 0.302801 0.000000
N40   N     N_R   0.841296 0.849286 0.328124 0.000000
H153  H     H_    0.692834 0.084762 0.459246 0.000000
H154  H     H_    0.807982 0.065752 0.551763 0.000000
H155  H     H_    0.916110 0.972574 0.541032 0.000000
H156  H     H_    0.908404 0.898126 0.442086 0.000000
H157  H     H_    0.589815 0.744817 0.319276 0.000000
H158  H     H_    0.649814 0.643548 0.272202 0.000000
H159  H     H_    0.796717 0.625258 0.322658 0.000000
H160  H     H_    0.898553 0.726046 0.328585 0.000000

loop_
_geom_bond_atom_site_label_1
_geom_bond_atom_site_label_2
_geom_bond_distance
_geom_bond_site_symmetry_2
_ccdc_geom_bond_type
Zn1   N23   2.158 .      S
Zn1   N28   2.090 .      S
Zn1   N34   2.129 .      S
Zn1   N37   2.177 .      S
Zn2   N2    2.285 .      S
Zn2   N3    2.117 .      S
Zn2   N5    2.207 .      S
Zn2   N7    2.219 .      S
Zn3   N1    2.191 .      S
Zn3   N9    2.220 .      S
Zn3   N11   2.104 .      S
Zn3   N14   2.107 .      S
Zn4   N4    2.169 .      S
Zn4   N13   2.265 1_655  S
Zn4   N16   2.205 .      S
Zn4   N18   2.265 .      S
Zn5   N6    2.218 .      S
Zn5   N19   2.245 .      S
Zn5   N21   2.092 .      S
Zn5   N24   2.286 .      S
Zn6   N8    2.236 .      S
Zn6   N26   2.196 .      S
Zn6   N27   2.238 .      S
Zn6   N29   2.163 .      S
Zn7   N15   2.253 .      S
Zn7   N22   2.113 .      S
Zn7   N31   2.233 .      S
Zn7   N33   2.228 1_655  S
Zn8   N17   2.326 .      S
Zn8   N30   2.165 .      S
Zn8   N35   2.182 .      S
Zn8   N38   2.222 1_655  S
Zn9   N10   2.272 1_655  S
Zn9   N32   2.231 .      S
Zn9   N36   2.235 1_655  S
Zn9   N40   2.096 .      S
Zn10  N12   2.156 .      S
Zn10  N20   2.283 .      S
Zn10  N25   2.192 .      S
Zn10  N39   2.156 .      S
Br1   C1    1.901 .      S
C2    H1    1.072 .      S
C3    H2    1.081 .      S
C4    H3    1.078 .      S
C5    H4    1.079 .      S
C6    C7    1.440 .      S
C9    H5    1.074 .      S
C10   H6    1.081 .      S
C11   H7    1.078 .      S
C12   H8    1.069 .      S
Br2   C14   1.849 .      S
C15   H9    1.077 .      S
C16   H10   1.081 .      S
C17   H11   1.074 .      S
C18   H12   1.079 .      S
C19   C20   1.478 .      S
C22   H13   1.058 .      S
C23   H14   1.080 .      S
C24   H15   1.076 .      S
C25   H16   1.066 .      S
Br3   C27   1.912 .      S
C28   H17   1.066 .      S
C29   H18   1.046 .      S
C30   H19   1.073 .      S
C31   H20   1.068 .      S
C32   C33   1.394 .      S
C35   H21   1.073 .      S
C36   H22   1.075 .      S
C37   H23   1.081 .      S
C38   H24   1.062 .      S
Br4   C40   1.903 .      S
C41   H25   1.066 .      S
C42   H26   1.081 .      S
C43   H27   1.078 .      S
C44   H28   1.078 .      S
C45   C46   1.444 .      S
C48   H29   1.059 .      S
C49   H30   1.063 .      S
C50   H31   1.077 .      S
C51   H32   1.058 .      S
Br5   C53   1.898 .      S
C54   H33   1.081 .      S
C55   H34   1.081 .      S
C56   H35   1.081 1_455  S
C57   H36   1.078 1_455  S
C58   C59   1.458 1_545  S
C59   C58   1.458 1_565  S
C61   H37   1.073 .      S
C62   H38   1.080 .      S
C63   H39   1.076 .      S
C64   H40   1.074 .      S
N10   Zn9   2.272 1_455  S
H35   C56   1.081 1_655  S
H36   C57   1.078 1_655  S
Br6   C66   1.885 .      S
C67   H41   1.081 .      S
C68   H42   1.081 .      S
C69   H43   1.081 .      S
C70   H44   1.069 .      S
C71   C72   1.494 1_545  S
C72   C71   1.494 1_565  S
C74   H45   1.056 .      S
C75   H46   1.081 .      S
C76   H47   1.071 .      S
C77   H48   1.076 .      S
Br7   C79   1.908 1_655  S
C79   Br7   1.908 1_455  S
C80   H49   1.071 .      S
C81   H50   1.081 .      S
C82   H51   1.076 .      S
C83   H52   1.078 .      S
C84   C85   1.453 .      S
N13   Zn4   2.265 1_455  S
C87   H53   1.046 .      S
C88   H54   1.081 .      S
C89   H55   1.081 .      S
C90   H56   1.057 .      S
Br8   C92   1.832 .      S
C93   H57   1.072 .      S
C94   H58   1.067 .      S
C95   H59   1.066 .      S
C96   H60   1.062 .      S
C97   C98   1.458 .      S
C100  H61   1.063 .      S
C101  H62   1.081 .      S
C102  H63   1.081 .      S
C103  H64   1.079 .      S
Br9   C105  1.811 .      S
C106  H65   1.077 1_554  S
C107  H66   1.081 .      S
C108  H67   1.070 .      S
C109  H68   1.063 .      S
C110  C111  1.488 .      S
C113  H69   1.070 .      S
C114  H70   1.065 .      S
C115  H71   1.072 .      S
C116  H72   1.069 .      S
H65   C106  1.077 1_556  S
Br10  C118  1.895 .      S
C119  H73   1.078 .      S
C120  H74   1.081 .      S
C121  H75   1.081 .      S
C122  H76   1.065 .      S
C123  C124  1.497 .      S
C126  H77   1.077 .      S
C127  H78   1.066 .      S
C128  H79   1.079 .      S
C129  H80   1.064 .      S
Br11  C131  1.885 .      S
C132  H81   1.073 .      S
C133  H82   1.081 .      S
C134  H83   1.073 .      S
C135  H84   1.068 .      S
C136  C137  1.477 .      S
C139  H85   1.079 .      S
C140  H86   1.080 .      S
C141  H87   1.078 .      S
C142  H88   1.070 .      S
Br12  C144  1.879 .      S
C145  H89   1.080 .      S
C146  H90   1.081 .      S
C147  H91   1.081 .      S
C148  H92   1.072 .      S
C149  C150  1.462 .      S
C152  H93   1.064 .      S
C153  H94   1.081 .      S
C154  H95   1.079 .      S
C155  H96   1.053 .      S
Br13  C157  1.831 .      S
C158  H97   1.074 .      S
C159  H98   1.061 .      S
C160  H99   1.078 .      S
C161  H100  1.049 .      S
C162  C163  1.475 .      S
C165  H101  1.077 .      S
C166  H102  1.081 .      S
C167  H103  1.081 .      S
C168  H104  1.079 .      S
Br14  C170  1.860 .      S
C171  H105  1.081 .      S
C172  H106  1.081 .      S
C173  H107  1.080 1_556  S
C174  H108  1.065 1_556  S
C175  C176  1.473 .      S
C178  H109  1.048 .      S
C179  H110  1.081 1_556  S
C180  H111  1.081 .      S
C181  H112  1.060 .      S
H107  C173  1.080 1_554  S
H108  C174  1.065 1_554  S
H110  C179  1.081 1_554  S
Br15  C183  1.906 1_556  S
C183  Br15  1.906 1_554  S
C184  H113  1.081 1_554  S
C185  H114  1.077 .      S
C186  H115  1.075 .      S
C187  H116  1.064 .      S
C188  C189  1.457 .      S
C191  H117  1.069 .      S
C192  H118  1.078 .      S
C193  H119  1.079 .      S
C194  H120  1.075 .      S
H113  C184  1.081 1_556  S
Br16  C196  1.778 .      S
C197  H121  1.061 .      S
C198  H122  1.073 .      S
C199  H123  1.062 .      S
C200  H124  1.065 .      S
C201  C202  1.453 .      S
C204  H125  1.036 .      S
C205  H126  1.075 .      S
C206  H127  1.062 .      S
C207  H128  1.065 .      S
Br17  C209  1.895 1_655  S
C209  Br17  1.895 1_455  S
C210  H129  1.081 .      S
C211  H130  1.081 .      S
C212  H131  1.080 .      S
C213  H132  1.070 .      S
C214  C215  1.464 .      S
N33   Zn7   2.228 1_455  S
C217  H133  1.069 .      S
C218  H134  1.076 .      S
C219  H135  1.081 .      S
C220  H136  1.057 .      S
Br18  C222  1.893 .      S
C223  H137  1.076 .      S
C224  H138  1.031 .      S
C225  H139  1.076 .      S
C226  H140  1.080 .      S
C227  C228  1.397 .      S
C230  H141  1.071 .      S
C231  H142  1.071 1_454  S
C232  H143  1.078 .      S
C233  H144  1.071 .      S
N36   Zn9   2.235 1_455  S
H142  C231  1.071 1_656  S
Br19  C235  1.888 1_554  S
C235  Br19  1.888 1_556  S
C236  H145  1.081 .      S
C237  H146  1.082 1_455  S
C238  H147  1.078 .      S
C239  H148  1.075 .      S
C240  C241  1.461 .      S
C243  H149  1.063 .      S
C244  H150  1.081 .      S
C245  H151  1.080 1_556  S
C246  H152  1.047 .      S
N38   Zn8   2.222 1_455  S
H146  C237  1.082 1_655  S
H151  C245  1.080 1_554  S
Br20  C248  1.866 1_545  S
C248  Br20  1.866 1_565  S
C249  H153  1.078 .      S
C250  H154  1.080 .      S
C251  H155  1.081 .      S
C252  H156  1.075 .      S
C253  C254  1.468 .      S
C256  H157  1.071 .      S
C257  H158  1.052 .      S
C258  H159  1.070 .      S
C259  H160  1.052 .      S
C1    C2    1.380 .      A
C1    C6    1.356 .      A
C2    C3    1.372 .      A
C3    C4    1.374 .      A
C4    C5    1.374 .      A
C5    C6    1.373 .      A
C7    N1    1.405 .      A
C7    N2    1.401 .      A
N1    C8    1.341 .      A
C8    C9    1.369 .      A
C8    C13   1.381 .      A
C9    C10   1.382 .      A
C10   C11   1.388 .      A
C11   C12   1.386 .      A
C12   C13   1.370 .      A
C13   N2    1.363 .      A
C14   C15   1.377 .      A
C14   C19   1.380 .      A
C15   C16   1.374 .      A
C16   C17   1.370 .      A
C17   C18   1.381 .      A
C18   C19   1.387 .      A
C20   N3    1.395 .      A
C20   N4    1.401 .      A
N3    C21   1.341 .      A
C21   C22   1.366 .      A
C21   C26   1.357 .      A
C22   C23   1.381 .      A
C23   C24   1.384 .      A
C24   C25   1.391 .      A
C25   C26   1.353 .      A
C26   N4    1.341 .      A
C27   C28   1.371 .      A
C27   C32   1.343 .      A
C28   C29   1.378 .      A
C29   C30   1.352 .      A
C30   C31   1.349 .      A
C31   C32   1.353 .      A
C33   N5    1.393 .      A
C33   N6    1.388 .      A
N5    C34   1.347 .      A
C34   C35   1.367 .      A
C34   C39   1.372 .      A
C35   C36   1.391 .      A
C36   C37   1.382 .      A
C37   C38   1.374 .      A
C38   C39   1.361 .      A
C39   N6    1.348 .      A
C40   C41   1.375 .      A
C40   C45   1.361 .      A
C41   C42   1.373 .      A
C42   C43   1.368 .      A
C43   C44   1.375 .      A
C44   C45   1.388 .      A
C46   N7    1.403 .      A
C46   N8    1.401 .      A
N7    C47   1.340 .      A
C47   C48   1.362 .      A
C47   C52   1.371 .      A
C48   C49   1.370 .      A
C49   C50   1.365 .      A
C50   C51   1.372 .      A
C51   C52   1.358 .      A
C52   N8    1.345 .      A
C53   C54   1.383 1_565  A
C53   C58   1.366 1_565  A
C54   C53   1.383 1_545  A
C54   C55   1.378 .      A
C55   C56   1.375 .      A
C56   C57   1.377 .      A
C57   C58   1.380 .      A
C58   C53   1.366 1_545  A
C59   N9    1.408 1_565  A
C59   N10   1.414 .      A
N9    C59   1.408 1_545  A
N9    C60   1.346 .      A
C60   C61   1.371 .      A
C60   C65   1.374 1_545  A
C61   C62   1.385 .      A
C62   C63   1.386 1_445  A
C63   C62   1.386 1_665  A
C63   C64   1.380 .      A
C64   C65   1.369 1_655  A
C65   C60   1.374 1_565  A
C65   C64   1.369 1_455  A
C65   N10   1.342 .      A
C66   C67   1.380 .      A
C66   C71   1.384 .      A
C67   C68   1.373 .      A
C68   C69   1.373 1_545  A
C69   C68   1.373 1_565  A
C69   C70   1.379 .      A
C70   C71   1.385 1_565  A
C71   C70   1.385 1_545  A
C72   N11   1.393 1_565  A
C72   N12   1.406 .      A
N11   C72   1.393 1_545  A
N11   C73   1.357 .      A
C73   C74   1.377 .      A
C73   C78   1.363 1_545  A
C74   C75   1.372 .      A
C75   C76   1.376 1_545  A
C76   C75   1.376 1_565  A
C76   C77   1.371 .      A
C77   C78   1.360 .      A
C78   C73   1.363 1_565  A
C78   N12   1.331 .      A
C79   C80   1.382 .      A
C79   C84   1.373 .      A
C80   C81   1.368 .      A
C81   C82   1.367 .      A
C82   C83   1.382 .      A
C83   C84   1.377 .      A
C85   N13   1.406 .      A
C85   N14   1.387 .      A
N13   C86   1.384 .      A
C86   C87   1.385 .      A
C86   C91   1.365 .      A
C87   C88   1.383 .      A
C88   C89   1.373 .      A
C89   C90   1.371 .      A
C90   C91   1.350 .      A
C91   N14   1.319 .      A
C92   C93   1.354 .      A
C92   C97   1.370 .      A
C93   C94   1.360 .      A
C94   C95   1.354 .      A
C95   C96   1.351 .      A
C96   C97   1.356 .      A
C98   N15   1.380 1_455  A
C98   N16   1.404 1_455  A
N15   C98   1.380 1_655  A
N15   C99   1.356 .      A
C99   C100  1.370 .      A
C99   C104  1.380 .      A
C100  C101  1.381 .      A
C101  C102  1.377 .      A
C102  C103  1.382 .      A
C103  C104  1.383 .      A
C104  N16   1.338 .      A
N16   C98   1.404 1_655  A
C105  C106  1.377 .      A
C105  C110  1.357 .      A
C106  C107  1.365 .      A
C107  C108  1.369 .      A
C108  C109  1.386 .      A
C109  C110  1.372 .      A
C111  N17   1.427 .      A
C111  N18   1.412 .      A
N17   C112  1.343 1_655  A
C112  N17   1.343 1_455  A
C112  C113  1.353 .      A
C112  C117  1.370 .      A
C113  C114  1.378 .      A
C114  C115  1.393 .      A
C115  C116  1.370 .      A
C116  C117  1.358 .      A
C117  N18   1.336 1_455  A
N18   C117  1.336 1_655  A
C118  C119  1.379 .      A
C118  C123  1.391 .      A
C119  C120  1.369 .      A
C120  C121  1.371 .      A
C121  C122  1.381 .      A
C122  C123  1.393 .      A
C124  N19   1.418 .      A
C124  N20   1.409 .      A
N19   C125  1.339 .      A
C125  C126  1.371 .      A
C125  C130  1.382 .      A
C126  C127  1.381 .      A
C127  C128  1.375 .      A
C128  C129  1.371 .      A
C129  C130  1.358 .      A
C130  N20   1.343 .      A
C131  C132  1.376 .      A
C131  C136  1.379 .      A
C132  C133  1.366 .      A
C133  C134  1.369 .      A
C134  C135  1.387 .      A
C135  C136  1.363 .      A
C137  N21   1.387 .      A
C137  N22   1.385 .      A
N21   C138  1.329 .      A
C138  C139  1.367 .      A
C138  C143  1.361 .      A
C139  C140  1.377 .      A
C140  C141  1.384 .      A
C141  C142  1.379 .      A
C142  C143  1.373 .      A
C143  N22   1.356 .      A
C144  C145  1.378 .      A
C144  C149  1.357 .      A
C145  C146  1.380 .      A
C146  C147  1.376 .      A
C147  C148  1.378 .      A
C148  C149  1.384 .      A
C150  N23   1.406 .      A
C150  N24   1.410 .      A
N23   C151  1.324 .      A
C151  C152  1.363 .      A
C151  C156  1.359 .      A
C152  C153  1.374 .      A
C153  C154  1.381 .      A
C154  C155  1.386 .      A
C155  C156  1.347 .      A
C156  N24   1.363 .      A
C157  C158  1.364 .      A
C157  C162  1.378 .      A
C158  C159  1.359 .      A
C159  C160  1.359 .      A
C160  C161  1.373 .      A
C161  C162  1.368 .      A
C163  N25   1.394 .      A
C163  N26   1.393 .      A
N25   C164  1.341 .      A
C164  C165  1.370 .      A
C164  C169  1.371 .      A
C165  C166  1.379 .      A
C166  C167  1.387 .      A
C167  C168  1.387 .      A
C168  C169  1.373 .      A
C169  N26   1.354 .      A
C170  C171  1.379 .      A
C170  C175  1.360 .      A
C171  C172  1.376 .      A
C172  C173  1.376 .      A
C173  C174  1.380 .      A
C174  C175  1.368 .      A
C176  N27   1.408 1_556  A
C176  N28   1.390 .      A
N27   C176  1.408 1_554  A
N27   C177  1.368 1_554  A
C177  N27   1.368 1_556  A
C177  C178  1.374 1_556  A
C177  C182  1.363 .      A
C178  C177  1.374 1_554  A
C178  C179  1.383 1_554  A
C179  C178  1.383 1_556  A
C179  C180  1.380 .      A
C180  C181  1.377 .      A
C181  C182  1.364 .      A
C182  N28   1.331 .      A
C183  C184  1.376 .      A
C183  C188  1.389 .      A
C184  C185  1.374 .      A
C185  C186  1.377 .      A
C186  C187  1.377 .      A
C187  C188  1.367 .      A
C189  N29   1.391 .      A
C189  N30   1.388 .      A
N29   C190  1.347 .      A
C190  C191  1.355 1_554  A
C190  C195  1.372 .      A
C191  C190  1.355 1_556  A
C191  C192  1.385 .      A
C192  C193  1.389 .      A
C193  C194  1.380 .      A
C194  C195  1.370 1_556  A
C195  C194  1.370 1_554  A
C195  N30   1.344 .      A
C196  C197  1.352 .      A
C196  C201  1.354 .      A
C197  C198  1.333 .      A
C198  C199  1.371 .      A
C199  C200  1.363 .      A
C200  C201  1.356 .      A
C202  N31   1.395 .      A
C202  N32   1.410 .      A
N31   C203  1.353 1_655  A
C203  N31   1.353 1_455  A
C203  C204  1.359 .      A
C203  C208  1.371 .      A
C204  C205  1.366 .      A
C205  C206  1.362 .      A
C206  C207  1.380 .      A
C207  C208  1.360 .      A
C208  N32   1.335 1_455  A
N32   C208  1.335 1_655  A
C209  C210  1.380 .      A
C209  C214  1.380 .      A
C210  C211  1.376 .      A
C211  C212  1.377 .      A
C212  C213  1.382 .      A
C213  C214  1.374 .      A
C215  N33   1.398 .      A
C215  N34   1.401 .      A
N33   C216  1.350 .      A
C216  C217  1.355 1_455  A
C216  C221  1.359 .      A
C217  C216  1.355 1_655  A
C217  C218  1.382 .      A
C218  C219  1.382 1_655  A
C219  C218  1.382 1_455  A
C219  C220  1.380 .      A
C220  C221  1.365 .      A
C221  N34   1.339 .      A
C222  C223  1.335 .      A
C222  C227  1.360 .      A
C223  C224  1.357 1_655  A
C224  C223  1.357 1_455  A
C224  C225  1.361 .      A
C225  C226  1.354 .      A
C226  C227  1.373 1_455  A
C227  C226  1.373 1_655  A
C228  N35   1.386 .      A
C228  N36   1.388 1_655  A
N35   C229  1.344 .      A
C229  C230  1.361 .      A
C229  C234  1.371 1_655  A
C230  C231  1.385 1_655  A
C231  C230  1.385 1_455  A
C231  C232  1.374 .      A
C232  C233  1.373 .      A
C233  C234  1.369 .      A
C234  C229  1.371 1_455  A
C234  N36   1.350 .      A
N36   C228  1.388 1_455  A
C235  C236  1.375 .      A
C235  C240  1.380 .      A
C236  C237  1.378 .      A
C237  C238  1.371 1_455  A
C238  C237  1.371 1_655  A
C238  C239  1.374 .      A
C239  C240  1.380 1_655  A
C240  C239  1.380 1_455  A
C241  N37   1.407 .      A
C241  N38   1.403 1_556  A
N37   C242  1.343 .      A
C242  C243  1.370 .      A
C242  C247  1.367 .      A
C243  C244  1.381 .      A
C244  C245  1.382 .      A
C245  C246  1.381 1_556  A
C246  C245  1.381 1_554  A
C246  C247  1.362 1_554  A
C247  C246  1.362 1_556  A
C247  N38   1.354 1_556  A
N38   C241  1.403 1_554  A
N38   C247  1.354 1_554  A
C248  C249  1.373 1_565  A
C248  C253  1.362 .      A
C249  C248  1.373 1_545  A
C249  C250  1.378 .      A
C250  C251  1.376 1_545  A
C251  C250  1.376 1_565  A
C251  C252  1.377 .      A
C252  C253  1.381 .      A
C254  N39   1.410 .      A
C254  N40   1.387 .      A
N39   C255  1.340 .      A
C255  C256  1.364 .      A
C255  C260  1.352 .      A
C256  C257  1.346 .      A
C257  C258  1.353 .      A
C258  C259  1.365 .      A
C259  C260  1.351 .      A
C260  N40   1.326 .      A
