data_str_m1_o12004_SAO
_audit_creation_date              2015-10-01T06:32:49-0700
_symmetry_space_group_name_H-M    P1
_symmetry_Int_Tables_number       1
_space_group_crystal_system       triclinic
loop_
_symmetry_equiv_pos_as_xyz
  x,y,z
_cell_length_a                    28.5866099
_cell_length_b                    28.7407985
_cell_length_c                    29.6660043
_cell_angle_alpha                 118.438938
_cell_angle_beta                  62.0368821
_cell_angle_gamma                 93.7781976
_cell_volume                      18537.2634661

loop_
_atom_site_label
_atom_site_type_symbol
_atom_site_description
_atom_site_fract_x
_atom_site_fract_y
_atom_site_fract_z
_atom_type_partial_charge
Zn1   Zn    Zn3+2 0.101976 0.216399 0.704931 0.000000
Zn2   Zn    Zn3+2 0.153724 0.437815 0.595627 0.000000
Zn3   Zn    Zn3+2 0.922158 0.677152 0.610105 0.000000
Zn4   Zn    Zn3+2 0.022608 0.896819 0.856057 0.000000
Zn5   Zn    Zn3+2 0.314265 0.197646 0.468079 0.000000
Zn6   Zn    Zn3+2 0.786767 0.027470 0.324527 0.000000
Zn7   Zn    Zn3+2 0.890718 0.996635 0.694044 0.000000
Zn8   Zn    Zn3+2 0.921422 0.190286 0.443194 0.000000
Zn9   Zn    Zn3+2 0.005248 0.905617 0.079492 0.000000
Zn10  Zn    Zn3+2 0.591396 0.689315 0.076980 0.000000
Zn11  Zn    Zn3+2 0.550012 0.819639 0.344839 0.000000
Zn12  Zn    Zn3+2 0.333462 0.767669 0.235583 0.000000
Zn13  Zn    Zn3+2 0.592956 0.911759 0.079939 0.000000
Zn14  Zn    Zn3+2 0.797151 0.473295 0.852358 0.000000
Zn15  Zn    Zn3+2 0.115136 0.768347 0.236121 0.000000
Zn16  Zn    Zn3+2 0.301961 0.784885 0.474344 0.000000
Zn17  Zn    Zn3+2 0.556004 0.044766 0.340663 0.000000
Zn18  Zn    Zn3+2 0.341634 0.993616 0.226900 0.000000
Zn19  Zn    Zn3+2 0.885155 0.213365 0.690651 0.000000
Zn20  Zn    Zn3+2 0.774793 0.806023 0.340685 0.000000
Zn21  Zn    Zn3+2 0.921018 0.442674 0.598798 0.000000
Zn22  Zn    Zn3+2 0.021855 0.473750 0.855223 0.000000
Zn23  Zn    Zn3+2 0.142590 0.674618 0.618645 0.000000
Zn24  Zn    Zn3+2 0.802516 0.898795 0.855275 0.000000
Zn25  Zn    Zn3+2 0.900161 0.787100 0.468237 0.000000
Zn26  Zn    Zn3+2 0.114032 0.000436 0.706009 0.000000
Zn27  Zn    Zn3+2 0.124833 0.984646 0.223971 0.000000
Zn28  Zn    Zn3+2 0.992331 0.688901 0.088586 0.000000
C1    C     C_3   0.183221 0.855656 0.883561 0.000000
N1    N     N_3   0.128857 0.883029 0.932775 0.000000
C2    C     C_3   0.090567 0.860601 0.912803 0.000000
C3    C     C_R   0.036860 0.897658 0.955308 0.000000
N2    N     N_R   0.011615 0.921290 0.015996 0.000000
C4    C     C_R   0.970708 0.958074 0.033817 0.000000
C5    C     C_R   0.938170 0.001616 0.088522 0.000000
C6    C     C_R   0.890460 0.024949 0.099882 0.000000
C7    C     C_R   0.875711 0.001203 0.056992 0.000000
C8    C     C_R   0.913072 0.961559 0.000638 0.000000
C9    C     C_R   0.964827 0.948938 0.988348 0.000000
N3    N     N_R   0.008819 0.914450 0.936877 0.000000
H1    H     H_    0.211422 0.861132 0.900792 0.000000
H2    H     H_    0.184672 0.811913 0.857841 0.000000
H3    H     H_    0.195630 0.873588 0.854891 0.000000
H4    H     H_    0.125333 0.923532 0.944471 0.000000
H5    H     H_    0.104546 0.856871 0.869378 0.000000
H6    H     H_    0.087046 0.820226 0.908164 0.000000
H7    H     H_    0.949781 0.017806 0.121075 0.000000
H8    H     H_    0.862811 0.057868 0.143517 0.000000
H9    H     H_    0.835283 0.013361 0.067417 0.000000
H10   H     H_    0.899023 0.937456 0.970876 0.000000
C10   C     C_3   0.314116 0.216251 0.657649 0.000000
N4    N     N_3   0.274019 0.194689 0.640509 0.000000
C11   C     C_3   0.254292 0.231923 0.630165 0.000000
C12   C     C_R   0.226710 0.203759 0.595486 0.000000
N5    N     N_R   0.254187 0.181597 0.534395 0.000000
C13   C     C_R   0.225955 0.144175 0.518771 0.000000
C14   C     C_R   0.242125 0.100738 0.463806 0.000000
C15   C     C_R   0.205559 0.069546 0.454617 0.000000
C16   C     C_R   0.154006 0.082022 0.501216 0.000000
C17   C     C_R   0.141580 0.121868 0.557632 0.000000
C18   C     C_R   0.179821 0.149898 0.566534 0.000000
N6    N     N_R   0.177243 0.188236 0.618008 0.000000
H11   H     H_    0.352848 0.208938 0.617903 0.000000
H12   H     H_    0.299989 0.260222 0.689711 0.000000
H13   H     H_    0.320707 0.195574 0.678224 0.000000
H14   H     H_    0.241896 0.192014 0.675121 0.000000
H15   H     H_    0.226954 0.267896 0.672368 0.000000
H16   H     H_    0.289183 0.244460 0.603761 0.000000
H17   H     H_    0.282834 0.090304 0.428873 0.000000
H18   H     H_    0.217286 0.036378 0.410947 0.000000
H19   H     H_    0.124344 0.058941 0.493931 0.000000
H20   H     H_    0.102881 0.130639 0.593845 0.000000
C19   C     C_3   0.311667 0.243590 0.337039 0.000000
N7    N     N_3   0.306925 0.261500 0.394115 0.000000
C20   C     C_3   0.252571 0.292974 0.439962 0.000000
C21   C     C_R   0.246182 0.311681 0.499353 0.000000
N8    N     N_R   0.284002 0.284690 0.501439 0.000000
C22   C     C_R   0.292499 0.327002 0.541890 0.000000
C23   C     C_R   0.325671 0.325167 0.562977 0.000000
C24   C     C_R   0.326374 0.373134 0.607130 0.000000
C25   C     C_R   0.293560 0.421355 0.630164 0.000000
C26   C     C_R   0.258882 0.422438 0.610022 0.000000
C27   C     C_R   0.258908 0.374771 0.565843 0.000000
N9    N     N_R   0.225301 0.367107 0.543676 0.000000
H21   H     H_    0.353072 0.219952 0.301402 0.000000
H22   H     H_    0.282167 0.217613 0.331207 0.000000
H23   H     H_    0.304197 0.279026 0.333891 0.000000
H24   H     H_    0.333907 0.287378 0.398416 0.000000
H25   H     H_    0.246681 0.328756 0.436874 0.000000
H26   H     H_    0.222793 0.268584 0.432980 0.000000
H27   H     H_    0.349801 0.287485 0.546490 0.000000
H28   H     H_    0.352293 0.372984 0.624361 0.000000
H29   H     H_    0.294408 0.458253 0.664954 0.000000
H30   H     H_    0.232400 0.459575 0.628791 0.000000
C28   C     C_3   0.989373 0.082872 0.203579 0.000000
N10   N     N_3   0.975917 0.029711 0.188997 0.000000
C29   C     C_3   0.919731 0.036561 0.229113 0.000000
C30   C     C_R   0.899730 0.986666 0.208004 0.000000
N11   N     N_R   0.928164 0.944950 0.149830 0.000000
C31   C     C_R   0.888248 0.928995 0.137702 0.000000
C32   C     C_R   0.893453 0.891875 0.083783 0.000000
C33   C     C_R   0.847006 0.884992 0.079906 0.000000
C34   C     C_R   0.797176 0.915127 0.129241 0.000000
C35   C     C_R   0.793510 0.950711 0.183136 0.000000
C36   C     C_R   0.839328 0.957177 0.186337 0.000000
N12   N     N_R   0.844494 0.991523 0.233575 0.000000
H31   H     H_    0.027197 0.083578 0.205352 0.000000
H32   H     H_    0.994394 0.092410 0.169685 0.000000
H33   H     H_    0.957200 0.114092 0.247140 0.000000
H34   H     H_    0.996604 0.008971 0.196476 0.000000
H35   H     H_    0.912250 0.049133 0.273349 0.000000
H36   H     H_    0.897055 0.065910 0.229021 0.000000
H37   H     H_    0.932350 0.868551 0.045522 0.000000
H38   H     H_    0.849736 0.856124 0.038303 0.000000
H39   H     H_    0.760990 0.910311 0.125819 0.000000
H40   H     H_    0.756213 0.972334 0.222460 0.000000
C37   C     C_3   0.731113 0.088449 0.526277 0.000000
N13   N     N_3   0.755891 0.090025 0.471615 0.000000
C38   C     C_3   0.795788 0.123345 0.472092 0.000000
C39   C     C_R   0.831610 0.118612 0.413570 0.000000
N14   N     N_R   0.814978 0.099518 0.371389 0.000000
C40   C     C_R   0.832615 0.133341 0.349991 0.000000
C41   C     C_R   0.819088 0.141504 0.315395 0.000000
C42   C     C_R   0.841140 0.179178 0.299119 0.000000
C43   C     C_R   0.875862 0.207716 0.317570 0.000000
C44   C     C_R   0.888322 0.199760 0.353481 0.000000
C45   C     C_R   0.865024 0.163240 0.370176 0.000000
N15   N     N_R   0.867200 0.154093 0.409626 0.000000
H41   H     H_    0.704571 0.058535 0.524063 0.000000
H42   H     H_    0.762233 0.075946 0.532809 0.000000
H43   H     H_    0.706511 0.128780 0.564223 0.000000
H44   H     H_    0.726037 0.111878 0.474371 0.000000
H45   H     H_    0.771681 0.164502 0.500196 0.000000
H46   H     H_    0.820158 0.115304 0.488497 0.000000
H47   H     H_    0.792666 0.118721 0.301052 0.000000
H48   H     H_    0.831719 0.186379 0.271456 0.000000
H49   H     H_    0.892927 0.236655 0.304147 0.000000
H50   H     H_    0.914416 0.222502 0.368946 0.000000
C46   C     C_3   0.457402 0.838895 0.228919 0.000000
N16   N     N_3   0.509090 0.803157 0.197637 0.000000
C47   C     C_3   0.508780 0.785682 0.236046 0.000000
C48   C     C_R   0.562575 0.757248 0.212816 0.000000
N17   N     N_R   0.596242 0.720077 0.153495 0.000000
C49   C     C_R   0.639699 0.705868 0.153373 0.000000
C50   C     C_R   0.685821 0.669685 0.105203 0.000000
C51   C     C_R   0.729657 0.665562 0.111228 0.000000
C52   C     C_R   0.726628 0.699846 0.164638 0.000000
C53   C     C_R   0.678656 0.734674 0.213717 0.000000
C54   C     C_R   0.634048 0.735037 0.208357 0.000000
N18   N     N_R   0.584264 0.767590 0.249085 0.000000
H51   H     H_    0.455778 0.853765 0.201439 0.000000
H52   H     H_    0.424126 0.817360 0.240216 0.000000
H53   H     H_    0.452585 0.874279 0.269464 0.000000
H54   H     H_    0.537992 0.826709 0.193323 0.000000
H55   H     H_    0.499806 0.821397 0.278093 0.000000
H56   H     H_    0.479886 0.758670 0.240903 0.000000
H57   H     H_    0.688829 0.646696 0.063364 0.000000
H58   H     H_    0.767442 0.638875 0.073286 0.000000
H59   H     H_    0.763458 0.701559 0.165930 0.000000
H60   H     H_    0.678461 0.765599 0.252011 0.000000
C55   C     C_3   0.462061 0.669345 0.027310 0.000000
N19   N     N_3   0.475157 0.722745 0.043290 0.000000
C56   C     C_3   0.462468 0.754368 0.104857 0.000000
C57   C     C_R   0.462285 0.720679 0.129799 0.000000
N20   N     N_R   0.414470 0.717156 0.171645 0.000000
C58   C     C_R   0.433427 0.678749 0.176561 0.000000
C59   C     C_R   0.405486 0.647219 0.198348 0.000000
C60   C     C_R   0.432911 0.609550 0.198582 0.000000
C61   C     C_R   0.488276 0.603521 0.176267 0.000000
C62   C     C_R   0.516814 0.632458 0.149867 0.000000
C63   C     C_R   0.488444 0.666201 0.146343 0.000000
N21   N     N_R   0.508841 0.690983 0.114787 0.000000
H61   H     H_    0.463406 0.652144 0.984310 0.000000
H62   H     H_    0.492411 0.641681 0.021373 0.000000
H63   H     H_    0.420860 0.671915 0.060172 0.000000
H64   H     H_    0.452426 0.743570 0.037013 0.000000
H65   H     H_    0.491657 0.781115 0.107946 0.000000
H66   H     H_    0.421562 0.778651 0.132776 0.000000
H67   H     H_    0.365859 0.645368 0.205361 0.000000
H68   H     H_    0.411281 0.583573 0.214645 0.000000
H69   H     H_    0.509541 0.573722 0.176159 0.000000
H70   H     H_    0.560353 0.625717 0.129153 0.000000
C64   C     C_3   0.726889 0.786009 0.093963 0.000000
N22   N     N_3   0.695759 0.773773 0.063992 0.000000
C65   C     C_3   0.645418 0.813709 0.103566 0.000000
C66   C     C_R   0.610423 0.799338 0.076889 0.000000
N23   N     N_R   0.600273 0.829770 0.056573 0.000000
C67   C     C_R   0.593856 0.791759 0.011603 0.000000
C68   C     C_R   0.588100 0.797461 0.971097 0.000000
C69   C     C_R   0.580478 0.753028 0.929376 0.000000
C70   C     C_R   0.581854 0.703525 0.926881 0.000000
C71   C     C_R   0.589505 0.698134 0.967063 0.000000
C72   C     C_R   0.594727 0.743278 0.009396 0.000000
N24   N     N_R   0.602671 0.747113 0.052099 0.000000
H71   H     H_    0.765871 0.756498 0.064146 0.000000
H72   H     H_    0.734884 0.827224 0.106126 0.000000
H73   H     H_    0.704194 0.783298 0.134444 0.000000
H74   H     H_    0.686427 0.736229 0.057473 0.000000
H75   H     H_    0.624995 0.814253 0.145729 0.000000
H76   H     H_    0.654451 0.853439 0.108778 0.000000
H77   H     H_    0.589697 0.835237 0.971617 0.000000
H78   H     H_    0.575102 0.756457 0.897287 0.000000
H79   H     H_    0.576953 0.668986 0.893300 0.000000
H80   H     H_    0.590482 0.659923 0.965674 0.000000
C73   C     C_3   0.748305 0.681078 0.905545 0.000000
N25   N     N_3   0.709799 0.661812 0.942621 0.000000
C74   C     C_3   0.739313 0.624009 0.944199 0.000000
C75   C     C_R   0.703124 0.588353 0.960082 0.000000
N26   N     N_R   0.647642 0.607943 0.003059 0.000000
C76   C     C_R   0.631716 0.560467 0.995080 0.000000
C77   C     C_R   0.579870 0.551824 0.015989 0.000000
C78   C     C_R   0.572308 0.500084 0.004342 0.000000
C79   C     C_R   0.616326 0.457904 0.971412 0.000000
C80   C     C_R   0.668366 0.466129 0.945781 0.000000
C81   C     C_R   0.674826 0.517095 0.955277 0.000000
N27   N     N_R   0.721139 0.532045 0.929369 0.000000
H81   H     H_    0.728374 0.719873 0.917102 0.000000
H82   H     H_    0.783741 0.686920 0.912258 0.000000
H83   H     H_    0.760821 0.651435 0.858892 0.000000
H84   H     H_    0.688780 0.640007 0.921250 0.000000
H85   H     H_    0.775393 0.598780 0.900109 0.000000
H86   H     H_    0.752387 0.646455 0.977269 0.000000
H87   H     H_    0.545997 0.583480 0.037820 0.000000
H88   H     H_    0.531748 0.492521 0.021206 0.000000
H89   H     H_    0.609862 0.417966 0.963882 0.000000
H90   H     H_    0.702780 0.433535 0.919695 0.000000
C82   C     C_3   0.665887 0.943605 0.251928 0.000000
N28   N     N_3   0.626146 0.918074 0.238894 0.000000
C83   C     C_3   0.606310 0.888180 0.268957 0.000000
C84   C     C_R   0.560501 0.922564 0.328784 0.000000
N29   N     N_R   0.542738 0.978404 0.356973 0.000000
C85   C     C_R   0.506441 0.989097 0.411807 0.000000
C86   C     C_R   0.482950 0.038136 0.461845 0.000000
C87   C     C_R   0.447209 0.041197 0.515069 0.000000
C88   C     C_R   0.434245 0.994557 0.516198 0.000000
C89   C     C_R   0.460578 0.945417 0.464934 0.000000
C90   C     C_R   0.499296 0.943544 0.414673 0.000000
N30   N     N_R   0.534176 0.899891 0.363335 0.000000
H91   H     H_    0.674397 0.972701 0.236269 0.000000
H92   H     H_    0.651098 0.963482 0.299774 0.000000
H93   H     H_    0.702141 0.912068 0.226563 0.000000
H94   H     H_    0.648172 0.890239 0.194336 0.000000
H95   H     H_    0.591697 0.854469 0.244433 0.000000
H96   H     H_    0.638495 0.872018 0.271564 0.000000
H97   H     H_    0.490016 0.073513 0.458916 0.000000
H98   H     H_    0.427537 0.080082 0.555118 0.000000
H99   H     H_    0.404781 0.996481 0.557083 0.000000
H100  H     H_    0.454340 0.908580 0.463404 0.000000
C91   C     C_3   0.589520 0.673405 0.361954 0.000000
N31   N     N_3   0.593656 0.727813 0.372001 0.000000
C92   C     C_3   0.649772 0.727494 0.335336 0.000000
C93   C     C_R   0.655326 0.783703 0.347511 0.000000
N32   N     N_R   0.609479 0.819498 0.369933 0.000000
C94   C     C_R   0.614341 0.864881 0.410864 0.000000
C95   C     C_R   0.575536 0.910141 0.456164 0.000000
C96   C     C_R   0.587216 0.951288 0.496322 0.000000
C97   C     C_R   0.637142 0.945516 0.491889 0.000000
C98   C     C_R   0.674763 0.897941 0.448265 0.000000
C99   C     C_R   0.662343 0.858316 0.408211 0.000000
N33   N     N_R   0.691942 0.808421 0.365467 0.000000
H101  H     H_    0.546587 0.672521 0.388064 0.000000
H102  H     H_    0.604116 0.644640 0.314413 0.000000
H103  H     H_    0.613775 0.661273 0.376233 0.000000
H104  H     H_    0.583709 0.752471 0.416128 0.000000
H105  H     H_    0.674906 0.713678 0.347643 0.000000
H106  H     H_    0.662179 0.699899 0.288255 0.000000
H107  H     H_    0.535579 0.910792 0.464058 0.000000
H108  H     H_    0.556452 0.987069 0.532779 0.000000
H109  H     H_    0.645679 0.977137 0.524291 0.000000
H110  H     H_    0.711792 0.891675 0.447548 0.000000
C100  C     C_3   0.458386 0.888036 0.561567 0.000000
N34   N     N_3   0.468006 0.851637 0.502037 0.000000
C101  C     C_3   0.416124 0.850005 0.504124 0.000000
C102  C     C_R   0.424096 0.814843 0.443443 0.000000
N35   N     N_R   0.476054 0.795086 0.392499 0.000000
C103  C     C_R   0.473045 0.743372 0.361591 0.000000
C104  C     C_R   0.514814 0.701823 0.312170 0.000000
C105  C     C_R   0.504262 0.650323 0.290710 0.000000
C106  C     C_R   0.452645 0.641340 0.318198 0.000000
C107  C     C_R   0.411018 0.683789 0.367931 0.000000
C108  C     C_R   0.422277 0.734397 0.388711 0.000000
N36   N     N_R   0.388791 0.779479 0.439129 0.000000
H111  H     H_    0.497174 0.887373 0.561471 0.000000
H112  H     H_    0.441838 0.929786 0.576635 0.000000
H113  H     H_    0.429566 0.874936 0.592209 0.000000
H114  H     H_    0.483930 0.813046 0.489484 0.000000
H115  H     H_    0.392186 0.831424 0.530595 0.000000
H116  H     H_    0.392535 0.890918 0.525962 0.000000
H117  H     H_    0.555525 0.707963 0.293100 0.000000
H118  H     H_    0.536896 0.616585 0.253137 0.000000
H119  H     H_    0.445357 0.600665 0.301672 0.000000
H120  H     H_    0.372215 0.676822 0.392442 0.000000
C109  C     C_3   0.324563 0.762608 0.095674 0.000000
N37   N     N_3   0.298523 0.814127 0.150697 0.000000
C110  C     C_3   0.338917 0.846077 0.153134 0.000000
C111  C     C_R   0.335378 0.872964 0.212099 0.000000
N38   N     N_R   0.337204 0.927516 0.239138 0.000000
C112  C     C_R   0.333955 0.936016 0.288251 0.000000
C113  C     C_R   0.337317 0.982472 0.328895 0.000000
C114  C     C_R   0.330005 0.985435 0.378833 0.000000
C115  C     C_R   0.316144 0.943250 0.387870 0.000000
C116  C     C_R   0.312249 0.896037 0.345130 0.000000
C117  C     C_R   0.327694 0.891425 0.292973 0.000000
N39   N     N_R   0.331922 0.847999 0.244047 0.000000
H121  H     H_    0.293544 0.739385 0.089446 0.000000
H122  H     H_    0.347183 0.769224 0.057639 0.000000
H123  H     H_    0.352201 0.739077 0.097239 0.000000
H124  H     H_    0.282821 0.808329 0.186354 0.000000
H125  H     H_    0.378170 0.819683 0.119013 0.000000
H126  H     H_    0.333468 0.877628 0.143691 0.000000
H127  H     H_    0.350674 0.013255 0.319346 0.000000
H128  H     H_    0.335028 0.020620 0.410874 0.000000
H129  H     H_    0.310601 0.948550 0.428430 0.000000
H130  H     H_    0.295519 0.864047 0.351292 0.000000
C118  C     C_3   0.176111 0.858444 0.392366 0.000000
N40   N     N_3   0.189864 0.844073 0.333445 0.000000
C119  C     C_3   0.188739 0.787773 0.305842 0.000000
C120  C     C_R   0.219983 0.762622 0.241737 0.000000
N41   N     N_R   0.193458 0.737929 0.210845 0.000000
C121  C     C_R   0.231166 0.693465 0.162955 0.000000
C122  C     C_R   0.224605 0.648784 0.121126 0.000000
C123  C     C_R   0.268402 0.606025 0.078140 0.000000
C124  C     C_R   0.316714 0.607524 0.078934 0.000000
C125  C     C_R   0.321935 0.651878 0.122701 0.000000
C126  C     C_R   0.278921 0.694722 0.163463 0.000000
N42   N     N_R   0.274055 0.739419 0.211951 0.000000
H131  H     H_    0.158109 0.901901 0.422524 0.000000
H132  H     H_    0.146416 0.835120 0.407380 0.000000
H133  H     H_    0.212708 0.847604 0.391631 0.000000
H134  H     H_    0.229800 0.847664 0.312163 0.000000
H135  H     H_    0.206497 0.767441 0.319399 0.000000
H136  H     H_    0.146820 0.781737 0.318570 0.000000
H137  H     H_    0.186322 0.645995 0.122213 0.000000
H138  H     H_    0.264463 0.570449 0.044623 0.000000
H139  H     H_    0.349935 0.573087 0.046153 0.000000
H140  H     H_    0.357817 0.651711 0.126032 0.000000
C127  C     C_3   0.412677 0.875689 0.379255 0.000000
N43   N     N_3   0.397094 0.827722 0.345778 0.000000
C128  C     C_3   0.343451 0.830410 0.387222 0.000000
C129  C     C_R   0.319021 0.784600 0.363991 0.000000
N44   N     N_R   0.312249 0.762235 0.314152 0.000000
C130  C     C_R   0.291853 0.718444 0.316306 0.000000
C131  C     C_R   0.273886 0.679776 0.281177 0.000000
C132  C     C_R   0.266802 0.632654 0.283279 0.000000
C133  C     C_R   0.278524 0.624042 0.319218 0.000000
C134  C     C_R   0.291046 0.665194 0.358276 0.000000
C135  C     C_R   0.291646 0.713798 0.359996 0.000000
N45   N     N_R   0.302036 0.758290 0.395251 0.000000
H141  H     H_    0.451831 0.863183 0.372249 0.000000
H142  H     H_    0.415327 0.905011 0.364720 0.000000
H143  H     H_    0.384018 0.896425 0.427511 0.000000
H144  H     H_    0.420254 0.794426 0.336068 0.000000
H145  H     H_    0.343119 0.830845 0.424278 0.000000
H146  H     H_    0.319553 0.868469 0.408137 0.000000
H147  H     H_    0.269977 0.681938 0.248468 0.000000
H148  H     H_    0.255444 0.600973 0.253802 0.000000
H149  H     H_    0.276026 0.585907 0.318222 0.000000
H150  H     H_    0.299406 0.659216 0.387071 0.000000
C136  C     C_3   0.461745 0.987391 0.313536 0.000000
N46   N     N_3   0.479376 0.962986 0.251370 0.000000
C137  C     C_3   0.533608 0.932386 0.218884 0.000000
C138  C     C_R   0.573343 0.966824 0.207203 0.000000
N47   N     N_R   0.601919 0.960303 0.151582 0.000000
C139  C     C_R   0.623429 0.004820 0.161064 0.000000
C140  C     C_R   0.650351 0.023248 0.122317 0.000000
C141  C     C_R   0.658876 0.075471 0.144502 0.000000
C142  C     C_R   0.639873 0.108246 0.204508 0.000000
C143  C     C_R   0.615318 0.087918 0.242039 0.000000
C144  C     C_R   0.608700 0.035772 0.219310 0.000000
N48   N     N_R   0.579223 0.011950 0.250204 0.000000
H151  H     H_    0.421792 0.012840 0.339539 0.000000
H152  H     H_    0.459801 0.956725 0.326286 0.000000
H153  H     H_    0.488597 0.013682 0.324502 0.000000
H154  H     H_    0.482430 0.993842 0.241801 0.000000
H155  H     H_    0.538047 0.915761 0.243377 0.000000
H156  H     H_    0.540307 0.898927 0.175780 0.000000
H157  H     H_    0.662838 0.999370 0.076339 0.000000
H158  H     H_    0.678734 0.091388 0.115211 0.000000
H159  H     H_    0.644701 0.149770 0.222008 0.000000
H160  H     H_    0.600091 0.112591 0.288156 0.000000
C145  C     C_3   0.462524 0.885064 0.024944 0.000000
N49   N     N_3   0.434127 0.870435 0.070298 0.000000
C146  C     C_3   0.460374 0.879808 0.105264 0.000000
C147  C     C_R   0.465220 0.936582 0.133214 0.000000
N50   N     N_R   0.515028 0.950249 0.113175 0.000000
C148  C     C_R   0.501419 0.001980 0.128488 0.000000
C149  C     C_R   0.534969 0.035363 0.114972 0.000000
C150  C     C_R   0.511640 0.085113 0.130213 0.000000
C151  C     C_R   0.455732 0.101492 0.160422 0.000000
C152  C     C_R   0.422408 0.068038 0.175229 0.000000
C153  C     C_R   0.446585 0.018248 0.157811 0.000000
N51   N     N_R   0.421977 0.978822 0.164636 0.000000
H161  H     H_    0.442544 0.873579 0.997947 0.000000
H162  H     H_    0.461019 0.928993 0.044117 0.000000
H163  H     H_    0.504564 0.862313 0.995265 0.000000
H164  H     H_    0.437670 0.828784 0.046436 0.000000
H165  H     H_    0.437484 0.869658 0.140011 0.000000
H166  H     H_    0.500681 0.854191 0.076556 0.000000
H167  H     H_    0.578107 0.022685 0.090759 0.000000
H168  H     H_    0.537213 0.111633 0.118904 0.000000
H169  H     H_    0.438167 0.140620 0.172461 0.000000
H170  H     H_    0.378929 0.080035 0.197978 0.000000
C154  C     C_3   0.797059 0.814674 0.966131 0.000000
N52   N     N_3   0.763042 0.830637 0.949792 0.000000
C155  C     C_3   0.740051 0.887849 0.990509 0.000000
C156  C     C_R   0.705707 0.905868 0.974430 0.000000
N53   N     N_R   0.726353 0.917549 0.929202 0.000000
C157  C     C_R   0.680771 0.937999 0.936044 0.000000
C158  C     C_R   0.675144 0.966536 0.912008 0.000000
C159  C     C_R   0.624358 0.980478 0.922228 0.000000
C160  C     C_R   0.580304 0.966295 0.956564 0.000000
C161  C     C_R   0.586130 0.942673 0.985165 0.000000
C162  C     C_R   0.636268 0.932639 0.977557 0.000000
N54   N     N_R   0.649819 0.915117 0.005504 0.000000
H171  H     H_    0.817893 0.771852 0.933488 0.000000
H172  H     H_    0.827606 0.840247 0.966823 0.000000
H173  H     H_    0.772048 0.819705 0.010546 0.000000
H174  H     H_    0.730870 0.810559 0.956904 0.000000
H175  H     H_    0.714653 0.895115 0.036100 0.000000
H176  H     H_    0.772556 0.911435 0.988553 0.000000
H177  H     H_    0.708010 0.981052 0.889004 0.000000
H178  H     H_    0.619130 0.002167 0.902982 0.000000
H179  H     H_    0.540897 0.975686 0.962973 0.000000
H180  H     H_    0.552265 0.932008 0.011949 0.000000
C163  C     C_3   0.861162 0.342640 0.902471 0.000000
N55   N     N_3   0.834592 0.338746 0.869702 0.000000
C164  C     C_3   0.870459 0.344922 0.819025 0.000000
C165  C     C_R   0.839963 0.343278 0.790015 0.000000
N56   N     N_R   0.830457 0.293795 0.757010 0.000000
C166  C     C_R   0.780513 0.309757 0.768259 0.000000
C167  C     C_R   0.740125 0.280926 0.769332 0.000000
C168  C     C_R   0.691009 0.306244 0.784861 0.000000
C169  C     C_R   0.682089 0.360163 0.801208 0.000000
C170  C     C_R   0.719857 0.390649 0.808931 0.000000
C171  C     C_R   0.766349 0.364869 0.797025 0.000000
N57   N     N_R   0.801974 0.388234 0.813490 0.000000
H181  H     H_    0.831523 0.365321 0.950337 0.000000
H182  H     H_    0.874806 0.302161 0.892229 0.000000
H183  H     H_    0.896114 0.362378 0.891889 0.000000
H184  H     H_    0.800952 0.370378 0.897805 0.000000
H185  H     H_    0.884347 0.383070 0.832266 0.000000
H186  H     H_    0.905393 0.311121 0.787232 0.000000
H187  H     H_    0.744348 0.240949 0.762697 0.000000
H188  H     H_    0.659148 0.283840 0.784693 0.000000
H189  H     H_    0.643878 0.379280 0.812489 0.000000
H190  H     H_    0.711657 0.433752 0.826913 0.000000
C172  C     C_3   0.940739 0.336954 0.675524 0.000000
N58   N     N_3   0.916965 0.392974 0.709471 0.000000
C173  C     C_3   0.877864 0.396891 0.694137 0.000000
C174  C     C_R   0.856709 0.453206 0.721858 0.000000
N59   N     N_R   0.815469 0.481693 0.779744 0.000000
C175  C     C_R   0.785013 0.512378 0.776171 0.000000
C176  C     C_R   0.731463 0.537152 0.815028 0.000000
C177  C     C_R   0.704769 0.558741 0.798536 0.000000
C178  C     C_R   0.731203 0.554149 0.743335 0.000000
C179  C     C_R   0.784759 0.528368 0.704128 0.000000
C180  C     C_R   0.810674 0.506544 0.720916 0.000000
N60   N     N_R   0.858277 0.470760 0.685976 0.000000
H191  H     H_    0.939974 0.323235 0.704657 0.000000
H192  H     H_    0.918141 0.313359 0.653377 0.000000
H193  H     H_    0.983002 0.332214 0.643182 0.000000
H194  H     H_    0.947066 0.411356 0.691492 0.000000
H195  H     H_    0.896829 0.379969 0.645956 0.000000
H196  H     H_    0.844501 0.376701 0.708969 0.000000
H197  H     H_    0.708882 0.536169 0.855100 0.000000
H198  H     H_    0.662364 0.577525 0.828068 0.000000
H199  H     H_    0.709269 0.569330 0.730106 0.000000
H200  H     H_    0.804558 0.523419 0.660434 0.000000
C181  C     C_3   0.925216 0.542402 0.759210 0.000000
N61   N     N_3   0.939070 0.502765 0.769848 0.000000
C182  C     C_3   0.919017 0.529860 0.832381 0.000000
C183  C     C_R   0.908929 0.491024 0.852339 0.000000
N62   N     N_R   0.856364 0.484866 0.877269 0.000000
C184  C     C_R   0.851768 0.479046 0.921409 0.000000
C185  C     C_R   0.805532 0.477806 0.965547 0.000000
C186  C     C_R   0.809841 0.473485 0.008033 0.000000
C187  C     C_R   0.859946 0.468125 0.003933 0.000000
C188  C     C_R   0.906093 0.469743 0.959066 0.000000
C189  C     C_R   0.900718 0.476041 0.918662 0.000000
N63   N     N_R   0.939386 0.481335 0.873537 0.000000
H201  H     H_    0.952987 0.531322 0.712796 0.000000
H202  H     H_    0.883184 0.544557 0.769059 0.000000
H203  H     H_    0.927013 0.582836 0.790086 0.000000
H204  H     H_    0.980946 0.491897 0.748163 0.000000
H205  H     H_    0.946971 0.552782 0.844595 0.000000
H206  H     H_    0.879755 0.557694 0.856541 0.000000
H207  H     H_    0.767042 0.480903 0.967638 0.000000
H208  H     H_    0.774259 0.472527 0.043648 0.000000
H209  H     H_    0.862904 0.462496 0.036085 0.000000
H210  H     H_    0.944701 0.466296 0.956266 0.000000
C190  C     C_3   0.257151 0.837912 0.065900 0.000000
N64   N     N_3   0.200907 0.849482 0.111048 0.000000
C191  C     C_3   0.199412 0.851525 0.161716 0.000000
C192  C     C_R   0.144400 0.873037 0.215181 0.000000
N65   N     N_R   0.117940 0.925688 0.244156 0.000000
C193  C     C_R   0.075830 0.930378 0.292723 0.000000
C194  C     C_R   0.038844 0.975246 0.340138 0.000000
C195  C     C_R   0.991889 0.968467 0.378051 0.000000
C196  C     C_R   0.982368 0.917554 0.363379 0.000000
C197  C     C_R   0.023502 0.873524 0.318190 0.000000
C198  C     C_R   0.072394 0.882379 0.289323 0.000000
N66   N     N_R   0.116157 0.844501 0.242987 0.000000
H211  H     H_    0.258902 0.843789 0.030860 0.000000
H212  H     H_    0.280720 0.864665 0.084476 0.000000
H213  H     H_    0.275331 0.795236 0.045692 0.000000
H214  H     H_    0.187391 0.814967 0.091631 0.000000
H215  H     H_    0.213578 0.811100 0.150386 0.000000
H216  H     H_    0.225722 0.878632 0.173577 0.000000
H217  H     H_    0.045874 0.013806 0.347237 0.000000
H218  H     H_    0.960919 0.002257 0.416117 0.000000
H219  H     H_    0.943874 0.912508 0.390136 0.000000
H220  H     H_    0.018580 0.833094 0.304454 0.000000
C199  C     C_3   0.967097 0.608167 0.195050 0.000000
N67   N     N_3   0.976128 0.654326 0.186312 0.000000
C200  C     C_3   0.018520 0.675726 0.199265 0.000000
C201  C     C_R   0.047832 0.706378 0.168673 0.000000
N68   N     N_R   0.048253 0.695615 0.117704 0.000000
C202  C     C_R   0.099572 0.696744 0.083988 0.000000
C203  C     C_R   0.128018 0.670741 0.023714 0.000000
C204  C     C_R   0.182068 0.672745 0.995978 0.000000
C205  C     C_R   0.207064 0.698225 0.029123 0.000000
C206  C     C_R   0.178890 0.718527 0.089471 0.000000
C207  C     C_R   0.125596 0.715403 0.115502 0.000000
N69   N     N_R   0.093930 0.723597 0.170461 0.000000
H221  H     H_    0.931702 0.594034 0.190462 0.000000
H222  H     H_    0.002837 0.574625 0.161815 0.000000
H223  H     H_    0.958633 0.620322 0.240084 0.000000
H224  H     H_    0.940713 0.682903 0.219930 0.000000
H225  H     H_    0.000753 0.700519 0.247095 0.000000
H226  H     H_    0.049039 0.641357 0.182407 0.000000
H227  H     H_    0.110302 0.644166 0.998891 0.000000
H228  H     H_    0.205418 0.652452 0.948267 0.000000
H229  H     H_    0.249641 0.698708 0.007302 0.000000
H230  H     H_    0.199346 0.732653 0.114254 0.000000
C208  C     C_3   0.044335 0.935565 0.439394 0.000000
N70   N     N_3   0.053354 0.879102 0.395083 0.000000
C209  C     C_3   0.005487 0.857439 0.416332 0.000000
C210  C     C_R   0.012178 0.798632 0.372973 0.000000
N71   N     N_R   0.056034 0.768310 0.315164 0.000000
C211  C     C_R   0.051264 0.717751 0.304185 0.000000
C212  C     C_R   0.087742 0.671077 0.256492 0.000000
C213  C     C_R   0.075162 0.622481 0.252514 0.000000
C214  C     C_R   0.026425 0.621649 0.295390 0.000000
C215  C     C_R   0.990590 0.669367 0.343280 0.000000
C216  C     C_R   0.004358 0.717210 0.347604 0.000000
N72   N     N_R   0.977115 0.767854 0.391848 0.000000
H231  H     H_    0.048619 0.961640 0.420690 0.000000
H232  H     H_    0.004040 0.948676 0.479365 0.000000
H233  H     H_    0.076102 0.941838 0.451611 0.000000
H234  H     H_    0.083561 0.857649 0.391710 0.000000
H235  H     H_    0.998688 0.862793 0.457651 0.000000
H236  H     H_    0.968242 0.881276 0.429741 0.000000
H237  H     H_    0.124938 0.672052 0.222946 0.000000
H238  H     H_    0.103042 0.585005 0.215406 0.000000
H239  H     H_    0.016705 0.583507 0.291880 0.000000
H240  H     H_    0.954358 0.668724 0.377471 0.000000
C217  C     C_3   0.159037 0.715952 0.441273 0.000000
N73   N     N_3   0.195247 0.729815 0.465454 0.000000
C218  C     C_3   0.196877 0.693035 0.485562 0.000000
C219  C     C_R   0.222190 0.712836 0.523848 0.000000
N74   N     N_R   0.269306 0.733567 0.509927 0.000000
C220  C     C_R   0.288965 0.723871 0.538718 0.000000
C221  C     C_R   0.336890 0.732895 0.538221 0.000000
C222  C     C_R   0.349499 0.718634 0.570325 0.000000
C223  C     C_R   0.314114 0.696479 0.602583 0.000000
C224  C     C_R   0.265579 0.688565 0.603274 0.000000
C225  C     C_R   0.254284 0.702228 0.570660 0.000000
N75   N     N_R   0.210186 0.696442 0.564642 0.000000
H241  H     H_    0.157998 0.743450 0.425182 0.000000
H242  H     H_    0.173294 0.673742 0.404136 0.000000
H243  H     H_    0.118072 0.719086 0.475078 0.000000
H244  H     H_    0.182674 0.769773 0.499580 0.000000
H245  H     H_    0.156719 0.684922 0.507231 0.000000
H246  H     H_    0.220444 0.652721 0.447325 0.000000
H247  H     H_    0.364638 0.749335 0.512812 0.000000
H248  H     H_    0.387184 0.724888 0.570361 0.000000
H249  H     H_    0.324275 0.685911 0.627801 0.000000
H250  H     H_    0.237294 0.672306 0.628560 0.000000
C226  C     C_3   0.294498 0.889396 0.642925 0.000000
N76   N     N_3   0.235995 0.900928 0.679197 0.000000
C227  C     C_3   0.212299 0.870877 0.642306 0.000000
C228  C     C_R   0.216962 0.893871 0.605921 0.000000
N77   N     N_R   0.191011 0.946518 0.630918 0.000000
C229  C     C_R   0.215213 0.952765 0.583929 0.000000
C230  C     C_R   0.209379 0.998550 0.582864 0.000000
C231  C     C_R   0.213789 0.991992 0.532099 0.000000
C232  C     C_R   0.216953 0.940968 0.489793 0.000000
C233  C     C_R   0.231381 0.895957 0.489898 0.000000
C234  C     C_R   0.241585 0.904298 0.533257 0.000000
N78   N     N_R   0.249482 0.865916 0.544334 0.000000
H251  H     H_    0.312299 0.906648 0.672180 0.000000
H252  H     H_    0.310338 0.845313 0.614820 0.000000
H253  H     H_    0.306436 0.908399 0.615277 0.000000
H254  H     H_    0.223312 0.941748 0.696556 0.000000
H255  H     H_    0.232817 0.828052 0.613357 0.000000
H256  H     H_    0.168916 0.874773 0.670762 0.000000
H257  H     H_    0.200921 0.037658 0.620531 0.000000
H258  H     H_    0.209422 0.026236 0.527572 0.000000
H259  H     H_    0.213166 0.937110 0.454022 0.000000
H260  H     H_    0.233014 0.855773 0.458265 0.000000
C235  C     C_3   0.319679 0.076973 0.524242 0.000000
N79   N     N_3   0.340315 0.106090 0.492032 0.000000
C236  C     C_3   0.398090 0.090905 0.460181 0.000000
C237  C     C_R   0.425061 0.119744 0.427317 0.000000
N80   N     N_R   0.397097 0.167477 0.441475 0.000000
C238  C     C_R   0.438265 0.192252 0.425059 0.000000
C239  C     C_R   0.435185 0.241102 0.427910 0.000000
C240  C     C_R   0.481896 0.261624 0.413534 0.000000
C241  C     C_R   0.529866 0.233692 0.397828 0.000000
C242  C     C_R   0.532619 0.183341 0.392670 0.000000
C243  C     C_R   0.487104 0.161655 0.402646 0.000000
N81   N     N_R   0.481963 0.112553 0.397779 0.000000
H261  H     H_    0.274935 0.085490 0.547310 0.000000
H262  H     H_    0.334807 0.032827 0.493854 0.000000
H263  H     H_    0.332483 0.090398 0.557745 0.000000
H264  H     H_    0.333634 0.145960 0.524278 0.000000
H265  H     H_    0.408303 0.107286 0.495473 0.000000
H266  H     H_    0.411341 0.046685 0.431480 0.000000
H267  H     H_    0.397681 0.262930 0.440932 0.000000
H268  H     H_    0.480669 0.300418 0.416237 0.000000
H269  H     H_    0.565450 0.251324 0.389296 0.000000
H270  H     H_    0.568984 0.162703 0.383193 0.000000
C244  C     C_3   0.735487 0.141138 0.248686 0.000000
N82   N     N_3   0.702007 0.130650 0.296551 0.000000
C245  C     C_3   0.710349 0.072447 0.272170 0.000000
C246  C     C_R   0.680488 0.059491 0.320467 0.000000
N83   N     N_R   0.707136 0.048814 0.344517 0.000000
C247  C     C_R   0.665235 0.057307 0.396431 0.000000
C248  C     C_R   0.665856 0.050915 0.439050 0.000000
C249  C     C_R   0.619123 0.072042 0.493598 0.000000
C250  C     C_R   0.574287 0.100833 0.504738 0.000000
C251  C     C_R   0.573855 0.102707 0.459281 0.000000
C252  C     C_R   0.617660 0.074159 0.403780 0.000000
N84   N     N_R   0.623984 0.069761 0.354065 0.000000
H271  H     H_    0.723162 0.184004 0.263628 0.000000
H272  H     H_    0.778527 0.132807 0.235413 0.000000
H273  H     H_    0.731368 0.114603 0.209458 0.000000
H274  H     H_    0.661782 0.145870 0.313571 0.000000
H275  H     H_    0.698541 0.052175 0.238021 0.000000
H276  H     H_    0.754070 0.057847 0.251168 0.000000
H277  H     H_    0.701259 0.030491 0.431012 0.000000
H278  H     H_    0.618525 0.068969 0.528747 0.000000
H279  H     H_    0.539524 0.121382 0.548785 0.000000
H280  H     H_    0.541402 0.128391 0.467744 0.000000
C253  C     C_3   0.177048 0.956244 0.348911 0.000000
N85   N     N_3   0.217167 0.952057 0.293328 0.000000
C254  C     C_3   0.197323 0.994871 0.290245 0.000000
C255  C     C_R   0.229573 0.988990 0.230156 0.000000
N86   N     N_R   0.284329 0.989093 0.202598 0.000000
C256  C     C_R   0.293796 0.983202 0.151090 0.000000
C257  C     C_R   0.342043 0.980022 0.105867 0.000000
C258  C     C_R   0.343766 0.969338 0.054427 0.000000
C259  C     C_R   0.297992 0.960599 0.048773 0.000000
C260  C     C_R   0.249441 0.964931 0.095420 0.000000
C261  C     C_R   0.247673 0.978982 0.147471 0.000000
N87   N     N_R   0.205404 0.984899 0.198049 0.000000
H281  H     H_    0.197982 0.946620 0.367639 0.000000
H282  H     H_    0.152285 0.997645 0.381351 0.000000
H283  H     H_    0.149886 0.927972 0.340959 0.000000
H284  H     H_    0.218595 0.915017 0.260014 0.000000
H285  H     H_    0.154768 0.995214 0.301285 0.000000
H286  H     H_    0.197873 0.032919 0.324587 0.000000
H287  H     H_    0.377496 0.985809 0.110078 0.000000
H288  H     H_    0.381388 0.966144 0.017788 0.000000
H289  H     H_    0.300434 0.949638 0.007346 0.000000
H290  H     H_    0.215583 0.953851 0.089033 0.000000
C262  C     C_3   0.485956 0.126967 0.279088 0.000000
N88   N     N_3   0.427358 0.141323 0.309933 0.000000
C263  C     C_3   0.406317 0.093957 0.309938 0.000000
C264  C     C_R   0.347492 0.104868 0.334089 0.000000
N89   N     N_R   0.313438 0.148594 0.389337 0.000000
C265  C     C_R   0.267635 0.149830 0.388037 0.000000
C266  C     C_R   0.218511 0.181089 0.434669 0.000000
C267  C     C_R   0.175430 0.173142 0.425241 0.000000
C268  C     C_R   0.183613 0.140894 0.368986 0.000000
C269  C     C_R   0.234182 0.110431 0.322227 0.000000
C270  C     C_R   0.273578 0.109414 0.335564 0.000000
N90   N     N_R   0.322422 0.075690 0.301665 0.000000
H291  H     H_    0.502862 0.164171 0.288767 0.000000
H292  H     H_    0.498622 0.103072 0.293073 0.000000
H293  H     H_    0.501918 0.102090 0.231175 0.000000
H294  H     H_    0.416552 0.151009 0.285922 0.000000
H295  H     H_    0.425349 0.059290 0.264871 0.000000
H296  H     H_    0.414210 0.085006 0.337729 0.000000
H297  H     H_    0.213435 0.209311 0.477637 0.000000
H298  H     H_    0.135434 0.194054 0.460851 0.000000
H299  H     H_    0.149080 0.138184 0.363370 0.000000
H300  H     H_    0.241086 0.087020 0.278016 0.000000
C271  C     C_3   0.900145 0.188843 0.846797 0.000000
N91   N     N_3   0.941008 0.171274 0.785606 0.000000
C272  C     C_3   0.944440 0.218964 0.780172 0.000000
C273  C     C_R   0.980445 0.208075 0.718510 0.000000
N92   N     N_R   0.034527 0.212155 0.696922 0.000000
C274  C     C_R   0.043950 0.221118 0.653855 0.000000
C275  C     C_R   0.087151 0.239001 0.626234 0.000000
C276  C     C_R   0.091783 0.245535 0.582144 0.000000
C277  C     C_R   0.050118 0.237460 0.570929 0.000000
C278  C     C_R   0.002698 0.229925 0.607354 0.000000
C279  C     C_R   0.001152 0.219518 0.646971 0.000000
N93   N     N_R   0.958748 0.213127 0.687605 0.000000
H301  H     H_    0.915414 0.214962 0.876770 0.000000
H302  H     H_    0.861989 0.211003 0.859087 0.000000
H303  H     H_    0.890072 0.154019 0.853119 0.000000
H304  H     H_    0.926880 0.144395 0.758462 0.000000
H305  H     H_    0.903689 0.236702 0.793933 0.000000
H306  H     H_    0.959124 0.247570 0.809423 0.000000
H307  H     H_    0.113713 0.252099 0.642642 0.000000
H308  H     H_    0.125998 0.258941 0.558524 0.000000
H309  H     H_    0.052982 0.240744 0.536380 0.000000
H310  H     H_    0.966794 0.234738 0.606770 0.000000
C280  C     C_3   0.916076 0.040268 0.532871 0.000000
N94   N     N_3   0.894058 0.083879 0.593192 0.000000
C281  C     C_3   0.923423 0.075349 0.618104 0.000000
C282  C     C_R   0.887306 0.102350 0.682583 0.000000
N95   N     N_R   0.862089 0.155609 0.713837 0.000000
C283  C     C_R   0.824080 0.161689 0.766083 0.000000
C284  C     C_R   0.787111 0.207611 0.814727 0.000000
C285  C     C_R   0.747717 0.203287 0.861824 0.000000
C286  C     C_R   0.745994 0.153656 0.858982 0.000000
C287  C     C_R   0.785736 0.108577 0.810910 0.000000
C288  C     C_R   0.826078 0.114075 0.765681 0.000000
N96   N     N_R   0.867775 0.075584 0.714106 0.000000
H311  H     H_    0.906535 0.001810 0.531347 0.000000
H312  H     H_    0.897433 0.050084 0.512381 0.000000
H313  H     H_    0.960465 0.036315 0.509060 0.000000
H314  H     H_    0.853688 0.082776 0.616875 0.000000
H315  H     H_    0.935754 0.031738 0.599797 0.000000
H316  H     H_    0.958579 0.094805 0.608402 0.000000
H317  H     H_    0.788076 0.245835 0.816494 0.000000
H318  H     H_    0.717230 0.238418 0.900354 0.000000
H319  H     H_    0.713666 0.150289 0.895066 0.000000
H320  H     H_    0.782938 0.070273 0.808600 0.000000
C289  C     C_3   0.059055 0.088451 0.434129 0.000000
N97   N     N_3   0.004040 0.109851 0.453377 0.000000
C290  C     C_3   0.985057 0.156040 0.511359 0.000000
C291  C     C_R   0.925697 0.176792 0.545603 0.000000
N98   N     N_R   0.899114 0.188163 0.521977 0.000000
C292  C     C_R   0.847537 0.202756 0.566404 0.000000
C293  C     C_R   0.802065 0.221450 0.571309 0.000000
C294  C     C_R   0.752458 0.222158 0.613991 0.000000
C295  C     C_R   0.750361 0.202052 0.648835 0.000000
C296  C     C_R   0.796926 0.190670 0.648233 0.000000
C297  C     C_R   0.843832 0.197980 0.611127 0.000000
N99   N     N_R   0.892340 0.188865 0.604577 0.000000
H321  H     H_    0.059086 0.054027 0.441350 0.000000
H322  H     H_    0.085906 0.075482 0.386996 0.000000
H323  H     H_    0.076004 0.119852 0.458749 0.000000
H324  H     H_    0.980573 0.081731 0.458315 0.000000
H325  H     H_    0.994961 0.142948 0.536000 0.000000
H326  H     H_    0.004343 0.188365 0.504735 0.000000
H327  H     H_    0.804874 0.229807 0.539265 0.000000
H328  H     H_    0.715798 0.233445 0.616192 0.000000
H329  H     H_    0.712165 0.197248 0.678005 0.000000
H330  H     H_    0.797029 0.174651 0.674487 0.000000
C298  C     C_3   0.924014 0.809921 0.329091 0.000000
N100  N     N_3   0.891817 0.785407 0.302316 0.000000
C299  C     C_3   0.915481 0.784653 0.247247 0.000000
C300  C     C_R   0.885985 0.753458 0.217074 0.000000
N101  N     N_R   0.913311 0.709177 0.160376 0.000000
C301  C     C_R   0.876052 0.677786 0.161144 0.000000
C302  C     C_R   0.884159 0.623572 0.122726 0.000000
C303  C     C_R   0.841714 0.597338 0.135864 0.000000
C304  C     C_R   0.792542 0.624851 0.187163 0.000000
C305  C     C_R   0.786194 0.678593 0.226406 0.000000
C306  C     C_R   0.828384 0.703899 0.213246 0.000000
N102  N     N_R   0.832437 0.752572 0.250199 0.000000
H331  H     H_    0.902276 0.822143 0.376306 0.000000
H332  H     H_    0.961374 0.781277 0.306703 0.000000
H333  H     H_    0.931772 0.845718 0.324777 0.000000
H334  H     H_    0.857026 0.814555 0.327898 0.000000
H335  H     H_    0.911937 0.826159 0.257138 0.000000
H336  H     H_    0.958304 0.765785 0.220014 0.000000
H337  H     H_    0.922716 0.600685 0.084805 0.000000
H338  H     H_    0.847406 0.554761 0.106839 0.000000
H339  H     H_    0.759735 0.603878 0.197431 0.000000
H340  H     H_    0.750130 0.700160 0.267525 0.000000
C307  C     C_3   0.764859 0.810588 0.208346 0.000000
N103  N     N_3   0.778019 0.862068 0.235488 0.000000
C308  C     C_3   0.738061 0.893113 0.297721 0.000000
C309  C     C_R   0.766319 0.914334 0.332276 0.000000
N104  N     N_R   0.781220 0.885741 0.352229 0.000000
C310  C     C_R   0.804211 0.921431 0.380993 0.000000
C311  C     C_R   0.824036 0.918743 0.413591 0.000000
C312  C     C_R   0.847105 0.960489 0.437656 0.000000
C313  C     C_R   0.855301 0.000261 0.423484 0.000000
C314  C     C_R   0.838628 0.999165 0.386827 0.000000
C315  C     C_R   0.807313 0.964670 0.373515 0.000000
N105  N     N_R   0.783953 0.963028 0.343293 0.000000
H341  H     H_    0.797151 0.786654 0.161483 0.000000
H342  H     H_    0.762517 0.789082 0.231622 0.000000
H343  H     H_    0.726319 0.817343 0.210149 0.000000
H344  H     H_    0.777204 0.882074 0.214740 0.000000
H345  H     H_    0.714706 0.928151 0.306209 0.000000
H346  H     H_    0.710140 0.868230 0.311587 0.000000
H347  H     H_    0.821473 0.885893 0.420731 0.000000
H348  H     H_    0.863481 0.960433 0.463495 0.000000
H349  H     H_    0.876570 0.030644 0.439000 0.000000
H350  H     H_    0.851557 0.022157 0.365717 0.000000
C316  C     C_3   0.692051 0.883720 0.595361 0.000000
N106  N     N_3   0.739098 0.842303 0.543809 0.000000
C317  C     C_3   0.751887 0.848631 0.493951 0.000000
C318  C     C_R   0.802994 0.810705 0.439642 0.000000
N107  N     N_R   0.837548 0.780241 0.442192 0.000000
C319  C     C_R   0.841732 0.730342 0.400286 0.000000
C320  C     C_R   0.857503 0.682845 0.394319 0.000000
C321  C     C_R   0.854372 0.635163 0.352094 0.000000
C322  C     C_R   0.832452 0.636281 0.319590 0.000000
C323  C     C_R   0.813047 0.685049 0.329604 0.000000
C324  C     C_R   0.818789 0.731694 0.369458 0.000000
N108  N     N_R   0.797154 0.782812 0.390114 0.000000
H351  H     H_    0.672923 0.871659 0.629373 0.000000
H352  H     H_    0.704542 0.922686 0.613788 0.000000
H353  H     H_    0.662078 0.888452 0.583309 0.000000
H354  H     H_    0.727267 0.805160 0.534804 0.000000
H355  H     H_    0.719213 0.837180 0.483024 0.000000
H356  H     H_    0.752077 0.890958 0.505343 0.000000
H357  H     H_    0.867882 0.682950 0.424882 0.000000
H358  H     H_    0.866463 0.597089 0.346522 0.000000
H359  H     H_    0.827485 0.599050 0.288872 0.000000
H360  H     H_    0.789339 0.686564 0.311361 0.000000
C325  C     C_3   0.092115 0.430839 0.479109 0.000000
N109  N     N_3   0.046720 0.475788 0.527108 0.000000
C326  C     C_3   0.043872 0.495585 0.583999 0.000000
C327  C     C_R   0.037585 0.452145 0.597460 0.000000
N110  N     N_R   0.997276 0.423875 0.592999 0.000000
C328  C     C_R   0.022661 0.373508 0.569922 0.000000
C329  C     C_R   0.008835 0.327050 0.540846 0.000000
C330  C     C_R   0.049877 0.285887 0.489482 0.000000
C331  C     C_R   0.103054 0.289430 0.474175 0.000000
C332  C     C_R   0.114533 0.330808 0.514070 0.000000
C333  C     C_R   0.073901 0.372756 0.561999 0.000000
N111  N     N_R   0.083077 0.422502 0.584890 0.000000
H361  H     H_    0.108654 0.433260 0.438377 0.000000
H362  H     H_    0.124355 0.431837 0.489747 0.000000
H363  H     H_    0.078133 0.392153 0.470284 0.000000
H364  H     H_    0.012180 0.461303 0.528298 0.000000
H365  H     H_    0.081103 0.510075 0.581749 0.000000
H366  H     H_    0.008018 0.528145 0.619893 0.000000
H367  H     H_    0.967515 0.323079 0.556819 0.000000
H368  H     H_    0.040264 0.249471 0.463735 0.000000
H369  H     H_    0.135312 0.259074 0.432019 0.000000
H370  H     H_    0.154482 0.337139 0.502832 0.000000
C334  C     C_3   0.868416 0.646965 0.774297 0.000000
N112  N     N_3   0.908118 0.627593 0.712221 0.000000
C335  C     C_3   0.889487 0.582822 0.680707 0.000000
C336  C     C_R   0.914127 0.562785 0.617135 0.000000
N113  N     N_R   0.915974 0.594244 0.591986 0.000000
C337  C     C_R   0.918657 0.556065 0.540757 0.000000
C338  C     C_R   0.918796 0.563208 0.498140 0.000000
C339  C     C_R   0.917829 0.519075 0.450860 0.000000
C340  C     C_R   0.915229 0.469277 0.447676 0.000000
C341  C     C_R   0.915369 0.462523 0.490753 0.000000
C342  C     C_R   0.919183 0.505936 0.535657 0.000000
N114  N     N_R   0.918558 0.507995 0.582215 0.000000
H371  H     H_    0.845683 0.615749 0.779696 0.000000
H372  H     H_    0.888635 0.657125 0.800559 0.000000
H373  H     H_    0.838659 0.682543 0.792585 0.000000
H374  H     H_    0.904501 0.656587 0.701975 0.000000
H375  H     H_    0.898874 0.548721 0.684108 0.000000
H376  H     H_    0.845885 0.594647 0.700233 0.000000
H377  H     H_    0.918479 0.601858 0.501382 0.000000
H378  H     H_    0.917460 0.523838 0.417009 0.000000
H379  H     H_    0.912419 0.435681 0.411648 0.000000
H380  H     H_    0.910158 0.424953 0.490220 0.000000
C343  C     C_3   0.016116 0.331817 0.356404 0.000000
N115  N     N_3   0.977961 0.312439 0.393978 0.000000
C344  C     C_3   0.984959 0.330807 0.445030 0.000000
C345  C     C_R   0.939447 0.321118 0.490472 0.000000
N116  N     N_R   0.911964 0.278799 0.474733 0.000000
C346  C     C_R   0.860266 0.306934 0.510976 0.000000
C347  C     C_R   0.815868 0.292498 0.504776 0.000000
C348  C     C_R   0.766819 0.328615 0.544715 0.000000
C349  C     C_R   0.763186 0.379412 0.588358 0.000000
C350  C     C_R   0.809011 0.394745 0.590933 0.000000
C351  C     C_R   0.856995 0.358414 0.551562 0.000000
N117  N     N_R   0.906255 0.368571 0.542207 0.000000
H381  H     H_    0.005805 0.376474 0.379417 0.000000
H382  H     H_    0.014115 0.314627 0.315177 0.000000
H383  H     H_    0.057747 0.319094 0.344946 0.000000
H384  H     H_    0.939143 0.330491 0.409069 0.000000
H385  H     H_    0.025420 0.313364 0.431773 0.000000
H386  H     H_    0.983592 0.374772 0.465544 0.000000
H387  H     H_    0.817919 0.253907 0.470691 0.000000
H388  H     H_    0.731272 0.317299 0.541384 0.000000
H389  H     H_    0.724929 0.407854 0.618881 0.000000
H390  H     H_    0.807704 0.434733 0.620978 0.000000
C352  C     C_3   0.005646 0.392241 0.740153 0.000000
N118  N     N_3   0.021657 0.339682 0.728358 0.000000
C353  C     C_3   0.002141 0.342366 0.784129 0.000000
C354  C     C_R   0.047250 0.344893 0.794924 0.000000
N119  N     N_R   0.086847 0.300445 0.769173 0.000000
C355  C     C_R   0.120280 0.324709 0.789631 0.000000
C356  C     C_R   0.165221 0.300592 0.781943 0.000000
C357  C     C_R   0.196864 0.333520 0.801784 0.000000
C358  C     C_R   0.184226 0.389087 0.826490 0.000000
C359  C     C_R   0.137761 0.412800 0.835459 0.000000
C360  C     C_R   0.104111 0.379876 0.820856 0.000000
N120  N     N_R   0.056935 0.394509 0.826170 0.000000
H391  H     H_    0.018321 0.421800 0.769862 0.000000
H392  H     H_    0.024584 0.393006 0.698330 0.000000
H393  H     H_    0.961665 0.401744 0.762451 0.000000
H394  H     H_    0.063127 0.334382 0.710287 0.000000
H395  H     H_    0.970492 0.378586 0.820625 0.000000
H396  H     H_    0.985694 0.307178 0.783525 0.000000
H397  H     H_    0.175502 0.257343 0.761108 0.000000
H398  H     H_    0.232645 0.315747 0.796310 0.000000
H399  H     H_    0.210639 0.414065 0.839310 0.000000
H400  H     H_    0.128298 0.455844 0.853695 0.000000
C361  C     C_3   0.882228 0.687570 0.027690 0.000000
N121  N     N_3   0.909831 0.645389 0.025700 0.000000
C362  C     C_3   0.960699 0.620580 0.970393 0.000000
C363  C     C_R   0.997779 0.588696 0.972849 0.000000
N122  N     N_R   0.009285 0.610962 0.018476 0.000000
C364  C     C_R   0.033128 0.566881 0.010915 0.000000
C365  C     C_R   0.051498 0.564176 0.045030 0.000000
C366  C     C_R   0.067188 0.513983 0.034588 0.000000
C367  C     C_R   0.060640 0.468058 0.993505 0.000000
C368  C     C_R   0.042678 0.471693 0.959253 0.000000
C369  C     C_R   0.034246 0.521109 0.964763 0.000000
N123  N     N_R   0.016559 0.533135 0.935856 0.000000
H401  H     H_    0.839986 0.701346 0.064751 0.000000
H402  H     H_    0.902873 0.722341 0.034885 0.000000
H403  H     H_    0.881881 0.671618 0.985675 0.000000
H404  H     H_    0.886383 0.615803 0.023967 0.000000
H405  H     H_    0.951919 0.593012 0.934945 0.000000
H406  H     H_    0.979916 0.652585 0.962193 0.000000
H407  H     H_    0.054111 0.599389 0.078958 0.000000
H408  H     H_    0.081779 0.510845 0.060892 0.000000
H409  H     H_    0.069028 0.429310 0.988636 0.000000
H410  H     H_    0.033030 0.436838 0.931546 0.000000
C370  C     C_3   0.186449 0.312650 0.630092 0.000000
N124  N     N_3   0.158415 0.361465 0.644738 0.000000
C371  C     C_3   0.145378 0.398360 0.704511 0.000000
C372  C     C_R   0.113894 0.447830 0.724189 0.000000
N125  N     N_R   0.119257 0.463165 0.684882 0.000000
C373  C     C_R   0.085832 0.510770 0.721847 0.000000
C374  C     C_R   0.065078 0.537930 0.707265 0.000000
C375  C     C_R   0.028080 0.583722 0.752045 0.000000
C376  C     C_R   0.017611 0.605287 0.809970 0.000000
C377  C     C_R   0.038105 0.574921 0.823082 0.000000
C378  C     C_R   0.065188 0.524689 0.778794 0.000000
N126  N     N_R   0.076747 0.483479 0.782856 0.000000
H411  H     H_    0.193385 0.280197 0.586455 0.000000
H412  H     H_    0.224523 0.319452 0.630548 0.000000
H413  H     H_    0.163123 0.302704 0.664947 0.000000
H414  H     H_    0.122861 0.354262 0.643194 0.000000
H415  H     H_    0.120618 0.382396 0.731894 0.000000
H416  H     H_    0.182408 0.406154 0.707914 0.000000
H417  H     H_    0.074651 0.522827 0.663078 0.000000
H418  H     H_    0.007310 0.599593 0.738843 0.000000
H419  H     H_    0.988887 0.642086 0.846676 0.000000
H420  H     H_    0.031965 0.588505 0.865913 0.000000
C379  C     C_3   0.194925 0.655329 0.737260 0.000000
N127  N     N_3   0.205125 0.618168 0.677637 0.000000
C380  C     C_3   0.160223 0.590639 0.681725 0.000000
C381  C     C_R   0.161109 0.564492 0.624017 0.000000
N128  N     N_R   0.164697 0.593708 0.596634 0.000000
C382  C     C_R   0.187561 0.553932 0.539570 0.000000
C383  C     C_R   0.207230 0.559611 0.490918 0.000000
C384  C     C_R   0.232036 0.513249 0.435644 0.000000
C385  C     C_R   0.236377 0.462657 0.430142 0.000000
C386  C     C_R   0.216606 0.457792 0.479832 0.000000
C387  C     C_R   0.192584 0.504129 0.533977 0.000000
N129  N     N_R   0.173422 0.508259 0.586935 0.000000
H421  H     H_    0.232083 0.670792 0.735010 0.000000
H422  H     H_    0.161902 0.689998 0.759625 0.000000
H423  H     H_    0.183595 0.634185 0.762792 0.000000
H424  H     H_    0.239665 0.589064 0.656027 0.000000
H425  H     H_    0.165504 0.559295 0.691385 0.000000
H426  H     H_    0.122062 0.620234 0.717376 0.000000
H427  H     H_    0.203626 0.598778 0.495378 0.000000
H428  H     H_    0.247832 0.516436 0.396446 0.000000
H429  H     H_    0.255674 0.426866 0.386715 0.000000
H430  H     H_    0.220391 0.418970 0.476247 0.000000
C388  C     C_3   0.102017 0.556531 0.473239 0.000000
N130  N     N_3   0.045312 0.577789 0.518229 0.000000
C389  C     C_3   0.040068 0.599820 0.576324 0.000000
C390  C     C_R   0.035823 0.657607 0.601672 0.000000
N131  N     N_R   0.077448 0.681556 0.608033 0.000000
C391  C     C_R   0.068529 0.726552 0.608510 0.000000
C392  C     C_R   0.100712 0.763647 0.610426 0.000000
C393  C     C_R   0.094158 0.800083 0.595767 0.000000
C394  C     C_R   0.053677 0.799977 0.583015 0.000000
C395  C     C_R   0.017891 0.765239 0.587133 0.000000
C396  C     C_R   0.025066 0.729298 0.601929 0.000000
N132  N     N_R   0.000078 0.687690 0.601680 0.000000
H431  H     H_    0.124031 0.590213 0.476821 0.000000
H432  H     H_    0.119766 0.527077 0.477705 0.000000
H433  H     H_    0.105756 0.534575 0.428924 0.000000
H434  H     H_    0.025112 0.545911 0.510492 0.000000
H435  H     H_    0.002692 0.593615 0.605983 0.000000
H436  H     H_    0.075827 0.583326 0.573316 0.000000
H437  H     H_    0.129954 0.764933 0.623513 0.000000
H438  H     H_    0.119305 0.829674 0.596649 0.000000
H439  H     H_    0.048561 0.829790 0.573309 0.000000
H440  H     H_    0.988613 0.763200 0.573879 0.000000
C397  C     C_3   0.240117 0.817246 0.726272 0.000000
N133  N     N_3   0.196726 0.787403 0.729950 0.000000
C398  C     C_3   0.161227 0.808179 0.718285 0.000000
C399  C     C_R   0.110330 0.788527 0.737255 0.000000
N134  N     N_R   0.108773 0.734368 0.708995 0.000000
C400  C     C_R   0.065686 0.731748 0.753499 0.000000
C401  C     C_R   0.038025 0.691467 0.750939 0.000000
C402  C     C_R   0.992628 0.701340 0.803862 0.000000
C403  C     C_R   0.978488 0.746965 0.857190 0.000000
C404  C     C_R   0.002760 0.789034 0.857044 0.000000
C405  C     C_R   0.043662 0.780767 0.803974 0.000000
N135  N     N_R   0.066827 0.818647 0.793915 0.000000
H441  H     H_    0.267082 0.802069 0.735779 0.000000
H442  H     H_    0.263813 0.811001 0.681136 0.000000
H443  H     H_    0.223493 0.860940 0.758868 0.000000
H444  H     H_    0.174460 0.794777 0.773125 0.000000
H445  H     H_    0.151873 0.852887 0.744029 0.000000
H446  H     H_    0.180548 0.792963 0.670616 0.000000
H447  H     H_    0.048862 0.655849 0.708812 0.000000
H448  H     H_    0.963728 0.675731 0.804994 0.000000
H449  H     H_    0.943152 0.752497 0.897127 0.000000
H450  H     H_    0.986675 0.827519 0.896776 0.000000
C406  C     C_3   0.933122 0.892641 0.700059 0.000000
N136  N     N_3   0.917379 0.854914 0.721235 0.000000
C407  C     C_3   0.888087 0.819043 0.695588 0.000000
C408  C     C_R   0.862254 0.790501 0.727945 0.000000
N137  N     N_R   0.864772 0.735685 0.697390 0.000000
C409  C     C_R   0.819456 0.729949 0.737116 0.000000
C410  C     C_R   0.795737 0.685725 0.727577 0.000000
C411  C     C_R   0.747202 0.689799 0.773747 0.000000
C412  C     C_R   0.723470 0.737220 0.827797 0.000000
C413  C     C_R   0.746504 0.782130 0.835981 0.000000
C414  C     C_R   0.794785 0.777686 0.790036 0.000000
N138  N     N_R   0.822217 0.817127 0.786936 0.000000
H451  H     H_    0.931487 0.931413 0.736267 0.000000
H452  H     H_    0.975123 0.879082 0.664702 0.000000
H453  H     H_    0.907874 0.897258 0.683113 0.000000
H454  H     H_    0.891818 0.877454 0.766642 0.000000
H455  H     H_    0.857333 0.840300 0.695905 0.000000
H456  H     H_    0.914568 0.788409 0.649870 0.000000
H457  H     H_    0.813136 0.649484 0.684784 0.000000
H458  H     H_    0.726871 0.656376 0.767617 0.000000
H459  H     H_    0.685947 0.739426 0.863351 0.000000
H460  H     H_    0.725646 0.819374 0.876586 0.000000
C415  C     C_3   0.918383 0.743877 0.784499 0.000000
N139  N     N_3   0.937749 0.792648 0.793838 0.000000
C416  C     C_3   0.900972 0.832072 0.854030 0.000000
C417  C     C_R   0.905237 0.885872 0.862207 0.000000
N140  N     N_R   0.945924 0.912504 0.868404 0.000000
C418  C     C_R   0.921619 0.964620 0.895919 0.000000
C419  C     C_R   0.938315 0.009858 0.924870 0.000000
C420  C     C_R   0.900093 0.057407 0.967390 0.000000
C421  C     C_R   0.846500 0.058727 0.981005 0.000000
C422  C     C_R   0.830968 0.013380 0.949816 0.000000
C423  C     C_R   0.870044 0.967636 0.905309 0.000000
N141  N     N_R   0.860869 0.918152 0.878755 0.000000
H461  H     H_    0.951213 0.709744 0.744572 0.000000
H462  H     H_    0.901804 0.741409 0.825039 0.000000
H463  H     H_    0.885121 0.745228 0.777060 0.000000
H464  H     H_    0.929990 0.802714 0.768458 0.000000
H465  H     H_    0.859050 0.827672 0.863910 0.000000
H466  H     H_    0.908522 0.828312 0.885344 0.000000
H467  H     H_    0.977987 0.007757 0.920043 0.000000
H468  H     H_    0.911380 0.092944 0.992838 0.000000
H469  H     H_    0.816549 0.095285 0.016794 0.000000
H470  H     H_    0.788912 0.013066 0.962177 0.000000
C424  C     C_3   0.792306 0.110140 0.933161 0.000000
N142  N     N_3   0.788919 0.054350 0.900019 0.000000
C425  C     C_3   0.839658 0.026984 0.844410 0.000000
C426  C     C_R   0.831320 0.977910 0.802057 0.000000
N143  N     N_R   0.804311 0.940923 0.815919 0.000000
C427  C     C_R   0.782528 0.921742 0.780863 0.000000
C428  C     C_R   0.748334 0.885729 0.779723 0.000000
C429  C     C_R   0.725527 0.875260 0.744920 0.000000
C430  C     C_R   0.737617 0.900495 0.712204 0.000000
C431  C     C_R   0.773743 0.934857 0.712555 0.000000
C432  C     C_R   0.797716 0.943781 0.745846 0.000000
N144  N     N_R   0.832481 0.976867 0.754913 0.000000
H471  H     H_    0.759336 0.128425 0.979813 0.000000
H472  H     H_    0.831733 0.111869 0.931520 0.000000
H473  H     H_    0.788225 0.133614 0.914217 0.000000
H474  H     H_    0.758318 0.055047 0.890405 0.000000
H475  H     H_    0.850619 0.053711 0.825719 0.000000
H476  H     H_    0.872227 0.017322 0.850268 0.000000
H477  H     H_    0.736758 0.868505 0.807777 0.000000
H478  H     H_    0.696478 0.849223 0.745218 0.000000
H479  H     H_    0.717483 0.894530 0.687449 0.000000
H480  H     H_    0.776986 0.957889 0.692689 0.000000
C433  C     C_3   0.055588 0.602796 0.411959 0.000000
N145  N     N_3   0.012042 0.644157 0.468515 0.000000
C434  C     C_3   0.980868 0.668894 0.455720 0.000000
C435  C     C_R   0.930683 0.707287 0.510232 0.000000
N146  N     N_R   0.905029 0.700167 0.559039 0.000000
C436  C     C_R   0.853328 0.722755 0.582619 0.000000
C437  C     C_R   0.807820 0.717398 0.623655 0.000000
C438  C     C_R   0.757955 0.741206 0.639543 0.000000
C439  C     C_R   0.754567 0.769762 0.614029 0.000000
C440  C     C_R   0.801045 0.772681 0.570772 0.000000
C441  C     C_R   0.849311 0.746830 0.554329 0.000000
N147  N     N_R   0.897173 0.738971 0.508163 0.000000
H481  H     H_    0.093940 0.605998 0.412983 0.000000
H482  H     H_    0.046230 0.562370 0.403556 0.000000
H483  H     H_    0.060910 0.608186 0.375356 0.000000
H484  H     H_    0.030259 0.673090 0.488575 0.000000
H485  H     H_    0.005960 0.689420 0.432368 0.000000
H486  H     H_    0.967956 0.636309 0.427029 0.000000
H487  H     H_    0.810759 0.691143 0.638560 0.000000
H488  H     H_    0.721426 0.736903 0.671409 0.000000
H489  H     H_    0.715477 0.788482 0.626874 0.000000
H490  H     H_    0.800156 0.792898 0.548814 0.000000
C442  C     C_3   0.041438 0.781658 0.473463 0.000000
N148  N     N_3   0.988005 0.810169 0.497222 0.000000
C443  C     C_3   0.952689 0.842615 0.561226 0.000000
C444  C     C_R   0.911392 0.882112 0.572242 0.000000
N149  N     N_R   0.891722 0.936894 0.616047 0.000000
C445  C     C_R   0.859432 0.952417 0.601947 0.000000
C446  C     C_R   0.822608 0.000181 0.634618 0.000000
C447  C     C_R   0.789850 0.006263 0.614824 0.000000
C448  C     C_R   0.795753 0.965795 0.561868 0.000000
C449  C     C_R   0.832392 0.917669 0.530103 0.000000
C450  C     C_R   0.860741 0.910842 0.553107 0.000000
N150  N     N_R   0.891681 0.865124 0.533759 0.000000
H491  H     H_    0.067086 0.808467 0.486031 0.000000
H492  H     H_    0.038728 0.750705 0.485349 0.000000
H493  H     H_    0.061958 0.760507 0.424532 0.000000
H494  H     H_    0.969073 0.780653 0.480892 0.000000
H495  H     H_    0.930966 0.816501 0.578427 0.000000
H496  H     H_    0.975651 0.862752 0.583005 0.000000
H497  H     H_    0.812907 0.029355 0.678507 0.000000
H498  H     H_    0.759743 0.042882 0.640693 0.000000
H499  H     H_    0.771453 0.972452 0.545742 0.000000
H500  H     H_    0.841255 0.887064 0.486956 0.000000
C451  C     C_3   0.045150 0.060094 0.609719 0.000000
N151  N     N_3   0.051425 0.096535 0.660189 0.000000
C452  C     C_3   0.102443 0.076198 0.650073 0.000000
C453  C     C_R   0.107111 0.106844 0.703477 0.000000
N152  N     N_R   0.102939 0.162093 0.731666 0.000000
C454  C     C_R   0.098677 0.172804 0.782941 0.000000
C455  C     C_R   0.084770 0.222650 0.832268 0.000000
C456  C     C_R   0.076659 0.224844 0.883002 0.000000
C457  C     C_R   0.079513 0.177696 0.884495 0.000000
C458  C     C_R   0.091125 0.127923 0.835145 0.000000
C459  C     C_R   0.102619 0.125980 0.783798 0.000000
N153  N     N_R   0.110252 0.082570 0.732548 0.000000
H501  H     H_    0.006681 0.046988 0.626117 0.000000
H502  H     H_    0.042603 0.081562 0.588201 0.000000
H503  H     H_    0.079449 0.024985 0.576568 0.000000
H504  H     H_    0.021081 0.094127 0.695627 0.000000
H505  H     H_    0.105275 0.033744 0.638474 0.000000
H506  H     H_    0.136206 0.080266 0.615183 0.000000
H507  H     H_    0.077449 0.259180 0.833007 0.000000
H508  H     H_    0.065434 0.263562 0.922554 0.000000
H509  H     H_    0.070019 0.179948 0.925384 0.000000
H510  H     H_    0.086490 0.092836 0.839284 0.000000
C460  C     C_3   0.013067 0.844488 0.730112 0.000000
N154  N     N_3   0.052201 0.871448 0.743257 0.000000
C461  C     C_3   0.044248 0.922672 0.749069 0.000000
C462  C     C_R   0.064334 0.956981 0.787518 0.000000
N155  N     N_R   0.064666 0.946575 0.827864 0.000000
C463  C     C_R   0.102065 0.973086 0.838587 0.000000
C464  C     C_R   0.119809 0.975595 0.875057 0.000000
C465  C     C_R   0.161572 0.002519 0.876236 0.000000
C466  C     C_R   0.184779 0.025553 0.840750 0.000000
C467  C     C_R   0.166138 0.022535 0.804114 0.000000
C468  C     C_R   0.123933 0.996526 0.804568 0.000000
N156  N     N_R   0.100074 0.987264 0.771911 0.000000
H511  H     H_    0.019813 0.802953 0.721098 0.000000
H512  H     H_    0.973498 0.867467 0.765765 0.000000
H513  H     H_    0.015142 0.846181 0.693834 0.000000
H514  H     H_    0.089607 0.851348 0.705655 0.000000
H515  H     H_    0.070212 0.917512 0.704855 0.000000
H516  H     H_    0.001346 0.938934 0.767961 0.000000
H517  H     H_    0.101493 0.957587 0.902110 0.000000
H518  H     H_    0.176519 0.005301 0.904651 0.000000
H519  H     H_    0.217744 0.045924 0.841699 0.000000
H520  H     H_    0.184323 0.039898 0.776036 0.000000
C469  C     C_3   0.966236 0.102845 0.873846 0.000000
N157  N     N_3   0.982490 0.051061 0.819940 0.000000
C470  C     C_3   0.971421 0.059246 0.781008 0.000000
C471  C     C_R   0.994066 0.009906 0.721881 0.000000
N158  N     N_R   0.048172 0.985943 0.690545 0.000000
C472  C     C_R   0.055410 0.952744 0.636556 0.000000
C473  C     C_R   0.101528 0.918154 0.588060 0.000000
C474  C     C_R   0.103632 0.894198 0.534765 0.000000
C475  C     C_R   0.061199 0.908695 0.530943 0.000000
C476  C     C_R   0.013801 0.941845 0.580912 0.000000
C477  C     C_R   0.010154 0.959040 0.634209 0.000000
N159  N     N_R   0.968114 0.991704 0.688295 0.000000
H521  H     H_    0.981769 0.099269 0.900211 0.000000
H522  H     H_    0.982760 0.134739 0.863714 0.000000
H523  H     H_    0.921641 0.114684 0.900078 0.000000
H524  H     H_    0.957537 0.026173 0.831761 0.000000
H525  H     H_    0.928151 0.070308 0.799554 0.000000
H526  H     H_    0.991073 0.091871 0.775645 0.000000
H527  H     H_    0.132932 0.905886 0.591874 0.000000
H528  H     H_    0.137757 0.862870 0.496591 0.000000
H529  H     H_    0.063175 0.889339 0.489057 0.000000
H530  H     H_    0.981726 0.953756 0.577161 0.000000
C478  C     C_3   0.033540 0.834867 0.194893 0.000000
N160  N     N_3   0.069807 0.867504 0.176426 0.000000
C479  C     C_3   0.049515 0.885320 0.150431 0.000000
C480  C     C_R   0.075651 0.925501 0.135654 0.000000
N161  N     N_R   0.105298 0.960586 0.157430 0.000000
C481  C     C_R   0.113868 0.990120 0.130790 0.000000
C482  C     C_R   0.137624 0.034354 0.139382 0.000000
C483  C     C_R   0.139641 0.060596 0.109863 0.000000
C484  C     C_R   0.115867 0.043943 0.074664 0.000000
C485  C     C_R   0.089768 0.000887 0.068677 0.000000
C486  C     C_R   0.090421 0.973969 0.096258 0.000000
N162  N     N_R   0.063876 0.934684 0.100710 0.000000
H531  H     H_    0.051127 0.812965 0.206438 0.000000
H532  H     H_    0.994578 0.860783 0.234346 0.000000
H533  H     H_    0.029218 0.803601 0.157430 0.000000
H534  H     H_    0.104262 0.839157 0.140524 0.000000
H535  H     H_    0.057970 0.849760 0.108391 0.000000
H536  H     H_    0.006343 0.902391 0.178868 0.000000
H537  H     H_    0.155299 0.047595 0.167140 0.000000
H538  H     H_    0.158994 0.094963 0.115154 0.000000
H539  H     H_    0.116489 0.065647 0.053073 0.000000
H540  H     H_    0.068807 0.989981 0.044105 0.000000
C487  C     C_3   0.960137 0.976504 0.294013 0.000000
N163  N     N_3   0.947018 0.033866 0.336825 0.000000
C488  C     C_3   0.984457 0.058859 0.307157 0.000000
C489  C     C_R   0.017635 0.083279 0.333131 0.000000
N164  N     N_R   0.001952 0.138583 0.372073 0.000000
C490  C     C_R   0.049651 0.153396 0.350914 0.000000
C491  C     C_R   0.055401 0.202989 0.358575 0.000000
C492  C     C_R   0.105860 0.211337 0.327242 0.000000
C493  C     C_R   0.149305 0.168070 0.285370 0.000000
C494  C     C_R   0.141922 0.116363 0.273722 0.000000
C495  C     C_R   0.091494 0.109876 0.307035 0.000000
N165  N     N_R   0.073359 0.063515 0.295793 0.000000
H541  H     H_    0.940725 0.953065 0.315836 0.000000
H542  H     H_    0.945181 0.970233 0.263875 0.000000
H543  H     H_    0.003939 0.960501 0.268919 0.000000
H544  H     H_    0.952349 0.041337 0.371666 0.000000
H545  H     H_    0.013704 0.029523 0.261410 0.000000
H546  H     H_    0.962482 0.091494 0.310655 0.000000
H547  H     H_    0.019353 0.232382 0.386285 0.000000
H548  H     H_    0.111330 0.251241 0.334130 0.000000
H549  H     H_    0.188613 0.174461 0.260324 0.000000
H550  H     H_    0.175233 0.082816 0.239630 0.000000
C496  C     C_3   0.879852 0.883087 0.231120 0.000000
N166  N     N_3   0.929528 0.861792 0.176665 0.000000
C497  C     C_3   0.923970 0.816928 0.130929 0.000000
C498  C     C_R   0.978534 0.793974 0.080076 0.000000
N167  N     N_R   0.009951 0.823061 0.055005 0.000000
C499  C     C_R   0.054246 0.784820 0.009209 0.000000
C500  C     C_R   0.102362 0.791813 0.973337 0.000000
C501  C     C_R   0.141628 0.746182 0.925995 0.000000
C502  C     C_R   0.131417 0.695266 0.916070 0.000000
C503  C     C_R   0.084596 0.689943 0.957022 0.000000
C504  C     C_R   0.048866 0.736248 0.006555 0.000000
N168  N     N_R   0.003641 0.741750 0.054853 0.000000
H551  H     H_    0.888869 0.906579 0.267089 0.000000
H552  H     H_    0.852863 0.908723 0.232363 0.000000
H553  H     H_    0.860579 0.850133 0.235544 0.000000
H554  H     H_    0.954046 0.843483 0.182489 0.000000
H555  H     H_    0.909305 0.785912 0.142604 0.000000
H556  H     H_    0.895730 0.829065 0.121236 0.000000
H557  H     H_    0.109429 0.831751 0.983117 0.000000
H558  H     H_    0.179839 0.750035 0.895866 0.000000
H559  H     H_    0.161157 0.659634 0.877434 0.000000
H560  H     H_    0.076658 0.650489 0.949458 0.000000

loop_
_geom_bond_atom_site_label_1
_geom_bond_atom_site_label_2
_geom_bond_distance
_geom_bond_site_symmetry_2
_ccdc_geom_bond_type
Zn1   N6    2.230 .      S
Zn1   N92   2.040 .      S
Zn1   N119  2.153 .      S
Zn1   N152  2.067 .      S
Zn2   N9    2.302 .      S
Zn2   N111  2.174 .      S
Zn2   N125  2.079 .      S
Zn2   N129  2.166 .      S
Zn3   N113  2.194 .      S
Zn3   N132  2.139 1_655  S
Zn3   N137  2.111 .      S
Zn3   N146  2.160 .      S
Zn4   N3    2.036 .      S
Zn4   N135  2.071 .      S
Zn4   N140  2.089 1_455  S
Zn4   N155  2.039 .      S
Zn5   N5    2.150 .      S
Zn5   N8    2.261 .      S
Zn5   N80   2.202 .      S
Zn5   N89   2.087 .      S
Zn6   N12   2.113 1_545  S
Zn6   N14   2.227 .      S
Zn6   N83   2.117 .      S
Zn6   N105  2.160 1_545  S
Zn7   N96   2.116 1_565  S
Zn7   N144  2.095 .      S
Zn7   N149  2.113 .      S
Zn7   N159  2.147 .      S
Zn8   N15   2.174 .      S
Zn8   N98   2.146 .      S
Zn8   N116  2.238 .      S
Zn8   N164  2.207 1_655  S
Zn9   N2    2.064 .      S
Zn9   N11   2.063 1_455  S
Zn9   N162  2.051 .      S
Zn9   N167  2.118 .      S
Zn10  N17   2.079 .      S
Zn10  N21   2.076 .      S
Zn10  N24   2.069 .      S
Zn10  N26   2.273 .      S
Zn11  N18   2.192 .      S
Zn11  N30   2.127 .      S
Zn11  N32   2.153 .      S
Zn11  N35   2.217 .      S
Zn12  N20   2.184 .      S
Zn12  N39   2.201 .      S
Zn12  N42   2.104 .      S
Zn12  N44   2.199 .      S
Zn13  N23   2.110 .      S
Zn13  N47   2.042 .      S
Zn13  N50   2.094 .      S
Zn13  N54   2.084 .      S
Zn14  N27   2.224 .      S
Zn14  N57   2.130 .      S
Zn14  N59   2.096 .      S
Zn14  N62   2.094 .      S
Zn15  N41   2.097 .      S
Zn15  N66   2.099 .      S
Zn15  N69   2.106 .      S
Zn15  N71   2.154 .      S
Zn16  N36   2.177 .      S
Zn16  N45   2.092 .      S
Zn16  N74   2.130 .      S
Zn16  N78   2.218 .      S
Zn17  N29   2.151 1_545  S
Zn17  N48   2.129 .      S
Zn17  N81   2.277 .      S
Zn17  N84   2.172 .      S
Zn18  N38   2.083 .      S
Zn18  N51   2.066 .      S
Zn18  N86   2.052 .      S
Zn18  N90   2.198 1_565  S
Zn19  N56   2.218 .      S
Zn19  N93   2.063 .      S
Zn19  N95   2.045 .      S
Zn19  N99   2.207 .      S
Zn20  N33   2.120 .      S
Zn20  N102  2.130 .      S
Zn20  N104  2.158 .      S
Zn20  N108  2.207 .      S
Zn21  N60   2.100 .      S
Zn21  N110  2.188 .      S
Zn21  N114  2.168 .      S
Zn21  N117  2.162 .      S
Zn22  N63   2.157 1_455  S
Zn22  N120  2.134 .      S
Zn22  N123  2.113 .      S
Zn22  N126  2.122 .      S
Zn23  N75   2.142 .      S
Zn23  N128  2.143 .      S
Zn23  N131  2.065 .      S
Zn23  N134  2.115 .      S
Zn24  N53   2.096 .      S
Zn24  N138  2.123 .      S
Zn24  N141  2.043 .      S
Zn24  N143  2.028 .      S
Zn25  N72   2.138 .      S
Zn25  N107  2.224 .      S
Zn25  N147  2.185 .      S
Zn25  N150  2.084 .      S
Zn26  N77   2.184 1_545  S
Zn26  N153  2.095 .      S
Zn26  N156  2.019 1_545  S
Zn26  N158  2.110 1_545  S
Zn27  N65   2.020 .      S
Zn27  N87   2.059 .      S
Zn27  N161  2.090 .      S
Zn27  N165  2.178 1_565  S
Zn28  N68   2.106 1_655  S
Zn28  N101  2.111 .      S
Zn28  N122  2.083 1_655  S
Zn28  N168  2.120 1_655  S
C1    N1    1.451 .      S
C1    H1    1.109 .      S
C1    H2    1.108 .      S
C1    H3    1.107 .      S
N1    C2    1.455 .      S
N1    H4    1.041 .      S
C2    C3    1.484 .      S
C2    H5    1.105 .      S
C2    H6    1.105 .      S
C5    H7    1.054 .      S
C6    H8    1.081 .      S
C7    H9    1.081 .      S
C8    H10   1.065 1_554  S
H10   C8    1.065 1_556  S
C10   N4    1.452 .      S
C10   H11   1.109 .      S
C10   H12   1.108 .      S
C10   H13   1.109 .      S
N4    C11   1.453 .      S
N4    H14   1.042 .      S
C11   C12   1.490 .      S
C11   H15   1.097 .      S
C11   H16   1.108 .      S
C14   H17   1.066 .      S
C15   H18   1.076 .      S
C16   H19   1.080 .      S
C17   H20   1.052 .      S
C19   N7    1.454 .      S
C19   H21   1.108 .      S
C19   H22   1.109 .      S
C19   H23   1.109 .      S
N7    C20   1.454 .      S
N7    H24   1.044 .      S
C20   C21   1.495 .      S
C20   H25   1.105 .      S
C20   H26   1.099 .      S
C23   H27   1.080 .      S
C24   H28   1.081 .      S
C25   H29   1.081 .      S
C26   H30   1.081 .      S
C28   N10   1.456 .      S
C28   H31   1.105 1_655  S
C28   H32   1.109 .      S
C28   H33   1.100 .      S
N10   C29   1.436 .      S
N10   H34   1.025 .      S
C29   C30   1.466 1_545  S
C29   H35   1.093 .      S
C29   H36   1.099 .      S
C30   C29   1.466 1_565  S
N11   Zn9   2.063 1_655  S
C32   H37   1.079 .      S
C33   H38   1.077 .      S
C34   H39   1.080 .      S
C35   H40   1.056 .      S
N12   Zn6   2.113 1_565  S
H31   C28   1.105 1_455  S
C37   N13   1.457 .      S
C37   H41   1.107 .      S
C37   H42   1.108 .      S
C37   H43   1.108 .      S
N13   C38   1.441 .      S
N13   H44   1.042 .      S
C38   C39   1.486 .      S
C38   H45   1.095 .      S
C38   H46   1.105 .      S
C41   H47   1.073 .      S
C42   H48   1.079 .      S
C43   H49   1.081 .      S
C44   H50   1.079 .      S
C46   N16   1.451 .      S
C46   H51   1.104 .      S
C46   H52   1.105 .      S
C46   H53   1.095 .      S
N16   C47   1.444 .      S
N16   H54   1.033 .      S
C47   C48   1.464 .      S
C47   H55   1.091 .      S
C47   H56   1.103 .      S
C50   H57   1.054 .      S
C51   H58   1.081 .      S
C52   H59   1.068 .      S
C53   H60   1.055 .      S
C55   N19   1.455 .      S
C55   H61   1.109 1_554  S
C55   H62   1.109 .      S
C55   H63   1.100 .      S
N19   C56   1.461 .      S
N19   H64   1.042 .      S
C56   C57   1.471 .      S
C56   H65   1.103 .      S
C56   H66   1.090 .      S
C59   H67   1.054 .      S
C60   H68   1.081 .      S
C61   H69   1.080 .      S
C62   H70   1.080 .      S
H61   C55   1.109 1_556  S
C64   N22   1.452 .      S
C64   H71   1.109 .      S
C64   H72   1.105 .      S
C64   H73   1.105 .      S
N22   C65   1.455 .      S
N22   H74   1.041 .      S
C65   C66   1.475 .      S
C65   H75   1.097 .      S
C65   H76   1.107 .      S
C68   H77   1.077 .      S
C69   H78   1.081 .      S
C70   H79   1.081 .      S
C71   H80   1.081 .      S
C73   N25   1.446 .      S
C73   H81   1.105 .      S
C73   H82   1.109 .      S
C73   H83   1.105 .      S
N25   C74   1.449 .      S
N25   H84   1.042 .      S
C74   C75   1.485 .      S
C74   H85   1.109 .      S
C74   H86   1.108 .      S
C77   H87   1.073 .      S
C78   H88   1.081 .      S
C79   H89   1.081 .      S
C80   H90   1.078 .      S
C82   N28   1.418 .      S
C82   H91   1.101 .      S
C82   H92   1.103 .      S
C82   H93   1.098 .      S
N28   C83   1.431 .      S
N28   H94   1.031 .      S
C83   C84   1.470 .      S
C83   H95   1.097 .      S
C83   H96   1.107 .      S
N29   Zn17  2.151 1_565  S
C86   H97   1.060 .      S
C87   H98   1.081 .      S
C88   H99   1.081 .      S
C89   H100  1.045 .      S
C91   N31   1.454 .      S
C91   H101  1.109 .      S
C91   H102  1.109 .      S
C91   H103  1.109 .      S
N31   C92   1.454 .      S
N31   H104  1.044 .      S
C92   C93   1.493 .      S
C92   H105  1.109 .      S
C92   H106  1.106 .      S
C95   H107  1.052 .      S
C96   H108  1.081 .      S
C97   H109  1.081 .      S
C98   H110  1.074 .      S
C100  N34   1.453 .      S
C100  H111  1.109 .      S
C100  H112  1.109 .      S
C100  H113  1.109 .      S
N34   C101  1.454 .      S
N34   H114  1.044 .      S
C101  C102  1.492 .      S
C101  H115  1.103 .      S
C101  H116  1.107 .      S
C104  H117  1.075 .      S
C105  H118  1.081 .      S
C106  H119  1.081 .      S
C107  H120  1.073 .      S
C109  N37   1.454 .      S
C109  H121  1.106 .      S
C109  H122  1.110 .      S
C109  H123  1.104 .      S
N37   C110  1.434 .      S
N37   H124  1.030 .      S
C110  C111  1.491 .      S
C110  H125  1.084 .      S
C110  H126  1.108 .      S
C113  H127  1.050 1_565  S
C114  H128  1.068 1_565  S
C115  H129  1.070 .      S
C116  H130  1.062 .      S
H127  C113  1.050 1_545  S
H128  C114  1.068 1_545  S
C118  N40   1.439 .      S
C118  H131  1.102 .      S
C118  H132  1.106 .      S
C118  H133  1.099 .      S
N40   C119  1.430 .      S
N40   H134  1.041 .      S
C119  C120  1.456 .      S
C119  H135  1.102 .      S
C119  H136  1.104 .      S
C122  H137  1.078 .      S
C123  H138  1.081 .      S
C124  H139  1.081 .      S
C125  H140  1.076 .      S
C127  N43   1.454 .      S
C127  H141  1.090 .      S
C127  H142  1.100 .      S
C127  H143  1.108 .      S
N43   C128  1.423 .      S
N43   H144  1.039 .      S
C128  C129  1.470 .      S
C128  H145  1.089 .      S
C128  H146  1.050 .      S
C131  H147  1.057 .      S
C132  H148  1.081 .      S
C133  H149  1.081 .      S
C134  H150  1.074 .      S
C136  N46   1.446 .      S
C136  H151  1.087 1_565  S
C136  H152  1.102 .      S
C136  H153  1.091 1_565  S
N46   C137  1.441 .      S
N46   H154  1.040 .      S
C137  C138  1.483 .      S
C137  H155  1.094 .      S
C137  H156  1.105 .      S
C140  H157  1.069 1_545  S
C141  H158  1.081 .      S
C142  H159  1.081 .      S
C143  H160  1.059 .      S
H151  C136  1.087 1_545  S
H153  C136  1.091 1_545  S
H157  C140  1.069 1_565  S
C145  N49   1.455 .      S
C145  H161  1.109 1_554  S
C145  H162  1.104 .      S
C145  H163  1.100 1_554  S
N49   C146  1.466 .      S
N49   H164  1.042 .      S
C146  C147  1.469 .      S
C146  H165  1.098 .      S
C146  H166  1.091 .      S
C149  H167  1.072 .      S
C150  H168  1.081 .      S
C151  H169  1.081 .      S
C152  H170  1.080 .      S
H161  C145  1.109 1_556  S
H163  C145  1.100 1_556  S
C154  N52   1.450 .      S
C154  H171  1.108 .      S
C154  H172  1.105 .      S
C154  H173  1.103 1_556  S
N52   C155  1.449 .      S
N52   H174  1.043 .      S
C155  C156  1.484 .      S
C155  H175  1.109 1_556  S
C155  H176  1.109 .      S
C158  H177  1.068 .      S
C159  H178  1.081 1_565  S
C160  H179  1.081 .      S
C161  H180  1.065 1_556  S
H173  C154  1.103 1_554  S
H175  C155  1.109 1_554  S
H178  C159  1.081 1_545  S
H180  C161  1.065 1_554  S
C163  N55   1.453 .      S
C163  H181  1.105 .      S
C163  H182  1.100 .      S
C163  H183  1.104 .      S
N55   C164  1.459 .      S
N55   H184  1.043 .      S
C164  C165  1.470 .      S
C164  H185  1.092 .      S
C164  H186  1.097 .      S
C167  H187  1.074 .      S
C168  H188  1.081 .      S
C169  H189  1.081 .      S
C170  H190  1.080 .      S
C172  N58   1.423 .      S
C172  H191  1.099 .      S
C172  H192  1.107 .      S
C172  H193  1.099 .      S
N58   C173  1.418 .      S
N58   H194  1.040 .      S
C173  C174  1.434 .      S
C173  H195  1.104 .      S
C173  H196  1.103 .      S
C176  H197  1.068 .      S
C177  H198  1.081 .      S
C178  H199  1.081 .      S
C179  H200  1.081 .      S
C181  N61   1.440 .      S
C181  H201  1.104 .      S
C181  H202  1.094 .      S
C181  H203  1.102 .      S
N61   C182  1.436 .      S
N61   H204  1.039 .      S
C182  C183  1.451 .      S
C182  H205  1.086 .      S
C182  H206  1.110 .      S
C185  H207  1.080 .      S
C186  H208  1.081 .      S
C187  H209  1.081 .      S
C188  H210  1.075 .      S
N63   Zn22  2.157 1_655  S
C190  N64   1.455 .      S
C190  H211  1.109 .      S
C190  H212  1.107 .      S
C190  H213  1.107 .      S
N64   C191  1.456 .      S
N64   H214  1.039 .      S
C191  C192  1.492 .      S
C191  H215  1.091 .      S
C191  H216  1.098 .      S
C194  H217  1.049 1_565  S
C195  H218  1.065 1_565  S
C196  H219  1.064 .      S
C197  H220  1.057 .      S
H217  C194  1.049 1_545  S
H218  C195  1.065 1_545  S
C199  N67   1.454 .      S
C199  H221  1.109 .      S
C199  H222  1.107 1_655  S
C199  H223  1.109 .      S
N67   C200  1.452 1_655  S
N67   H224  1.038 .      S
C200  N67   1.452 1_455  S
C200  C201  1.501 .      S
C200  H225  1.090 .      S
C200  H226  1.105 .      S
N68   Zn28  2.106 1_455  S
C203  H227  1.070 1_554  S
C204  H228  1.081 .      S
C205  H229  1.081 .      S
C206  H230  1.065 .      S
H222  C199  1.107 1_455  S
H227  C203  1.070 1_556  S
C208  N70   1.461 .      S
C208  H231  1.098 .      S
C208  H232  1.107 .      S
C208  H233  1.102 .      S
N70   C209  1.453 .      S
N70   H234  1.033 .      S
C209  C210  1.513 .      S
C209  H235  1.079 1_455  S
C209  H236  1.096 1_455  S
C212  H237  1.073 .      S
C213  H238  1.081 .      S
C214  H239  1.081 .      S
C215  H240  1.064 .      S
H235  C209  1.079 1_655  S
H236  C209  1.096 1_655  S
C217  N73   1.454 .      S
C217  H241  1.109 .      S
C217  H242  1.106 .      S
C217  H243  1.101 .      S
N73   C218  1.452 .      S
N73   H244  1.039 .      S
C218  C219  1.496 .      S
C218  H245  1.096 .      S
C218  H246  1.103 .      S
C221  H247  1.072 .      S
C222  H248  1.081 .      S
C223  H249  1.081 .      S
C224  H250  1.072 .      S
C226  N76   1.453 .      S
C226  H251  1.109 .      S
C226  H252  1.105 .      S
C226  H253  1.108 .      S
N76   C227  1.456 .      S
N76   H254  1.039 .      S
C227  C228  1.467 .      S
C227  H255  1.101 .      S
C227  H256  1.100 .      S
N77   Zn26  2.184 1_565  S
C230  H257  1.075 1_565  S
C231  H258  1.077 1_565  S
C232  H259  1.070 .      S
C233  H260  1.073 .      S
H257  C230  1.075 1_545  S
H258  C231  1.077 1_545  S
C235  N79   1.459 .      S
C235  H261  1.107 .      S
C235  H262  1.108 .      S
C235  H263  1.108 .      S
N79   C236  1.432 .      S
N79   H264  1.038 .      S
C236  C237  1.487 .      S
C236  H265  1.096 .      S
C236  H266  1.102 .      S
C239  H267  1.078 .      S
C240  H268  1.081 .      S
C241  H269  1.081 .      S
C242  H270  1.077 .      S
C244  N82   1.455 .      S
C244  H271  1.109 .      S
C244  H272  1.105 .      S
C244  H273  1.105 .      S
N82   C245  1.455 .      S
N82   H274  1.039 .      S
C245  C246  1.496 .      S
C245  H275  1.101 .      S
C245  H276  1.103 .      S
C248  H277  1.070 .      S
C249  H278  1.080 .      S
C250  H279  1.081 .      S
C251  H280  1.079 .      S
C253  N85   1.451 .      S
C253  H281  1.106 .      S
C253  H282  1.107 .      S
C253  H283  1.107 .      S
N85   C254  1.446 .      S
N85   H284  1.038 .      S
C254  C255  1.500 .      S
C254  H285  1.101 .      S
C254  H286  1.089 1_565  S
C257  H287  1.071 .      S
C258  H288  1.081 .      S
C259  H289  1.081 .      S
C260  H290  1.071 .      S
H286  C254  1.089 1_545  S
C262  N88   1.452 .      S
C262  H291  1.109 .      S
C262  H292  1.104 .      S
C262  H293  1.098 .      S
N88   C263  1.452 .      S
N88   H294  1.043 .      S
C263  C264  1.471 .      S
C263  H295  1.094 .      S
C263  H296  1.087 .      S
C266  H297  1.078 .      S
C267  H298  1.067 .      S
C268  H299  1.068 .      S
C269  H300  1.071 .      S
N90   Zn18  2.198 1_545  S
C271  N91   1.460 .      S
C271  H301  1.109 .      S
C271  H302  1.107 .      S
C271  H303  1.100 .      S
N91   C272  1.446 .      S
N91   H304  1.039 .      S
C272  C273  1.495 .      S
C272  H305  1.103 .      S
C272  H306  1.105 .      S
C275  H307  1.044 .      S
C276  H308  1.077 .      S
C277  H309  1.039 .      S
C278  H310  1.054 1_455  S
H310  C278  1.054 1_655  S
C280  N94   1.443 .      S
C280  H311  1.106 .      S
C280  H312  1.105 .      S
C280  H313  1.106 .      S
N94   C281  1.447 .      S
N94   H314  1.040 .      S
C281  C282  1.472 .      S
C281  H315  1.105 .      S
C281  H316  1.102 .      S
C284  H317  1.074 .      S
C285  H318  1.081 .      S
C286  H319  1.081 .      S
C287  H320  1.070 .      S
N96   Zn7   2.116 1_545  S
C289  N97   1.459 .      S
C289  H321  1.108 .      S
C289  H322  1.104 .      S
C289  H323  1.109 .      S
N97   C290  1.435 1_455  S
N97   H324  1.036 1_455  S
C290  N97   1.435 1_655  S
C290  C291  1.486 .      S
C290  H325  1.107 .      S
C290  H326  1.100 1_655  S
C293  H327  1.054 .      S
C294  H328  1.081 .      S
C295  H329  1.081 .      S
C296  H330  1.078 .      S
H324  N97   1.036 1_655  S
H326  C290  1.100 1_455  S
C298  N100  1.429 .      S
C298  H331  1.102 .      S
C298  H332  1.091 .      S
C298  H333  1.092 .      S
N100  C299  1.435 .      S
N100  H334  1.031 .      S
C299  C300  1.470 .      S
C299  H335  1.084 .      S
C299  H336  1.090 .      S
C302  H337  1.068 .      S
C303  H338  1.075 .      S
C304  H339  1.081 .      S
C305  H340  1.058 .      S
C307  N103  1.434 .      S
C307  H341  1.108 .      S
C307  H342  1.105 .      S
C307  H343  1.103 .      S
N103  C308  1.448 .      S
N103  H344  1.031 .      S
C308  C309  1.480 .      S
C308  H345  1.101 .      S
C308  H346  1.102 .      S
C311  H347  1.053 .      S
C312  H348  1.070 .      S
C313  H349  1.074 .      S
C314  H350  1.054 1_565  S
N105  Zn6   2.160 1_565  S
H350  C314  1.054 1_545  S
C316  N106  1.454 .      S
C316  H351  1.108 .      S
C316  H352  1.108 .      S
C316  H353  1.109 .      S
N106  C317  1.447 .      S
N106  H354  1.044 .      S
C317  C318  1.499 .      S
C317  H355  1.108 .      S
C317  H356  1.097 .      S
C320  H357  1.077 .      S
C321  H358  1.081 .      S
C322  H359  1.081 .      S
C323  H360  1.060 .      S
C325  N109  1.455 .      S
C325  H361  1.108 .      S
C325  H362  1.100 .      S
C325  H363  1.108 .      S
N109  C326  1.463 .      S
N109  H364  1.038 .      S
C326  C327  1.459 .      S
C326  H365  1.101 .      S
C326  H366  1.102 .      S
C329  H367  1.068 1_455  S
C330  H368  1.073 .      S
C331  H369  1.077 .      S
C332  H370  1.059 .      S
H367  C329  1.068 1_655  S
C334  N112  1.462 .      S
C334  H371  1.102 .      S
C334  H372  1.100 .      S
C334  H373  1.103 .      S
N112  C335  1.430 .      S
N112  H374  1.039 .      S
C335  C336  1.469 .      S
C335  H375  1.094 .      S
C335  H376  1.094 .      S
C338  H377  1.069 .      S
C339  H378  1.081 .      S
C340  H379  1.081 .      S
C341  H380  1.074 .      S
C343  N115  1.454 1_455  S
C343  H381  1.108 .      S
C343  H382  1.109 .      S
C343  H383  1.107 .      S
N115  C343  1.454 1_655  S
N115  C344  1.456 .      S
N115  H384  1.044 .      S
C344  C345  1.501 .      S
C344  H385  1.098 1_655  S
C344  H386  1.105 .      S
C347  H387  1.068 .      S
C348  H388  1.081 .      S
C349  H389  1.081 .      S
C350  H390  1.056 .      S
H385  C344  1.098 1_455  S
C352  N118  1.432 .      S
C352  H391  1.084 .      S
C352  H392  1.108 .      S
C352  H393  1.089 1_455  S
N118  C353  1.440 .      S
N118  H394  1.032 .      S
C353  C354  1.457 .      S
C353  H395  1.098 1_455  S
C353  H396  1.083 1_455  S
C356  H397  1.077 .      S
C357  H398  1.081 .      S
C358  H399  1.081 .      S
C359  H400  1.080 .      S
H393  C352  1.089 1_655  S
H395  C353  1.098 1_655  S
H396  C353  1.083 1_655  S
C361  N121  1.453 .      S
C361  H401  1.108 .      S
C361  H402  1.109 .      S
C361  H403  1.109 1_554  S
N121  C362  1.449 1_554  S
N121  H404  1.044 .      S
C362  N121  1.449 1_556  S
C362  C363  1.494 .      S
C362  H405  1.107 .      S
C362  H406  1.108 .      S
N122  Zn28  2.083 1_455  S
C365  H407  1.065 .      S
C366  H408  1.081 .      S
C367  H409  1.081 .      S
C368  H410  1.071 .      S
H403  C361  1.109 1_556  S
C370  N124  1.428 .      S
C370  H411  1.104 .      S
C370  H412  1.098 .      S
C370  H413  1.098 .      S
N124  C371  1.431 .      S
N124  H414  1.042 .      S
C371  C372  1.434 .      S
C371  H415  1.070 .      S
C371  H416  1.108 .      S
C374  H417  1.058 .      S
C375  H418  1.067 .      S
C376  H419  1.076 1_455  S
C377  H420  1.061 .      S
H419  C376  1.076 1_655  S
C379  N127  1.453 .      S
C379  H421  1.109 .      S
C379  H422  1.110 .      S
C379  H423  1.109 .      S
N127  C380  1.449 .      S
N127  H424  1.044 .      S
C380  C381  1.494 .      S
C380  H425  1.105 .      S
C380  H426  1.103 .      S
C383  H427  1.075 .      S
C384  H428  1.081 .      S
C385  H429  1.081 .      S
C386  H430  1.077 .      S
C388  N130  1.452 .      S
C388  H431  1.109 .      S
C388  H432  1.104 .      S
C388  H433  1.107 .      S
N130  C389  1.458 .      S
N130  H434  1.039 .      S
C389  C390  1.446 .      S
C389  H435  1.091 .      S
C389  H436  1.103 .      S
C392  H437  1.067 .      S
C393  H438  1.075 .      S
C394  H439  1.063 .      S
C395  H440  1.067 1_455  S
N132  Zn3   2.139 1_455  S
H440  C395  1.067 1_655  S
C397  N133  1.452 .      S
C397  H441  1.109 .      S
C397  H442  1.105 .      S
C397  H443  1.109 .      S
N133  C398  1.453 .      S
N133  H444  1.042 .      S
C398  C399  1.476 .      S
C398  H445  1.107 .      S
C398  H446  1.098 .      S
C401  H447  1.080 .      S
C402  H448  1.069 .      S
C403  H449  1.081 .      S
C404  H450  1.068 1_455  S
H450  C404  1.068 1_655  S
C406  N136  1.446 .      S
C406  H451  1.103 .      S
C406  H452  1.089 .      S
C406  H453  1.099 .      S
N136  C407  1.442 .      S
N136  H454  1.037 .      S
C407  C408  1.465 .      S
C407  H455  1.097 .      S
C407  H456  1.084 .      S
C410  H457  1.077 .      S
C411  H458  1.074 .      S
C412  H459  1.073 .      S
C413  H460  1.065 .      S
C415  N139  1.421 .      S
C415  H461  1.104 .      S
C415  H462  1.104 .      S
C415  H463  1.079 .      S
N139  C416  1.431 .      S
N139  H464  1.036 .      S
C416  C417  1.453 .      S
C416  H465  1.106 .      S
C416  H466  1.099 .      S
N140  Zn4   2.089 1_655  S
C419  H467  1.076 .      S
C420  H468  1.081 .      S
C421  H469  1.081 1_556  S
C422  H470  1.081 .      S
H469  C421  1.081 1_554  S
C424  N142  1.454 .      S
C424  H471  1.109 .      S
C424  H472  1.104 .      S
C424  H473  1.103 .      S
N142  C425  1.454 .      S
N142  H474  1.043 .      S
C425  C426  1.474 1_545  S
C425  H475  1.099 .      S
C425  H476  1.098 .      S
C426  C425  1.474 1_565  S
C428  H477  1.077 .      S
C429  H478  1.080 .      S
C430  H479  1.079 .      S
C431  H480  1.052 .      S
C433  N145  1.454 .      S
C433  H481  1.108 .      S
C433  H482  1.109 .      S
C433  H483  1.108 .      S
N145  C434  1.450 1_455  S
N145  H484  1.039 .      S
C434  N145  1.450 1_655  S
C434  C435  1.491 .      S
C434  H485  1.100 1_655  S
C434  H486  1.108 .      S
C437  H487  1.064 .      S
C438  H488  1.081 .      S
C439  H489  1.081 .      S
C440  H490  1.068 .      S
H485  C434  1.100 1_455  S
C442  N148  1.451 1_455  S
C442  H491  1.086 .      S
C442  H492  1.089 .      S
C442  H493  1.108 .      S
N148  C442  1.451 1_655  S
N148  C443  1.461 .      S
N148  H494  1.020 .      S
C443  C444  1.500 .      S
C443  H495  1.102 .      S
C443  H496  1.084 .      S
C446  H497  1.062 .      S
C447  H498  1.081 .      S
C448  H499  1.079 .      S
C449  H500  1.063 .      S
C451  N151  1.451 .      S
C451  H501  1.098 .      S
C451  H502  1.104 .      S
C451  H503  1.108 .      S
N151  C452  1.447 .      S
N151  H504  1.034 .      S
C452  C453  1.469 .      S
C452  H505  1.096 .      S
C452  H506  1.086 .      S
C455  H507  1.072 .      S
C456  H508  1.081 .      S
C457  H509  1.081 .      S
C458  H510  1.065 .      S
C460  N154  1.418 .      S
C460  H511  1.101 .      S
C460  H512  1.070 1_455  S
C460  H513  1.074 .      S
N154  C461  1.419 .      S
N154  H514  1.035 .      S
C461  C462  1.439 .      S
C461  H515  1.100 .      S
C461  H516  1.104 .      S
C464  H517  1.073 .      S
C465  H518  1.081 .      S
C466  H519  1.081 .      S
C467  H520  1.081 .      S
N156  Zn26  2.019 1_565  S
H512  C460  1.070 1_655  S
C469  N157  1.455 .      S
C469  H521  1.108 .      S
C469  H522  1.107 .      S
C469  H523  1.105 .      S
N157  C470  1.449 .      S
N157  H524  1.039 .      S
C470  C471  1.481 .      S
C470  H525  1.087 .      S
C470  H526  1.100 .      S
N158  Zn26  2.110 1_565  S
C473  H527  1.057 .      S
C474  H528  1.074 .      S
C475  H529  1.066 .      S
C476  H530  1.069 1_455  S
H530  C476  1.069 1_655  S
C478  N160  1.443 .      S
C478  H531  1.084 .      S
C478  H532  1.105 1_455  S
C478  H533  1.105 .      S
N160  C479  1.424 .      S
N160  H534  1.031 .      S
C479  C480  1.465 .      S
C479  H535  1.093 .      S
C479  H536  1.088 .      S
C482  H537  1.070 .      S
C483  H538  1.081 .      S
C484  H539  1.081 .      S
C485  H540  1.075 1_545  S
H532  C478  1.105 1_655  S
H540  C485  1.075 1_565  S
C487  N163  1.453 1_565  S
C487  H541  1.100 .      S
C487  H542  1.100 .      S
C487  H543  1.100 1_655  S
N163  C487  1.453 1_545  S
N163  C488  1.433 .      S
N163  H544  1.034 .      S
C488  C489  1.438 1_655  S
C488  H545  1.091 1_655  S
C488  H546  1.100 .      S
C489  C488  1.438 1_455  S
N164  Zn8   2.207 1_455  S
C491  H547  1.054 .      S
C492  H548  1.079 .      S
C493  H549  1.081 .      S
C494  H550  1.072 .      S
N165  Zn27  2.178 1_545  S
H543  C487  1.100 1_455  S
H545  C488  1.091 1_455  S
C496  N166  1.422 .      S
C496  H551  1.100 .      S
C496  H552  1.078 .      S
C496  H553  1.095 .      S
N166  C497  1.427 .      S
N166  H554  1.023 .      S
C497  C498  1.458 .      S
C497  H555  1.095 .      S
C497  H556  1.098 .      S
C500  H557  1.072 .      S
C501  H558  1.080 .      S
C502  H559  1.081 .      S
C503  H560  1.077 .      S
N168  Zn28  2.120 1_455  S
C3    N2    1.380 1_556  A
C3    N3    1.374 .      A
N2    C3    1.380 1_554  A
N2    C4    1.347 1_455  A
C4    N2    1.347 1_655  A
C4    C5    1.367 1_565  A
C4    C9    1.336 1_554  A
C5    C4    1.367 1_545  A
C5    C6    1.378 .      A
C6    C7    1.379 .      A
C7    C8    1.380 1_545  A
C8    C7    1.380 1_565  A
C8    C9    1.376 1_554  A
C9    C4    1.336 1_556  A
C9    C8    1.376 1_556  A
C9    N3    1.348 1_655  A
N3    C9    1.348 1_455  A
C12   N5    1.392 .      A
C12   N6    1.400 .      A
N5    C13   1.336 .      A
C13   C14   1.364 .      A
C13   C18   1.352 .      A
C14   C15   1.372 .      A
C15   C16   1.378 .      A
C16   C17   1.382 .      A
C17   C18   1.366 .      A
C18   N6    1.362 .      A
C21   N8    1.412 .      A
C21   N9    1.420 .      A
N8    C22   1.350 .      A
C22   C23   1.374 .      A
C22   C27   1.384 .      A
C23   C24   1.385 .      A
C24   C25   1.391 .      A
C25   C26   1.385 .      A
C26   C27   1.372 .      A
C27   N9    1.353 .      A
C30   N11   1.385 .      A
C30   N12   1.376 .      A
N11   C31   1.342 .      A
C31   C32   1.375 .      A
C31   C36   1.356 .      A
C32   C33   1.379 .      A
C33   C34   1.386 .      A
C34   C35   1.383 .      A
C35   C36   1.352 .      A
C36   N12   1.348 .      A
C39   N14   1.401 .      A
C39   N15   1.398 .      A
N14   C40   1.351 .      A
C40   C41   1.368 .      A
C40   C45   1.371 .      A
C41   C42   1.388 .      A
C42   C43   1.390 .      A
C43   C44   1.383 .      A
C44   C45   1.373 .      A
C45   N15   1.344 .      A
C48   N17   1.386 .      A
C48   N18   1.388 .      A
N17   C49   1.331 .      A
C49   C50   1.364 .      A
C49   C54   1.363 .      A
C50   C51   1.366 .      A
C51   C52   1.373 .      A
C52   C53   1.387 .      A
C53   C54   1.358 .      A
C54   N18   1.359 .      A
C57   N20   1.389 .      A
C57   N21   1.389 .      A
N20   C58   1.356 .      A
C58   C59   1.362 .      A
C58   C63   1.361 .      A
C59   C60   1.382 .      A
C60   C61   1.385 .      A
C61   C62   1.379 .      A
C62   C63   1.374 .      A
C63   N21   1.339 .      A
C66   N23   1.383 .      A
C66   N24   1.379 .      A
N23   C67   1.350 .      A
C67   C68   1.369 1_554  A
C67   C72   1.365 .      A
C68   C67   1.369 1_556  A
C68   C69   1.386 .      A
C69   C70   1.391 .      A
C70   C71   1.385 .      A
C71   C72   1.372 1_556  A
C72   C71   1.372 1_554  A
C72   N24   1.342 .      A
C75   N26   1.413 1_556  A
C75   N27   1.407 .      A
N26   C75   1.413 1_554  A
N26   C76   1.355 1_554  A
C76   N26   1.355 1_556  A
C76   C77   1.371 1_556  A
C76   C81   1.379 .      A
C77   C76   1.371 1_554  A
C77   C78   1.384 .      A
C78   C79   1.388 1_554  A
C79   C78   1.388 1_556  A
C79   C80   1.382 .      A
C80   C81   1.371 .      A
C81   N27   1.347 .      A
C84   N29   1.401 .      A
C84   N30   1.375 .      A
N29   C85   1.342 .      A
C85   C86   1.356 1_565  A
C85   C90   1.348 .      A
C86   C85   1.356 1_545  A
C86   C87   1.382 .      A
C87   C88   1.379 1_545  A
C88   C87   1.379 1_565  A
C88   C89   1.377 .      A
C89   C90   1.355 .      A
C90   N30   1.345 .      A
C93   N32   1.388 .      A
C93   N33   1.396 .      A
N32   C94   1.349 .      A
C94   C95   1.362 .      A
C94   C99   1.358 .      A
C95   C96   1.381 .      A
C96   C97   1.384 .      A
C97   C98   1.380 .      A
C98   C99   1.374 .      A
C99   N33   1.342 .      A
C102  N35   1.415 .      A
C102  N36   1.389 .      A
N35   C103  1.348 .      A
C103  C104  1.371 .      A
C103  C108  1.369 .      A
C104  C105  1.382 .      A
C105  C106  1.390 .      A
C106  C107  1.383 .      A
C107  C108  1.367 .      A
C108  N36   1.344 .      A
C111  N38   1.391 .      A
C111  N39   1.405 .      A
N38   C112  1.315 .      A
C112  C113  1.343 .      A
C112  C117  1.346 .      A
C113  C114  1.356 .      A
C114  C115  1.358 .      A
C115  C116  1.391 .      A
C116  C117  1.334 .      A
C117  N39   1.345 .      A
C120  N41   1.371 .      A
C120  N42   1.381 .      A
N41   C121  1.353 .      A
C121  C122  1.376 .      A
C121  C126  1.370 .      A
C122  C123  1.385 .      A
C123  C124  1.390 .      A
C124  C125  1.383 .      A
C125  C126  1.370 .      A
C126  N42   1.347 .      A
C129  N44   1.408 .      A
C129  N45   1.366 .      A
N44   C130  1.369 .      A
C130  C131  1.382 .      A
C130  C135  1.362 .      A
C131  C132  1.383 .      A
C132  C133  1.381 .      A
C133  C134  1.377 .      A
C134  C135  1.373 .      A
C135  N45   1.336 .      A
C138  N47   1.374 .      A
C138  N48   1.391 1_565  A
N47   C139  1.345 1_565  A
C139  N47   1.345 1_545  A
C139  C140  1.375 .      A
C139  C144  1.363 .      A
C140  C141  1.381 .      A
C141  C142  1.384 .      A
C142  C143  1.381 .      A
C143  C144  1.362 .      A
C144  N48   1.348 .      A
N48   C138  1.391 1_545  A
C147  N50   1.375 .      A
C147  N51   1.382 .      A
N50   C148  1.355 1_565  A
C148  N50   1.355 1_545  A
C148  C149  1.373 .      A
C148  C153  1.365 .      A
C149  C150  1.386 .      A
C150  C151  1.390 .      A
C151  C152  1.383 .      A
C152  C153  1.372 .      A
C153  N51   1.342 1_545  A
N51   C153  1.342 1_565  A
C156  N53   1.386 .      A
C156  N54   1.384 1_556  A
N53   C157  1.350 .      A
C157  C158  1.374 .      A
C157  C162  1.358 .      A
C158  C159  1.381 .      A
C159  C160  1.384 .      A
C160  C161  1.380 .      A
C161  C162  1.370 .      A
C162  N54   1.347 1_556  A
N54   C156  1.384 1_554  A
N54   C162  1.347 1_554  A
C165  N56   1.388 .      A
C165  N57   1.397 .      A
N56   C166  1.362 .      A
C166  C167  1.373 .      A
C166  C171  1.369 .      A
C167  C168  1.386 .      A
C168  C169  1.386 .      A
C169  C170  1.379 .      A
C170  C171  1.371 .      A
C171  N57   1.338 .      A
C174  N59   1.378 .      A
C174  N60   1.361 .      A
N59   C175  1.350 .      A
C175  C176  1.373 .      A
C175  C180  1.371 .      A
C176  C177  1.381 .      A
C177  C178  1.385 .      A
C178  C179  1.380 .      A
C179  C180  1.377 .      A
C180  N60   1.353 .      A
C183  N62   1.372 .      A
C183  N63   1.394 .      A
N62   C184  1.343 .      A
C184  C185  1.370 .      A
C184  C189  1.369 .      A
C185  C186  1.384 1_556  A
C186  C185  1.384 1_554  A
C186  C187  1.392 .      A
C187  C188  1.385 1_554  A
C188  C187  1.385 1_556  A
C188  C189  1.370 .      A
C189  N63   1.349 .      A
C192  N65   1.380 .      A
C192  N66   1.392 .      A
N65   C193  1.324 .      A
C193  C194  1.348 .      A
C193  C198  1.335 .      A
C194  C195  1.365 1_455  A
C195  C194  1.365 1_655  A
C195  C196  1.363 .      A
C196  C197  1.372 1_655  A
C197  C196  1.372 1_455  A
C197  C198  1.338 .      A
C198  N66   1.335 .      A
C201  N68   1.386 .      A
C201  N69   1.392 .      A
N68   C202  1.342 .      A
C202  C203  1.364 .      A
C202  C207  1.355 .      A
C203  C204  1.382 1_554  A
C204  C203  1.382 1_556  A
C204  C205  1.385 1_556  A
C205  C204  1.385 1_554  A
C205  C206  1.382 .      A
C206  C207  1.368 .      A
C207  N69   1.346 .      A
C210  N71   1.406 .      A
C210  N72   1.389 1_455  A
N71   C211  1.342 .      A
C211  C212  1.372 .      A
C211  C216  1.362 .      A
C212  C213  1.382 .      A
C213  C214  1.386 .      A
C214  C215  1.383 1_455  A
C215  C214  1.383 1_655  A
C215  C216  1.368 1_655  A
C216  C215  1.368 1_455  A
C216  N72   1.349 1_455  A
N72   C210  1.389 1_655  A
N72   C216  1.349 1_655  A
C219  N74   1.395 .      A
C219  N75   1.392 .      A
N74   C220  1.349 .      A
C220  C221  1.372 .      A
C220  C225  1.366 .      A
C221  C222  1.385 .      A
C222  C223  1.390 .      A
C223  C224  1.383 .      A
C224  C225  1.366 .      A
C225  N75   1.343 .      A
C228  N77   1.398 .      A
C228  N78   1.398 .      A
N77   C229  1.331 .      A
C229  C230  1.354 .      A
C229  C234  1.360 .      A
C230  C231  1.369 .      A
C231  C232  1.375 .      A
C232  C233  1.385 .      A
C233  C234  1.359 .      A
C234  N78   1.350 .      A
C237  N80   1.407 .      A
C237  N81   1.411 .      A
N80   C238  1.346 .      A
C238  C239  1.372 .      A
C238  C243  1.378 .      A
C239  C240  1.384 .      A
C240  C241  1.390 .      A
C241  C242  1.384 .      A
C242  C243  1.370 .      A
C243  N81   1.354 .      A
C246  N83   1.390 .      A
C246  N84   1.401 .      A
N83   C247  1.348 .      A
C247  C248  1.369 .      A
C247  C252  1.356 .      A
C248  C249  1.384 .      A
C249  C250  1.385 .      A
C250  C251  1.381 .      A
C251  C252  1.367 .      A
C252  N84   1.341 .      A
C255  N86   1.386 .      A
C255  N87   1.378 .      A
N86   C256  1.345 .      A
C256  C257  1.369 .      A
C256  C261  1.365 .      A
C257  C258  1.382 .      A
C258  C259  1.388 .      A
C259  C260  1.384 .      A
C260  C261  1.373 .      A
C261  N87   1.351 .      A
C264  N89   1.384 .      A
C264  N90   1.393 .      A
N89   C265  1.331 .      A
C265  C266  1.361 .      A
C265  C270  1.363 .      A
C266  C267  1.368 .      A
C267  C268  1.374 .      A
C268  C269  1.382 .      A
C269  C270  1.363 .      A
C270  N90   1.354 .      A
C273  N92   1.390 1_655  A
C273  N93   1.385 .      A
N92   C273  1.390 1_455  A
N92   C274  1.324 .      A
C274  C275  1.352 .      A
C274  C279  1.326 .      A
C275  C276  1.353 .      A
C276  C277  1.358 .      A
C277  C278  1.365 .      A
C278  C279  1.326 .      A
C279  N93   1.329 1_455  A
N93   C279  1.329 1_655  A
C282  N95   1.375 .      A
C282  N96   1.385 .      A
N95   C283  1.342 .      A
C283  C284  1.371 .      A
C283  C288  1.368 .      A
C284  C285  1.381 .      A
C285  C286  1.387 .      A
C286  C287  1.385 .      A
C287  C288  1.372 .      A
C288  N96   1.355 .      A
C291  N98   1.388 .      A
C291  N99   1.411 .      A
N98   C292  1.349 .      A
C292  C293  1.356 .      A
C292  C297  1.353 .      A
C293  C294  1.382 .      A
C294  C295  1.383 .      A
C295  C296  1.382 .      A
C296  C297  1.361 .      A
C297  N99   1.333 .      A
C300  N101  1.385 .      A
C300  N102  1.385 .      A
N101  C301  1.349 .      A
C301  C302  1.374 .      A
C301  C306  1.365 .      A
C302  C303  1.381 .      A
C303  C304  1.383 .      A
C304  C305  1.378 .      A
C305  C306  1.360 .      A
C306  N102  1.345 .      A
C309  N104  1.398 .      A
C309  N105  1.395 .      A
N104  C310  1.347 .      A
C310  C311  1.361 .      A
C310  C315  1.353 .      A
C311  C312  1.380 .      A
C312  C313  1.367 1_565  A
C313  C312  1.367 1_545  A
C313  C314  1.365 1_545  A
C314  C313  1.365 1_565  A
C314  C315  1.335 .      A
C315  N105  1.330 .      A
C318  N107  1.413 .      A
C318  N108  1.386 .      A
N107  C319  1.342 .      A
C319  C320  1.369 .      A
C319  C324  1.367 .      A
C320  C321  1.382 .      A
C321  C322  1.386 .      A
C322  C323  1.383 .      A
C323  C324  1.366 .      A
C324  N108  1.350 .      A
C327  N110  1.387 1_455  A
C327  N111  1.395 .      A
N110  C327  1.387 1_655  A
N110  C328  1.349 1_655  A
C328  N110  1.349 1_455  A
C328  C329  1.355 .      A
C328  C333  1.370 .      A
C329  C330  1.374 .      A
C330  C331  1.380 .      A
C331  C332  1.377 .      A
C332  C333  1.352 .      A
C333  N111  1.329 .      A
C336  N113  1.406 .      A
C336  N114  1.385 .      A
N113  C337  1.354 .      A
C337  C338  1.372 .      A
C337  C342  1.375 .      A
C338  C339  1.384 .      A
C339  C340  1.388 .      A
C340  C341  1.383 .      A
C341  C342  1.371 .      A
C342  N114  1.346 .      A
C345  N116  1.411 .      A
C345  N117  1.388 .      A
N116  C346  1.354 .      A
C346  C347  1.376 .      A
C346  C351  1.365 .      A
C347  C348  1.382 .      A
C348  C349  1.383 .      A
C349  C350  1.379 .      A
C350  C351  1.364 .      A
C351  N117  1.342 .      A
C354  N119  1.395 .      A
C354  N120  1.378 .      A
N119  C355  1.349 .      A
C355  C356  1.369 .      A
C355  C360  1.372 .      A
C356  C357  1.384 .      A
C357  C358  1.390 .      A
C358  C359  1.384 .      A
C359  C360  1.374 .      A
C360  N120  1.354 .      A
C363  N122  1.384 1_656  A
C363  N123  1.391 1_655  A
N122  C363  1.384 1_454  A
N122  C364  1.349 .      A
C364  C365  1.373 .      A
C364  C369  1.362 1_554  A
C365  C366  1.381 .      A
C366  C367  1.383 1_554  A
C367  C366  1.383 1_556  A
C367  C368  1.380 .      A
C368  C369  1.374 .      A
C369  C364  1.362 1_556  A
C369  N123  1.350 .      A
N123  C363  1.391 1_455  A
C372  N125  1.375 .      A
C372  N126  1.385 .      A
N125  C373  1.322 .      A
C373  C374  1.331 .      A
C373  C378  1.347 .      A
C374  C375  1.348 .      A
C375  C376  1.398 .      A
C376  C377  1.364 .      A
C377  C378  1.340 .      A
C378  N126  1.323 .      A
C381  N128  1.391 .      A
C381  N129  1.402 .      A
N128  C382  1.348 .      A
C382  C383  1.370 .      A
C382  C387  1.370 .      A
C383  C384  1.386 .      A
C384  C385  1.391 .      A
C385  C386  1.384 .      A
C386  C387  1.369 .      A
C387  N129  1.344 .      A
C390  N131  1.380 .      A
C390  N132  1.381 .      A
N131  C391  1.327 .      A
C391  C392  1.360 .      A
C391  C396  1.358 .      A
C392  C393  1.363 .      A
C393  C394  1.375 .      A
C394  C395  1.387 .      A
C395  C396  1.359 .      A
C396  N132  1.351 .      A
C399  N134  1.382 .      A
C399  N135  1.385 .      A
N134  C400  1.350 .      A
C400  C401  1.350 .      A
C400  C405  1.359 .      A
C401  C402  1.394 1_455  A
C402  C401  1.394 1_655  A
C402  C403  1.371 .      A
C403  C404  1.355 1_655  A
C404  C403  1.355 1_455  A
C404  C405  1.362 .      A
C405  N135  1.320 .      A
C408  N137  1.379 .      A
C408  N138  1.386 .      A
N137  C409  1.349 .      A
C409  C410  1.371 .      A
C409  C414  1.372 .      A
C410  C411  1.379 .      A
C411  C412  1.382 .      A
C412  C413  1.378 .      A
C413  C414  1.368 .      A
C414  N138  1.350 .      A
C417  N140  1.386 .      A
C417  N141  1.359 .      A
N140  C418  1.354 .      A
C418  C419  1.377 1_565  A
C418  C423  1.367 .      A
C419  C418  1.377 1_545  A
C419  C420  1.384 .      A
C420  C421  1.387 .      A
C421  C422  1.383 .      A
C422  C423  1.370 1_545  A
C423  C422  1.370 1_565  A
C423  N141  1.338 .      A
C426  N143  1.380 .      A
C426  N144  1.369 .      A
N143  C427  1.338 .      A
C427  C428  1.376 .      A
C427  C432  1.355 .      A
C428  C429  1.375 .      A
C429  C430  1.382 .      A
C430  C431  1.381 .      A
C431  C432  1.372 .      A
C432  N144  1.359 .      A
C435  N146  1.394 .      A
C435  N147  1.405 .      A
N146  C436  1.349 .      A
C436  C437  1.366 .      A
C436  C441  1.360 .      A
C437  C438  1.383 .      A
C438  C439  1.388 .      A
C439  C440  1.381 .      A
C440  C441  1.361 .      A
C441  N147  1.337 .      A
C444  N149  1.402 .      A
C444  N150  1.377 .      A
N149  C445  1.349 .      A
C445  C446  1.378 1_565  A
C445  C450  1.354 .      A
C446  C445  1.378 1_545  A
C446  C447  1.374 .      A
C447  C448  1.373 1_545  A
C448  C447  1.373 1_565  A
C448  C449  1.386 .      A
C449  C450  1.352 .      A
C450  N150  1.341 .      A
C453  N152  1.379 .      A
C453  N153  1.376 .      A
N152  C454  1.345 .      A
C454  C455  1.373 .      A
C454  C459  1.371 .      A
C455  C456  1.381 .      A
C456  C457  1.386 .      A
C457  C458  1.383 .      A
C458  C459  1.372 .      A
C459  N153  1.354 .      A
C462  N155  1.369 .      A
C462  N156  1.356 .      A
N155  C463  1.344 .      A
C463  C464  1.367 .      A
C463  C468  1.365 .      A
C464  C465  1.385 1_565  A
C465  C464  1.385 1_545  A
C465  C466  1.392 .      A
C466  C467  1.386 .      A
C467  C468  1.375 1_545  A
C468  C467  1.375 1_565  A
C468  N156  1.351 .      A
C471  N158  1.383 1_645  A
C471  N159  1.401 1_545  A
N158  C471  1.383 1_465  A
N158  C472  1.334 .      A
C472  C473  1.352 .      A
C472  C477  1.356 .      A
C473  C474  1.363 .      A
C474  C475  1.378 .      A
C475  C476  1.372 .      A
C476  C477  1.365 .      A
C477  N159  1.344 1_455  A
N159  C471  1.401 1_565  A
N159  C477  1.344 1_655  A
C480  N161  1.390 .      A
C480  N162  1.363 .      A
N161  C481  1.355 .      A
C481  C482  1.372 1_565  A
C481  C486  1.365 .      A
C482  C481  1.372 1_545  A
C482  C483  1.384 .      A
C483  C484  1.389 .      A
C484  C485  1.383 .      A
C485  C486  1.374 1_545  A
C486  C485  1.374 1_565  A
C486  N162  1.343 .      A
C489  N164  1.386 .      A
C489  N165  1.397 .      A
N164  C490  1.345 .      A
C490  C491  1.344 .      A
C490  C495  1.370 .      A
C491  C492  1.383 .      A
C492  C493  1.385 .      A
C493  C494  1.382 .      A
C494  C495  1.376 .      A
C495  N165  1.343 .      A
C498  N167  1.388 1_655  A
C498  N168  1.377 1_655  A
N167  C498  1.388 1_455  A
N167  C499  1.344 .      A
C499  C500  1.364 1_554  A
C499  C504  1.363 .      A
C500  C499  1.364 1_556  A
C500  C501  1.383 .      A
C501  C502  1.388 .      A
C502  C503  1.384 .      A
C503  C504  1.372 1_556  A
C504  C503  1.372 1_554  A
C504  N168  1.350 .      A
N168  C498  1.377 1_455  A
