data_str_m1_o12038_ATS
_audit_creation_date              2015-10-01T06:40:35-0700
_symmetry_space_group_name_H-M    P1
_symmetry_Int_Tables_number       1
_space_group_crystal_system       triclinic
loop_
_symmetry_equiv_pos_as_xyz
  x,y,z
_cell_length_a                    10.9519981
_cell_length_b                    25.7198391
_cell_length_c                    25.9336360
_cell_angle_alpha                 117.048849
_cell_angle_beta                  95.7899056
_cell_angle_gamma                 79.0644745
_cell_volume                      6387.01126203

loop_
_atom_site_label
_atom_site_type_symbol
_atom_site_description
_atom_site_fract_x
_atom_site_fract_y
_atom_site_fract_z
_atom_type_partial_charge
Zn1   Zn    Zn3+2 0.942547 0.156148 0.076520 0.000000
Zn2   Zn    Zn3+2 0.350374 0.983688 0.730228 0.000000
Zn3   Zn    Zn3+2 0.015405 0.579224 0.543688 0.000000
Zn4   Zn    Zn3+2 0.035192 0.530716 0.013739 0.000000
Zn5   Zn    Zn3+2 0.748818 0.714168 0.908403 0.000000
Zn6   Zn    Zn3+2 0.547632 0.415043 0.884003 0.000000
Zn7   Zn    Zn3+2 0.794476 0.144769 0.819813 0.000000
Zn8   Zn    Zn3+2 0.304751 0.564988 0.262315 0.000000
Zn9   Zn    Zn3+2 0.501568 0.990267 0.986501 0.000000
Zn10  Zn    Zn3+2 0.269901 0.602032 0.783084 0.000000
Zn11  Zn    Zn3+2 0.441160 0.701869 0.525808 0.000000
Zn12  Zn    Zn3+2 0.874803 0.441746 0.280439 0.000000
N1    N     N_2   0.951198 0.854816 0.206160 0.000000
C1    C     C_R   0.939332 0.803949 0.153832 0.000000
C2    C     C_R   0.946735 0.805071 0.101621 0.000000
C3    C     C_R   0.938235 0.754994 0.050298 0.000000
C4    C     C_R   0.912460 0.704835 0.051052 0.000000
C5    C     C_R   0.903161 0.704115 0.103423 0.000000
C6    C     C_R   0.918276 0.753237 0.154695 0.000000
C7    C     C_R   0.884349 0.653945 0.997635 0.000000
N2    N     N_R   0.804606 0.659208 0.953529 0.000000
C8    C     C_R   0.791339 0.602289 0.920570 0.000000
C9    C     C_R   0.718704 0.579803 0.871948 0.000000
C10   C     C_R   0.747335 0.521040 0.834275 0.000000
N3    N     N_2   0.687971 0.498118 0.779624 0.000000
C11   C     C_R   0.842017 0.486088 0.848391 0.000000
C12   C     C_R   0.889750 0.505791 0.904159 0.000000
C13   C     C_R   0.866935 0.565521 0.939120 0.000000
N4    N     N_R   0.930218 0.595386 0.987841 0.000000
H1    H     H_    0.997405 0.884146 0.202306 0.000000
H2    H     H_    0.976258 0.846170 0.241160 0.000000
H3    H     H_    0.961268 0.844854 0.100823 0.000000
H4    H     H_    0.939641 0.756852 0.009554 0.000000
H5    H     H_    0.881857 0.665207 0.104245 0.000000
H6    H     H_    0.910498 0.752378 0.195490 0.000000
H7    H     H_    0.640933 0.605798 0.863324 0.000000
H8    H     H_    0.700987 0.452734 0.758683 0.000000
H9    H     H_    0.597658 0.518481 0.780116 0.000000
H10   H     H_    0.885807 0.446278 0.814270 0.000000
H11   H     H_    0.970946 0.480186 0.913178 0.000000
N5    N     N_2   0.986209 0.301560 0.703811 0.000000
C14   C     C_R   0.945186 0.331178 0.761420 0.000000
C15   C     C_R   0.028737 0.341587 0.806246 0.000000
C16   C     C_R   0.990506 0.375476 0.862731 0.000000
C17   C     C_R   0.867381 0.399065 0.876306 0.000000
C18   C     C_R   0.782764 0.386195 0.830042 0.000000
C19   C     C_R   0.822965 0.354949 0.773211 0.000000
C20   C     C_R   0.822833 0.438901 0.937178 0.000000
N6    N     N_R   0.697229 0.446630 0.946571 0.000000
C21   C     C_R   0.686949 0.487683 0.003138 0.000000
C22   C     C_R   0.580551 0.516815 0.035590 0.000000
C23   C     C_R   0.590469 0.565274 0.088577 0.000000
N7    N     N_2   0.484941 0.595438 0.122993 0.000000
C24   C     C_R   0.703190 0.585121 0.107761 0.000000
C25   C     C_R   0.809399 0.553944 0.076736 0.000000
C26   C     C_R   0.798878 0.504906 0.025373 0.000000
N8    N     N_R   0.888765 0.476449 0.986323 0.000000
H12   H     H_    0.070552 0.274143 0.698322 0.000000
H13   H     H_    0.917726 0.284532 0.673738 0.000000
H14   H     H_    0.126108 0.325162 0.796759 0.000000
H15   H     H_    0.059091 0.385600 0.895408 0.000000
H16   H     H_    0.691146 0.410776 0.836677 0.000000
H17   H     H_    0.766626 0.358365 0.738198 0.000000
H18   H     H_    0.491378 0.502484 0.020655 0.000000
H19   H     H_    0.506074 0.626286 0.163685 0.000000
H20   H     H_    0.427691 0.567349 0.121494 0.000000
H21   H     H_    0.708217 0.625474 0.146817 0.000000
H22   H     H_    0.897532 0.569081 0.091498 0.000000
N9    N     N_2   0.174573 0.700840 0.961247 0.000000
C27   C     C_R   0.232587 0.646306 0.958797 0.000000
C28   C     C_R   0.280123 0.643193 0.008630 0.000000
C29   C     C_R   0.312584 0.589194 0.008341 0.000000
C30   C     C_R   0.314522 0.539598 0.956638 0.000000
C31   C     C_R   0.290701 0.543116 0.906087 0.000000
C32   C     C_R   0.239023 0.596029 0.907171 0.000000
C33   C     C_R   0.303158 0.484801 0.954828 0.000000
N10   N     N_R   0.197384 0.477770 0.973415 0.000000
C34   C     C_R   0.223288 0.420678 0.962185 0.000000
C35   C     C_R   0.157236 0.391178 0.978542 0.000000
C36   C     C_R   0.184484 0.330289 0.950659 0.000000
N11   N     N_2   0.107655 0.298017 0.959945 0.000000
C37   C     C_R   0.279488 0.301554 0.910686 0.000000
C38   C     C_R   0.357569 0.333140 0.902496 0.000000
C39   C     C_R   0.328296 0.393398 0.930488 0.000000
N12   N     N_R   0.384269 0.433205 0.926196 0.000000
H23   H     H_    0.143047 0.730483 0.001846 0.000000
H24   H     H_    0.116678 0.698553 0.926822 0.000000
H25   H     H_    0.284358 0.682336 0.048502 0.000000
H26   H     H_    0.329274 0.585829 0.048419 0.000000
H27   H     H_    0.281180 0.502969 0.868225 0.000000
H28   H     H_    0.208755 0.598624 0.867418 0.000000
H29   H     H_    0.075357 0.414239 0.004614 0.000000
H30   H     H_    0.068200 0.269867 0.922262 0.000000
H31   H     H_    0.045239 0.327265 0.990684 0.000000
H32   H     H_    0.294147 0.254323 0.885987 0.000000
H33   H     H_    0.432935 0.310853 0.872376 0.000000
N13   N     N_2   0.008178 0.334993 0.099498 0.000000
C40   C     C_R   0.050492 0.386884 0.108797 0.000000
C41   C     C_R   0.156174 0.382962 0.082050 0.000000
C42   C     C_R   0.199224 0.433557 0.092098 0.000000
C43   C     C_R   0.132910 0.487324 0.127685 0.000000
C44   C     C_R   0.026142 0.491055 0.152506 0.000000
C45   C     C_R   0.993067 0.441034 0.148834 0.000000
C46   C     C_R   0.167160 0.541667 0.136592 0.000000
N14   N     N_R   0.119954 0.567770 0.100623 0.000000
C47   C     C_R   0.169202 0.618586 0.126980 0.000000
C48   C     C_R   0.159175 0.662966 0.110414 0.000000
C49   C     C_R   0.213758 0.712558 0.146358 0.000000
N15   N     N_2   0.192889 0.763032 0.136388 0.000000
C50   C     C_R   0.288243 0.713592 0.193318 0.000000
C51   C     C_R   0.303608 0.667089 0.207351 0.000000
C52   C     C_R   0.238538 0.621940 0.175600 0.000000
N16   N     N_R   0.237914 0.574566 0.184494 0.000000
H34   H     H_    0.075661 0.298439 0.084565 0.000000
H35   H     H_    0.954874 0.339069 0.131821 0.000000
H36   H     H_    0.206038 0.340268 0.054676 0.000000
H37   H     H_    0.282515 0.431176 0.071507 0.000000
H38   H     H_    0.967494 0.533434 0.172258 0.000000
H39   H     H_    0.912940 0.444353 0.171773 0.000000
H40   H     H_    0.110131 0.659212 0.071137 0.000000
H41   H     H_    0.262021 0.788722 0.152219 0.000000
H42   H     H_    0.154893 0.757175 0.096778 0.000000
H43   H     H_    0.333809 0.751350 0.219468 0.000000
H44   H     H_    0.364278 0.666241 0.242502 0.000000
N17   N     N_2   0.284506 0.790206 0.756836 0.000000
C53   C     C_R   0.377112 0.806612 0.800064 0.000000
C54   C     C_R   0.355868 0.860535 0.847226 0.000000
C55   C     C_R   0.437495 0.875220 0.892417 0.000000
C56   C     C_R   0.547394 0.838402 0.889157 0.000000
C57   C     C_R   0.574519 0.785675 0.840684 0.000000
C58   C     C_R   0.486195 0.768282 0.796819 0.000000
C59   C     C_R   0.617588 0.851710 0.942284 0.000000
N18   N     N_R   0.583012 0.905920 0.989450 0.000000
C60   C     C_R   0.622757 0.892012 0.033996 0.000000
C61   C     C_R   0.585629 0.921001 0.091037 0.000000
C62   C     C_R   0.626955 0.895025 0.127602 0.000000
N19   N     N_2   0.589493 0.924122 0.185799 0.000000
C63   C     C_R   0.692698 0.837956 0.106018 0.000000
C64   C     C_R   0.714578 0.806145 0.047498 0.000000
C65   C     C_R   0.684678 0.834597 0.013310 0.000000
N20   N     N_R   0.684952 0.807555 0.955411 0.000000
H45   H     H_    0.235578 0.824238 0.748913 0.000000
H46   H     H_    0.308955 0.750247 0.722526 0.000000
H47   H     H_    0.270025 0.889470 0.852267 0.000000
H48   H     H_    0.408504 0.913524 0.931960 0.000000
H49   H     H_    0.664711 0.758910 0.837275 0.000000
H50   H     H_    0.504182 0.725680 0.759548 0.000000
H51   H     H_    0.512169 0.957719 0.106324 0.000000
H52   H     H_    0.592380 0.896294 0.204647 0.000000
H53   H     H_    0.511245 0.955787 0.193701 0.000000
H54   H     H_    0.712508 0.815890 0.133520 0.000000
H55   H     H_    0.730342 0.758597 0.027612 0.000000
N21   N     N_2   0.273053 0.836793 0.076295 0.000000
C66   C     C_R   0.320359 0.813658 0.020054 0.000000
C67   C     C_R   0.245010 0.791171 0.971740 0.000000
C68   C     C_R   0.297370 0.753912 0.918739 0.000000
C69   C     C_R   0.422865 0.739570 0.911530 0.000000
C70   C     C_R   0.497418 0.762807 0.959828 0.000000
C71   C     C_R   0.446403 0.801217 0.013424 0.000000
C72   C     C_R   0.477270 0.694279 0.855198 0.000000
N22   N     N_R   0.604036 0.684787 0.847803 0.000000
C73   C     C_R   0.617576 0.641454 0.793018 0.000000
C74   C     C_R   0.725198 0.612171 0.762958 0.000000
C75   C     C_R   0.717569 0.560808 0.711981 0.000000
N23   N     N_2   0.820137 0.532424 0.675644 0.000000
C76   C     C_R   0.608346 0.537279 0.695590 0.000000
C77   C     C_R   0.500661 0.569413 0.724491 0.000000
C78   C     C_R   0.507036 0.622706 0.770982 0.000000
N24   N     N_R   0.414360 0.654275 0.807819 0.000000
H56   H     H_    0.179153 0.839304 0.079884 0.000000
H57   H     H_    0.319898 0.867401 0.108927 0.000000
H58   H     H_    0.144947 0.799034 0.975155 0.000000
H59   H     H_    0.242409 0.728436 0.884620 0.000000
H60   H     H_    0.589360 0.739462 0.958605 0.000000
H61   H     H_    0.501319 0.812764 0.052437 0.000000
H62   H     H_    0.811747 0.628688 0.778039 0.000000
H63   H     H_    0.797163 0.499605 0.636551 0.000000
H64   H     H_    0.865737 0.562621 0.673193 0.000000
H65   H     H_    0.606289 0.494285 0.659219 0.000000
H66   H     H_    0.415689 0.551577 0.713869 0.000000
N25   N     N_2   0.121027 0.432233 0.834962 0.000000
C79   C     C_R   0.070218 0.487694 0.837786 0.000000
C80   C     C_R   0.068311 0.538505 0.888990 0.000000
C81   C     C_R   0.014730 0.591068 0.890426 0.000000
C82   C     C_R   0.986235 0.593873 0.839901 0.000000
C83   C     C_R   0.987437 0.544451 0.788658 0.000000
C84   C     C_R   0.021344 0.490761 0.788409 0.000000
C85   C     C_R   0.995119 0.647566 0.839846 0.000000
N26   N     N_R   0.909472 0.697880 0.866019 0.000000
C86   C     C_R   0.961458 0.737758 0.860385 0.000000
C87   C     C_R   0.942886 0.797020 0.895586 0.000000
C88   C     C_R   0.022846 0.828526 0.888936 0.000000
N27   N     N_2   0.030677 0.885852 0.931428 0.000000
C89   C     C_R   0.105517 0.802256 0.843709 0.000000
C90   C     C_R   0.129721 0.741909 0.811828 0.000000
C91   C     C_R   0.065774 0.710980 0.827593 0.000000
N28   N     N_R   0.099151 0.654903 0.819955 0.000000
H67   H     H_    0.181245 0.433719 0.868423 0.000000
H68   H     H_    0.153166 0.403745 0.794152 0.000000
H69   H     H_    0.098460 0.536873 0.929026 0.000000
H70   H     H_    0.023451 0.631327 0.928130 0.000000
H71   H     H_    0.967924 0.548478 0.749241 0.000000
H72   H     H_    0.013498 0.451288 0.749627 0.000000
H73   H     H_    0.877379 0.817190 0.930307 0.000000
H74   H     H_    0.121769 0.892187 0.936776 0.000000
H75   H     H_    0.983085 0.897305 0.968252 0.000000
H76   H     H_    0.158148 0.829055 0.837173 0.000000
H77   H     H_    0.207723 0.720571 0.782989 0.000000
N29   N     N_2   0.825556 0.406381 0.080352 0.000000
C92   C     C_R   0.786377 0.370367 0.025032 0.000000
C93   C     C_R   0.675556 0.390216 0.006753 0.000000
C94   C     C_R   0.635525 0.358090 0.952502 0.000000
C95   C     C_R   0.703765 0.306238 0.916954 0.000000
C96   C     C_R   0.808496 0.282677 0.936976 0.000000
C97   C     C_R   0.842841 0.312585 0.993598 0.000000
C98   C     C_R   0.671022 0.282978 0.857073 0.000000
N30   N     N_R   0.613608 0.322096 0.835658 0.000000
C99   C     C_R   0.636460 0.289964 0.778781 0.000000
C100  C     C_R   0.611289 0.309149 0.737029 0.000000
C101  C     C_R   0.664017 0.274010 0.683244 0.000000
N31   N     N_2   0.643197 0.293436 0.639826 0.000000
C102  C     C_R   0.751341 0.224312 0.674928 0.000000
C103  C     C_R   0.778467 0.206684 0.718459 0.000000
C104  C     C_R   0.708293 0.236039 0.767788 0.000000
N32   N     N_R   0.725270 0.227925 0.816291 0.000000
H78   H     H_    0.839077 0.444939 0.080358 0.000000
H79   H     H_    0.755479 0.418368 0.109143 0.000000
H80   H     H_    0.614925 0.426544 0.037690 0.000000
H81   H     H_    0.549727 0.372850 0.937865 0.000000
H82   H     H_    0.867320 0.243773 0.908277 0.000000
H83   H     H_    0.916402 0.290542 0.010708 0.000000
H84   H     H_    0.568140 0.353838 0.748038 0.000000
H85   H     H_    0.610241 0.337970 0.655055 0.000000
H86   H     H_    0.712850 0.276338 0.609921 0.000000
H87   H     H_    0.804852 0.201732 0.635740 0.000000
H88   H     H_    0.862704 0.176120 0.716104 0.000000
N33   N     N_2   0.335023 0.267509 0.598400 0.000000
C105  C     C_R   0.348075 0.321034 0.647616 0.000000
C106  C     C_R   0.366475 0.369369 0.641223 0.000000
C107  C     C_R   0.382913 0.421285 0.689354 0.000000
C108  C     C_R   0.376932 0.425766 0.744193 0.000000
C109  C     C_R   0.354797 0.377800 0.750394 0.000000
C110  C     C_R   0.343540 0.325092 0.702306 0.000000
C111  C     C_R   0.415119 0.476307 0.795188 0.000000
N34   N     N_R   0.376873 0.536422 0.808014 0.000000
C112  C     C_R   0.445364 0.562378 0.857145 0.000000
C113  C     C_R   0.434046 0.621303 0.896550 0.000000
C114  C     C_R   0.490729 0.636914 0.951306 0.000000
N35   N     N_2   0.465801 0.694560 0.995792 0.000000
C115  C     C_R   0.547571 0.593966 0.966972 0.000000
C116  C     C_R   0.544351 0.536759 0.928824 0.000000
C117  C     C_R   0.508339 0.521809 0.873779 0.000000
N36   N     N_R   0.489234 0.467367 0.838341 0.000000
H89   H     H_    0.307307 0.272438 0.561544 0.000000
H90   H     H_    0.290572 0.240019 0.606215 0.000000
H91   H     H_    0.371921 0.366093 0.598432 0.000000
H92   H     H_    0.404346 0.457572 0.683795 0.000000
H93   H     H_    0.358573 0.379775 0.793061 0.000000
H94   H     H_    0.331083 0.287091 0.707585 0.000000
H95   H     H_    0.360547 0.651104 0.889897 0.000000
H96   H     H_    0.493408 0.698301 0.036274 0.000000
H97   H     H_    0.376113 0.713074 0.993609 0.000000
H98   H     H_    0.572298 0.604957 0.011748 0.000000
H99   H     H_    0.530553 0.506879 0.943390 0.000000
N37   N     N_2   0.361879 0.209706 0.944845 0.000000
C118  C     C_R   0.240287 0.203800 0.945651 0.000000
C119  C     C_R   0.183439 0.171661 0.895178 0.000000
C120  C     C_R   0.081430 0.149643 0.896885 0.000000
C121  C     C_R   0.036372 0.162433 0.948374 0.000000
C122  C     C_R   0.090608 0.196892 0.999652 0.000000
C123  C     C_R   0.192081 0.219188 0.998184 0.000000
C124  C     C_R   0.913837 0.154235 0.950138 0.000000
N38   N     N_R   0.823438 0.163200 0.911711 0.000000
C125  C     C_R   0.728973 0.194381 0.948525 0.000000
C126  C     C_R   0.621961 0.225322 0.938276 0.000000
C127  C     C_R   0.544812 0.259078 0.984718 0.000000
N39   N     N_2   0.445044 0.300942 0.981322 0.000000
C128  C     C_R   0.560848 0.249875 0.034363 0.000000
C129  C     C_R   0.671581 0.220482 0.044937 0.000000
C130  C     C_R   0.756207 0.195918 0.001837 0.000000
N40   N     N_R   0.872352 0.169776 0.004189 0.000000
H100  H     H_    0.407134 0.181601 0.906833 0.000000
H101  H     H_    0.397454 0.207862 0.981501 0.000000
H102  H     H_    0.229040 0.158632 0.856153 0.000000
H103  H     H_    0.043203 0.117007 0.860334 0.000000
H104  H     H_    0.054892 0.206333 0.040784 0.000000
H105  H     H_    0.241965 0.242339 0.037834 0.000000
H106  H     H_    0.600680 0.224900 0.896591 0.000000
H107  H     H_    0.372574 0.307807 0.006851 0.000000
H108  H     H_    0.471670 0.340815 0.992365 0.000000
H109  H     H_    0.491998 0.271209 0.067439 0.000000
H110  H     H_    0.691514 0.218130 0.085565 0.000000
N41   N     N_2   0.385677 0.125706 0.002865 0.000000
C131  C     C_R   0.430444 0.107847 0.947703 0.000000
C132  C     C_R   0.545545 0.117559 0.941607 0.000000
C133  C     C_R   0.585244 0.103240 0.887477 0.000000
C134  C     C_R   0.511767 0.079494 0.840515 0.000000
C135  C     C_R   0.390960 0.076821 0.847557 0.000000
C136  C     C_R   0.349822 0.092290 0.901667 0.000000
C137  C     C_R   0.558836 0.062808 0.784005 0.000000
N42   N     N_R   0.650421 0.089371 0.775675 0.000000
C138  C     C_R   0.624973 0.078913 0.720079 0.000000
C139  C     C_R   0.684132 0.096533 0.688739 0.000000
C140  C     C_R   0.630910 0.092561 0.636700 0.000000
N43   N     N_2   0.689496 0.110605 0.603064 0.000000
C141  C     C_R   0.518786 0.071519 0.618139 0.000000
C142  C     C_R   0.467767 0.047496 0.647603 0.000000
C143  C     C_R   0.529260 0.047510 0.696695 0.000000
N44   N     N_R   0.490166 0.032448 0.734948 0.000000
H111  H     H_    0.420643 0.162194 0.033510 0.000000
H112  H     H_    0.290589 0.131792 0.001422 0.000000
H113  H     H_    0.605685 0.132136 0.978621 0.000000
H114  H     H_    0.673395 0.107786 0.878497 0.000000
H115  H     H_    0.327951 0.063694 0.811322 0.000000
H116  H     H_    0.258474 0.086704 0.907451 0.000000
H117  H     H_    0.771607 0.110222 0.704317 0.000000
H118  H     H_    0.657472 0.095345 0.560871 0.000000
H119  H     H_    0.784637 0.105836 0.608546 0.000000
H120  H     H_    0.473637 0.071372 0.579036 0.000000
H121  H     H_    0.379465 0.032039 0.633534 0.000000
N45   N     N_2   0.801768 0.968307 0.523237 0.000000
C144  C     C_R   0.864651 0.980166 0.576468 0.000000
C145  C     C_R   0.990863 0.980601 0.580787 0.000000
C146  C     C_R   0.049878 0.997808 0.634074 0.000000
C147  C     C_R   0.982951 0.013743 0.682875 0.000000
C148  C     C_R   0.859831 0.008689 0.677599 0.000000
C149  C     C_R   0.799543 0.993056 0.624794 0.000000
C150  C     C_R   0.038517 0.045477 0.739916 0.000000
N46   N     N_R   0.167271 0.044965 0.740982 0.000000
C151  C     C_R   0.167295 0.103524 0.760624 0.000000
C152  C     C_R   0.260364 0.131131 0.757992 0.000000
C153  C     C_R   0.242653 0.192197 0.784289 0.000000
N47   N     N_2   0.338899 0.221650 0.784387 0.000000
C154  C     C_R   0.132161 0.224229 0.812245 0.000000
C155  C     C_R   0.034164 0.196315 0.808452 0.000000
C156  C     C_R   0.053635 0.136046 0.781349 0.000000
N48   N     N_R   0.969782 0.101299 0.773225 0.000000
H122  H     H_    0.853048 0.970795 0.493532 0.000000
H123  H     H_    0.712601 0.991313 0.528447 0.000000
H124  H     H_    0.042631 0.970325 0.543054 0.000000
H125  H     H_    0.147015 0.002072 0.637663 0.000000
H126  H     H_    0.811681 0.017506 0.715099 0.000000
H127  H     H_    0.701829 0.990901 0.621752 0.000000
H128  H     H_    0.342250 0.107306 0.734761 0.000000
H129  H     H_    0.309087 0.264361 0.790399 0.000000
H130  H     H_    0.402639 0.196383 0.752189 0.000000
H131  H     H_    0.121281 0.271010 0.837663 0.000000
H132  H     H_    0.945565 0.221448 0.826151 0.000000
N49   N     N_2   0.329470 0.425912 0.415269 0.000000
C157  C     C_R   0.345630 0.476629 0.410547 0.000000
C158  C     C_R   0.452468 0.478714 0.389278 0.000000
C159  C     C_R   0.466587 0.527976 0.384364 0.000000
C160  C     C_R   0.374074 0.576624 0.400629 0.000000
C161  C     C_R   0.273319 0.576729 0.427849 0.000000
C162  C     C_R   0.257140 0.526036 0.430155 0.000000
C163  C     C_R   0.380401 0.629215 0.392827 0.000000
N50   N     N_R   0.332880 0.635782 0.343826 0.000000
C164  C     C_R   0.317881 0.695344 0.363567 0.000000
C165  C     C_R   0.255950 0.729719 0.337871 0.000000
C166  C     C_R   0.247432 0.790638 0.368205 0.000000
N51   N     N_2   0.185143 0.826720 0.342822 0.000000
C167  C     C_R   0.296377 0.816556 0.423964 0.000000
C168  C     C_R   0.350845 0.782030 0.450803 0.000000
C169  C     C_R   0.360066 0.721773 0.419769 0.000000
N52   N     N_R   0.399827 0.681514 0.439827 0.000000
H133  H     H_    0.400108 0.390345 0.399204 0.000000
H134  H     H_    0.239240 0.418183 0.410479 0.000000
H135  H     H_    0.525868 0.442020 0.375765 0.000000
H136  H     H_    0.551105 0.525961 0.367486 0.000000
H137  H     H_    0.205368 0.616135 0.445939 0.000000
H138  H     H_    0.171832 0.524820 0.445411 0.000000
H139  H     H_    0.206279 0.711974 0.297628 0.000000
H140  H     H_    0.209213 0.868287 0.360735 0.000000
H141  H     H_    0.180315 0.805357 0.298317 0.000000
H142  H     H_    0.288394 0.864149 0.447312 0.000000
H143  H     H_    0.386437 0.802209 0.494484 0.000000
N53   N     N_2   0.488466 0.281877 0.169266 0.000000
C170  C     C_R   0.396150 0.331822 0.194867 0.000000
C171  C     C_R   0.425152 0.382268 0.241397 0.000000
C172  C     C_R   0.335646 0.431332 0.265521 0.000000
C173  C     C_R   0.214781 0.427951 0.247693 0.000000
C174  C     C_R   0.185851 0.378200 0.202704 0.000000
C175  C     C_R   0.275952 0.330638 0.174003 0.000000
C176  C     C_R   0.124621 0.481188 0.264198 0.000000
N54   N     N_R   0.161000 0.531196 0.269119 0.000000
C177  C     C_R   0.053114 0.564736 0.267822 0.000000
C178  C     C_R   0.040655 0.617433 0.265651 0.000000
C179  C     C_R   0.924027 0.642363 0.255809 0.000000
N55   N     N_2   0.907239 0.695337 0.250408 0.000000
C180  C     C_R   0.824824 0.612984 0.247067 0.000000
C181  C     C_R   0.838403 0.560912 0.252670 0.000000
C182  C     C_R   0.955560 0.537990 0.264782 0.000000
N56   N     N_R   0.996427 0.484793 0.264235 0.000000
H144  H     H_    0.570922 0.292504 0.164527 0.000000
H145  H     H_    0.458223 0.247376 0.133559 0.000000
H146  H     H_    0.517202 0.384312 0.258884 0.000000
H147  H     H_    0.358770 0.472435 0.298395 0.000000
H148  H     H_    0.090407 0.378799 0.192801 0.000000
H149  H     H_    0.252832 0.293094 0.135477 0.000000
H150  H     H_    0.120723 0.637087 0.269119 0.000000
H151  H     H_    0.817371 0.717719 0.257031 0.000000
H152  H     H_    0.975992 0.720577 0.270551 0.000000
H153  H     H_    0.738995 0.629754 0.232202 0.000000
H154  H     H_    0.763576 0.536054 0.239729 0.000000
N57   N     N_2   0.561138 0.774669 0.374716 0.000000
C183  C     C_R   0.571401 0.712953 0.353571 0.000000
C184  C     C_R   0.584972 0.687658 0.391010 0.000000
C185  C     C_R   0.599468 0.626932 0.369920 0.000000
C186  C     C_R   0.600737 0.590879 0.310905 0.000000
C187  C     C_R   0.574860 0.617255 0.274431 0.000000
C188  C     C_R   0.564702 0.677600 0.295122 0.000000
C189  C     C_R   0.587464 0.528327 0.284703 0.000000
N58   N     N_R   0.683485 0.479454 0.270541 0.000000
C190  C     C_R   0.626554 0.437700 0.228097 0.000000
C191  C     C_R   0.687695 0.391576 0.183395 0.000000
C192  C     C_R   0.621490 0.363350 0.134152 0.000000
N59   N     N_2   0.687251 0.325468 0.084170 0.000000
C193  C     C_R   0.494065 0.380316 0.130229 0.000000
C194  C     C_R   0.433156 0.428019 0.175520 0.000000
C195  C     C_R   0.503867 0.457387 0.222011 0.000000
N60   N     N_R   0.475517 0.514229 0.257243 0.000000
H155  H     H_    0.530174 0.798854 0.416444 0.000000
H156  H     H_    0.521315 0.790099 0.345590 0.000000
H157  H     H_    0.585322 0.715413 0.437142 0.000000
H158  H     H_    0.601818 0.609306 0.400264 0.000000
H159  H     H_    0.563890 0.589685 0.228622 0.000000
H160  H     H_    0.551102 0.697115 0.265389 0.000000
H161  H     H_    0.785030 0.388818 0.180785 0.000000
H162  H     H_    0.645105 0.332943 0.051057 0.000000
H163  H     H_    0.782093 0.321251 0.087597 0.000000
H164  H     H_    0.444691 0.362469 0.089774 0.000000
H165  H     H_    0.338007 0.446704 0.171917 0.000000
N61   N     N_2   0.501024 0.169921 0.280299 0.000000
C196  C     C_R   0.438458 0.157388 0.226836 0.000000
C197  C     C_R   0.313608 0.154013 0.221818 0.000000
C198  C     C_R   0.254961 0.137201 0.168517 0.000000
C199  C     C_R   0.320072 0.124955 0.120225 0.000000
C200  C     C_R   0.441939 0.132564 0.126216 0.000000
C201  C     C_R   0.502019 0.147587 0.179089 0.000000
C202  C     C_R   0.263975 0.093484 0.063177 0.000000
N62   N     N_R   0.133231 0.098734 0.062656 0.000000
C203  C     C_R   0.125392 0.043139 0.049960 0.000000
C204  C     C_R   0.034628 0.028559 0.069802 0.000000
C205  C     C_R   0.044480 0.972265 0.062765 0.000000
N63   N     N_2   0.953101 0.956371 0.084785 0.000000
C206  C     C_R   0.148958 0.932320 0.037929 0.000000
C207  C     C_R   0.248484 0.948206 0.022644 0.000000
C208  C     C_R   0.235098 0.005339 0.030567 0.000000
N64   N     N_R   0.325811 0.035150 0.033376 0.000000
H166  H     H_    0.449183 0.168070 0.310201 0.000000
H167  H     H_    0.589562 0.146357 0.275521 0.000000
H168  H     H_    0.262688 0.161781 0.258937 0.000000
H169  H     H_    0.159304 0.130530 0.164424 0.000000
H170  H     H_    0.490068 0.126485 0.089687 0.000000
H171  H     H_    0.597411 0.153186 0.182781 0.000000
H172  H     H_    0.975117 0.062967 0.100745 0.000000
H173  H     H_    0.989275 0.925045 0.098728 0.000000
H174  H     H_    0.894041 0.991896 0.113206 0.000000
H175  H     H_    0.149963 0.889085 0.031709 0.000000
H176  H     H_    0.335219 0.918064 0.009723 0.000000
N65   N     N_2   0.885832 0.008741 0.798998 0.000000
C209  C     C_R   0.851176 0.024991 0.855307 0.000000
C210  C     C_R   0.932796 0.046655 0.900474 0.000000
C211  C     C_R   0.899120 0.061180 0.955670 0.000000
C212  C     C_R   0.781969 0.055547 0.964730 0.000000
C213  C     C_R   0.707096 0.028674 0.919095 0.000000
C214  C     C_R   0.741543 0.012567 0.864006 0.000000
C215  C     C_R   0.737325 0.072449 0.021551 0.000000
N66   N     N_R   0.803183 0.104208 0.071396 0.000000
C216  C     C_R   0.758229 0.090477 0.109804 0.000000
C217  C     C_R   0.805340 0.096533 0.163415 0.000000
C218  C     C_R   0.746305 0.074120 0.192210 0.000000
N67   N     N_2   0.792874 0.078391 0.246429 0.000000
C219  C     C_R   0.637733 0.050588 0.169606 0.000000
C220  C     C_R   0.595396 0.043211 0.115114 0.000000
C221  C     C_R   0.663778 0.058361 0.084959 0.000000
N68   N     N_R   0.643855 0.046532 0.029170 0.000000
H177  H     H_    0.978627 0.008204 0.797095 0.000000
H178  H     H_    0.853492 0.970965 0.769328 0.000000
H179  H     H_    0.020503 0.054887 0.892956 0.000000
H180  H     H_    0.964604 0.076359 0.991168 0.000000
H181  H     H_    0.621889 0.022113 0.929099 0.000000
H182  H     H_    0.678970 0.996674 0.828216 0.000000
H183  H     H_    0.887728 0.116082 0.182731 0.000000
H184  H     H_    0.764266 0.049124 0.257718 0.000000
H185  H     H_    0.885631 0.082192 0.253371 0.000000
H186  H     H_    0.586976 0.037753 0.194432 0.000000
H187  H     H_    0.508206 0.029424 0.096107 0.000000
N69   N     N_2   0.929579 0.926565 0.867315 0.000000
C222  C     C_R   0.043382 0.941915 0.866492 0.000000
C223  C     C_R   0.099915 0.975741 0.916830 0.000000
C224  C     C_R   0.199768 0.999218 0.914252 0.000000
C225  C     C_R   0.244808 0.985786 0.862042 0.000000
C226  C     C_R   0.184425 0.953846 0.811496 0.000000
C227  C     C_R   0.086117 0.930094 0.814099 0.000000
C228  C     C_R   0.373414 0.985310 0.857526 0.000000
N70   N     N_R   0.463030 0.972359 0.894429 0.000000
C229  C     C_R   0.553457 0.938435 0.856104 0.000000
C230  C     C_R   0.660170 0.907140 0.865813 0.000000
C231  C     C_R   0.735827 0.872008 0.819224 0.000000
N71   N     N_2   0.840617 0.834230 0.825608 0.000000
C232  C     C_R   0.720343 0.880848 0.769601 0.000000
C233  C     C_R   0.608687 0.909831 0.758800 0.000000
C234  C     C_R   0.525139 0.936799 0.802820 0.000000
N72   N     N_R   0.413368 0.968295 0.802663 0.000000
H188  H     H_    0.882492 0.952540 0.905249 0.000000
H189  H     H_    0.886204 0.924501 0.830068 0.000000
H190  H     H_    0.061412 0.984918 0.956878 0.000000
H191  H     H_    0.240578 0.030223 0.951452 0.000000
H192  H     H_    0.221341 0.940891 0.769680 0.000000
H193  H     H_    0.039516 0.904023 0.775062 0.000000
H194  H     H_    0.686032 0.910679 0.908196 0.000000
H195  H     H_    0.914160 0.829192 0.801224 0.000000
H196  H     H_    0.817495 0.793942 0.816207 0.000000
H197  H     H_    0.790978 0.860651 0.737213 0.000000
H198  H     H_    0.589797 0.912717 0.718373 0.000000
N73   N     N_2   0.614765 0.650958 0.639556 0.000000
C235  C     C_R   0.499856 0.631067 0.627879 0.000000
C236  C     C_R   0.391597 0.670819 0.635685 0.000000
C237  C     C_R   0.280288 0.656639 0.641606 0.000000
C238  C     C_R   0.280456 0.602931 0.640324 0.000000
C239  C     C_R   0.385979 0.560603 0.624806 0.000000
C240  C     C_R   0.495290 0.574141 0.616738 0.000000
C241  C     C_R   0.174210 0.588876 0.657271 0.000000
N74   N     N_R   0.197940 0.565586 0.696653 0.000000
C242  C     C_R   0.128083 0.521818 0.674421 0.000000
C243  C     C_R   0.130531 0.476413 0.688879 0.000000
C244  C     C_R   0.068063 0.429836 0.652048 0.000000
N75   N     N_2   0.078010 0.378775 0.660396 0.000000
C245  C     C_R   0.998903 0.431877 0.605018 0.000000
C246  C     C_R   0.994681 0.479035 0.592946 0.000000
C247  C     C_R   0.061634 0.521982 0.627087 0.000000
N76   N     N_R   0.083236 0.565158 0.615927 0.000000
H199  H     H_    0.681774 0.624124 0.651002 0.000000
H200  H     H_    0.604077 0.692960 0.672460 0.000000
H201  H     H_    0.395284 0.714182 0.640323 0.000000
H202  H     H_    0.195702 0.688493 0.651772 0.000000
H203  H     H_    0.382597 0.516597 0.619206 0.000000
H204  H     H_    0.578090 0.541334 0.604789 0.000000
H205  H     H_    0.183927 0.476179 0.725848 0.000000
H206  H     H_    0.068597 0.340783 0.623124 0.000000
H207  H     H_    0.146463 0.375638 0.689319 0.000000
H208  H     H_    0.951335 0.395521 0.576676 0.000000
H209  H     H_    0.949601 0.480831 0.555344 0.000000
N77   N     N_2   0.673295 0.889575 0.466255 0.000000
C248  C     C_R   0.633558 0.880002 0.510816 0.000000
C249  C     C_R   0.653518 0.824248 0.507083 0.000000
C250  C     C_R   0.597211 0.812981 0.545262 0.000000
C251  C     C_R   0.536228 0.858776 0.592432 0.000000
C252  C     C_R   0.525175 0.915351 0.598783 0.000000
C253  C     C_R   0.566598 0.925368 0.556026 0.000000
C254  C     C_R   0.442857 0.846052 0.618799 0.000000
N78   N     N_R   0.390316 0.795922 0.582070 0.000000
C255  C     C_R   0.269402 0.817674 0.589545 0.000000
C256  C     C_R   0.176952 0.796314 0.549723 0.000000
C257  C     C_R   0.061548 0.831754 0.559223 0.000000
N79   N     N_2   0.966807 0.815547 0.516683 0.000000
C258  C     C_R   0.039888 0.884167 0.609913 0.000000
C259  C     C_R   0.135458 0.903935 0.649574 0.000000
C260  C     C_R   0.250878 0.872961 0.634896 0.000000
N80   N     N_R   0.358212 0.893656 0.656398 0.000000
H210  H     H_    0.701143 0.851247 0.429674 0.000000
H211  H     H_    0.613980 0.921646 0.458694 0.000000
H212  H     H_    0.702836 0.789035 0.470817 0.000000
H213  H     H_    0.594084 0.768009 0.536211 0.000000
H214  H     H_    0.468913 0.949838 0.633222 0.000000
H215  H     H_    0.543422 0.967943 0.556280 0.000000
H216  H     H_    0.196214 0.755678 0.510335 0.000000
H217  H     H_    0.878291 0.836514 0.530805 0.000000
H218  H     H_    0.978794 0.771465 0.487739 0.000000
H219  H     H_    0.947901 0.908922 0.617774 0.000000
H220  H     H_    0.125253 0.941416 0.690984 0.000000
N81   N     N_2   0.810038 0.859485 0.643812 0.000000
C261  C     C_R   0.907847 0.811875 0.619401 0.000000
C262  C     C_R   0.889587 0.763739 0.568013 0.000000
C263  C     C_R   0.985389 0.717797 0.544300 0.000000
C264  C     C_R   0.101553 0.721067 0.569521 0.000000
C265  C     C_R   0.119699 0.768164 0.621926 0.000000
C266  C     C_R   0.022202 0.813071 0.646895 0.000000
C267  C     C_R   0.190822 0.667269 0.548816 0.000000
N82   N     N_R   0.156020 0.616225 0.541930 0.000000
C268  C     C_R   0.264603 0.580685 0.535758 0.000000
C269  C     C_R   0.282618 0.524019 0.528961 0.000000
C270  C     C_R   0.399087 0.491494 0.513482 0.000000
N83   N     N_2   0.425696 0.433291 0.507637 0.000000
C271  C     C_R   0.485255 0.514037 0.497365 0.000000
C272  C     C_R   0.464178 0.571679 0.504971 0.000000
C273  C     C_R   0.356570 0.605498 0.529993 0.000000
N84   N     N_R   0.315766 0.661314 0.539401 0.000000
H221  H     H_    0.753442 0.867416 0.613246 0.000000
H222  H     H_    0.837547 0.896451 0.677421 0.000000
H223  H     H_    0.800743 0.761024 0.546328 0.000000
H224  H     H_    0.970070 0.678684 0.505609 0.000000
H225  H     H_    0.208866 0.770003 0.643943 0.000000
H226  H     H_    0.037302 0.850430 0.686678 0.000000
H227  H     H_    0.208871 0.505978 0.535361 0.000000
H228  H     H_    0.519192 0.417870 0.509086 0.000000
H229  H     H_    0.369106 0.425031 0.531491 0.000000
H230  H     H_    0.563921 0.484891 0.475047 0.000000
H231  H     H_    0.519886 0.588350 0.486090 0.000000
N85   N     N_2   0.770065 0.365477 0.430048 0.000000
C274  C     C_R   0.759532 0.427358 0.452197 0.000000
C275  C     C_R   0.741910 0.454536 0.416073 0.000000
C276  C     C_R   0.724969 0.515786 0.438824 0.000000
C277  C     C_R   0.723456 0.550867 0.498059 0.000000
C278  C     C_R   0.746024 0.522666 0.533310 0.000000
C279  C     C_R   0.758630 0.461845 0.510963 0.000000
C280  C     C_R   0.731848 0.614909 0.525059 0.000000
N86   N     N_R   0.634708 0.663950 0.538869 0.000000
C281  C     C_R   0.691856 0.706564 0.580896 0.000000
C282  C     C_R   0.629504 0.752202 0.626334 0.000000
C283  C     C_R   0.689524 0.773086 0.678972 0.000000
N87   N     N_2   0.616688 0.796442 0.728462 0.000000
C284  C     C_R   0.816492 0.755479 0.683095 0.000000
C285  C     C_R   0.882626 0.714329 0.635623 0.000000
C286  C     C_R   0.815161 0.686955 0.586922 0.000000
N88   N     N_R   0.843858 0.629991 0.551526 0.000000
H232  H     H_    0.801085 0.341325 0.388419 0.000000
H233  H     H_    0.807995 0.349431 0.458962 0.000000
H234  H     H_    0.740003 0.428001 0.369908 0.000000
H235  H     H_    0.720452 0.535314 0.409880 0.000000
H236  H     H_    0.760516 0.548125 0.578871 0.000000
H237  H     H_    0.771543 0.441142 0.539642 0.000000
H238  H     H_    0.531724 0.755941 0.626368 0.000000
H239  H     H_    0.658026 0.781081 0.757091 0.000000
H240  H     H_    0.523465 0.794194 0.720386 0.000000
H241  H     H_    0.861267 0.765652 0.724040 0.000000
H242  H     H_    0.976712 0.694816 0.640665 0.000000
N89   N     N_2   0.629910 0.256667 0.345424 0.000000
C287  C     C_R   0.668710 0.266287 0.300695 0.000000
C288  C     C_R   0.658216 0.322377 0.306491 0.000000
C289  C     C_R   0.711823 0.332442 0.266707 0.000000
C290  C     C_R   0.761088 0.286013 0.216717 0.000000
C291  C     C_R   0.763316 0.229297 0.208900 0.000000
C292  C     C_R   0.724934 0.220054 0.252869 0.000000
C293  C     C_R   0.854365 0.296635 0.188261 0.000000
N90   N     N_R   0.913251 0.344630 0.225922 0.000000
C294  C     C_R   0.029833 0.317049 0.223610 0.000000
C295  C     C_R   0.123201 0.337625 0.262854 0.000000
C296  C     C_R   0.238175 0.302345 0.251447 0.000000
N91   N     N_2   0.338757 0.321618 0.289485 0.000000
C297  C     C_R   0.256829 0.250601 0.200184 0.000000
C298  C     C_R   0.159184 0.230935 0.161778 0.000000
C299  C     C_R   0.044859 0.262201 0.177842 0.000000
N92   N     N_R   0.936224 0.246375 0.151907 0.000000
H243  H     H_    0.616064 0.294190 0.384215 0.000000
H244  H     H_    0.679944 0.219898 0.348250 0.000000
H245  H     H_    0.619749 0.357888 0.345532 0.000000
H246  H     H_    0.719931 0.376918 0.275732 0.000000
H247  H     H_    0.809023 0.193157 0.171551 0.000000
H248  H     H_    0.742765 0.177501 0.252248 0.000000
H249  H     H_    0.108819 0.380558 0.299925 0.000000
H250  H     H_    0.424910 0.300425 0.272058 0.000000
H251  H     H_    0.327821 0.366870 0.311839 0.000000
H252  H     H_    0.349616 0.228980 0.189006 0.000000
H253  H     H_    0.168274 0.197340 0.118080 0.000000
N93   N     N_2   0.976412 0.714618 0.378663 0.000000
C300  C     C_R   0.966418 0.666513 0.389304 0.000000
C301  C     C_R   0.862288 0.665672 0.413497 0.000000
C302  C     C_R   0.851925 0.618396 0.423235 0.000000
C303  C     C_R   0.943790 0.569359 0.406060 0.000000
C304  C     C_R   0.044121 0.569515 0.378902 0.000000
C305  C     C_R   0.059402 0.619023 0.374071 0.000000
C306  C     C_R   0.939851 0.516148 0.413599 0.000000
N94   N     N_R   0.988766 0.509681 0.462383 0.000000
C307  C     C_R   0.007189 0.450120 0.442755 0.000000
C308  C     C_R   0.070831 0.416197 0.468762 0.000000
C309  C     C_R   0.081322 0.355223 0.438764 0.000000
N95   N     N_2   0.145137 0.319581 0.464359 0.000000
C310  C     C_R   0.030514 0.328885 0.383542 0.000000
C311  C     C_R   0.973126 0.362995 0.356735 0.000000
C312  C     C_R   0.964648 0.423319 0.386765 0.000000
N96   N     N_R   0.921669 0.463423 0.366616 0.000000
H254  H     H_    0.909724 0.751420 0.397688 0.000000
H255  H     H_    0.066105 0.721353 0.378730 0.000000
H256  H     H_    0.790391 0.702920 0.426433 0.000000
H257  H     H_    0.770983 0.621477 0.443845 0.000000
H258  H     H_    0.111298 0.530536 0.362415 0.000000
H259  H     H_    0.143980 0.620457 0.357972 0.000000
H260  H     H_    0.118434 0.434274 0.509580 0.000000
H261  H     H_    0.176827 0.276737 0.435047 0.000000
H262  H     H_    0.206774 0.339938 0.496883 0.000000
H263  H     H_    0.037741 0.281292 0.360800 0.000000
H264  H     H_    0.932698 0.342285 0.314322 0.000000

loop_
_geom_bond_atom_site_label_1
_geom_bond_atom_site_label_2
_geom_bond_distance
_geom_bond_site_symmetry_2
_ccdc_geom_bond_type
Zn1   N40   2.106 .      S
Zn1   N62   2.274 1_655  S
Zn1   N66   2.169 .      S
Zn1   N92   2.248 .      S
Zn2   N44   2.117 1_565  S
Zn2   N46   2.258 1_565  S
Zn2   N72   2.115 .      S
Zn2   N80   2.227 .      S
Zn3   N76   2.104 .      S
Zn3   N82   1.972 .      S
Zn3   N88   2.045 1_455  S
Zn3   N94   2.091 1_455  S
Zn4   N4    2.162 1_454  S
Zn4   N8    2.178 1_454  S
Zn4   N10   2.065 1_554  S
Zn4   N14   2.193 .      S
Zn5   N2    2.185 .      S
Zn5   N20   2.149 .      S
Zn5   N22   2.104 .      S
Zn5   N26   2.042 .      S
Zn6   N6    2.179 .      S
Zn6   N12   2.057 .      S
Zn6   N30   2.147 .      S
Zn6   N36   2.143 .      S
Zn7   N32   2.169 .      S
Zn7   N38   2.210 .      S
Zn7   N42   2.199 .      S
Zn7   N48   2.196 .      S
Zn8   N16   2.181 .      S
Zn8   N50   2.112 .      S
Zn8   N54   1.995 .      S
Zn8   N60   2.046 .      S
Zn9   N18   2.216 .      S
Zn9   N64   2.206 1_566  S
Zn9   N68   2.190 1_566  S
Zn9   N70   2.228 .      S
Zn10  N24   2.130 .      S
Zn10  N28   2.115 .      S
Zn10  N34   2.174 .      S
Zn10  N74   2.130 .      S
Zn11  N52   2.068 .      S
Zn11  N78   2.176 .      S
Zn11  N84   2.018 .      S
Zn11  N86   2.220 .      S
Zn12  N56   2.067 .      S
Zn12  N58   2.178 .      S
Zn12  N90   2.219 .      S
Zn12  N96   2.077 .      S
N1    C1    1.409 .      S
N1    H1    1.029 .      S
N1    H2    1.029 .      S
C2    H3    1.074 .      S
C3    H4    1.081 .      S
C4    C7    1.464 1_554  S
C5    H5    1.079 .      S
C6    H6    1.080 .      S
C7    C4    1.464 1_556  S
C9    H7    1.051 .      S
C10   N3    1.407 .      S
N3    H8    1.027 .      S
N3    H9    1.026 .      S
C11   H10   1.066 .      S
C12   H11   1.075 .      S
N4    Zn4   2.162 1_656  S
N5    C14   1.409 .      S
N5    H12   1.029 1_655  S
N5    H13   1.029 .      S
C15   H14   1.079 .      S
C16   H15   1.047 1_655  S
C17   C20   1.508 .      S
C18   H16   1.064 .      S
C19   H17   1.073 .      S
C22   H18   1.082 .      S
C23   N7    1.404 .      S
N7    H19   1.027 .      S
N7    H20   1.029 .      S
C24   H21   1.077 .      S
C25   H22   1.078 .      S
N8    Zn4   2.178 1_656  S
H12   N5    1.029 1_455  S
H15   C16   1.047 1_455  S
N9    C27   1.401 .      S
N9    H23   1.026 1_556  S
N9    H24   1.027 .      S
C28   H25   1.071 .      S
C29   H26   1.076 .      S
C30   C33   1.417 .      S
C31   H27   1.067 .      S
C32   H28   1.078 .      S
N10   Zn4   2.065 1_556  S
C35   H29   1.081 1_556  S
C36   N11   1.394 .      S
N11   H30   1.028 .      S
N11   H31   1.019 .      S
C37   H32   1.073 .      S
C38   H33   1.079 .      S
H23   N9    1.026 1_554  S
H29   C35   1.081 1_554  S
N13   C40   1.405 .      S
N13   H34   1.021 .      S
N13   H35   1.025 1_455  S
C41   H36   1.072 .      S
C42   H37   1.081 .      S
C43   C46   1.427 .      S
C44   H38   1.075 1_455  S
C45   H39   1.078 .      S
C48   H40   1.075 .      S
C49   N15   1.409 .      S
N15   H41   1.029 .      S
N15   H42   1.024 .      S
C50   H43   1.081 .      S
C51   H44   1.079 .      S
H35   N13   1.025 1_655  S
H38   C44   1.075 1_655  S
N17   C53   1.402 .      S
N17   H45   1.029 .      S
N17   H46   1.016 .      S
C54   H47   1.061 .      S
C55   H48   1.073 .      S
C56   C59   1.437 .      S
C57   H49   1.078 .      S
C58   H50   1.080 .      S
C61   H51   1.064 .      S
C62   N19   1.410 .      S
N19   H52   1.029 .      S
N19   H53   1.029 .      S
C63   H54   1.081 .      S
C64   H55   1.075 .      S
N21   C66   1.413 .      S
N21   H56   1.029 .      S
N21   H57   1.029 .      S
C67   H58   1.081 .      S
C68   H59   1.044 .      S
C69   C72   1.487 .      S
C70   H60   1.065 .      S
C71   H61   1.070 .      S
C74   H62   1.076 .      S
C75   N23   1.400 .      S
N23   H63   1.027 .      S
N23   H64   1.027 .      S
C76   H65   1.081 .      S
C77   H66   1.071 .      S
N25   C79   1.401 .      S
N25   H67   1.026 .      S
N25   H68   1.026 .      S
C80   H69   1.074 .      S
C81   H70   1.065 .      S
C82   C85   1.403 .      S
C83   H71   1.070 .      S
C84   H72   1.066 .      S
C87   H73   1.077 .      S
C88   N27   1.395 .      S
N27   H74   1.027 .      S
N27   H75   1.028 1_455  S
C89   H76   1.055 .      S
C90   H77   1.081 .      S
H75   N27   1.028 1_655  S
N29   C92   1.385 .      S
N29   H78   1.030 .      S
N29   H79   1.029 .      S
C93   H80   1.071 .      S
C94   H81   1.046 .      S
C95   C98   1.422 .      S
C96   H82   1.070 .      S
C97   H83   1.073 1_556  S
C100  H84   1.072 .      S
C101  N31   1.409 .      S
N31   H85   1.029 .      S
N31   H86   1.029 .      S
C102  H87   1.081 .      S
C103  H88   1.080 .      S
H83   C97   1.073 1_554  S
N33   C105  1.409 .      S
N33   H89   1.029 .      S
N33   H90   1.029 .      S
C106  H91   1.081 .      S
C107  H92   1.077 .      S
C108  C111  1.465 .      S
C109  H93   1.081 .      S
C110  H94   1.081 .      S
C113  H95   1.060 .      S
C114  N35   1.399 .      S
N35   H96   1.029 1_556  S
N35   H97   1.015 .      S
C115  H98   1.081 1_556  S
C116  H99   1.037 .      S
H96   N35   1.029 1_554  S
H98   C115  1.081 1_554  S
N37   C118  1.372 .      S
N37   H100  1.027 .      S
N37   H101  1.008 .      S
C119  H102  1.056 .      S
C120  H103  1.053 .      S
C121  C124  1.406 1_455  S
C122  H104  1.078 1_556  S
C123  H105  1.079 1_556  S
C124  C121  1.406 1_655  S
C126  H106  1.078 .      S
C127  N39   1.408 .      S
N39   H107  1.023 1_556  S
N39   H108  1.024 .      S
C128  H109  1.073 .      S
C129  H110  1.081 .      S
H104  C122  1.078 1_554  S
H105  C123  1.079 1_554  S
H107  N39   1.023 1_554  S
N41   C131  1.399 1_554  S
N41   H111  1.027 .      S
N41   H112  1.023 .      S
C131  N41   1.399 1_556  S
C132  H113  1.065 .      S
C133  H114  1.055 .      S
C134  C137  1.447 .      S
C135  H115  1.069 .      S
C136  H116  1.072 .      S
C139  H117  1.061 .      S
C140  N43   1.408 .      S
N43   H118  1.029 .      S
N43   H119  1.029 .      S
C141  H120  1.081 .      S
C142  H121  1.081 .      S
N44   Zn2   2.117 1_545  S
N45   C144  1.406 .      S
N45   H122  1.029 .      S
N45   H123  1.028 .      S
C145  H124  1.081 1_655  S
C146  H125  1.080 1_565  S
C147  C150  1.461 1_655  S
C148  H126  1.064 .      S
C149  H127  1.075 .      S
C150  C147  1.461 1_455  S
N46   Zn2   2.258 1_545  S
C152  H128  1.052 .      S
C153  N47   1.409 .      S
N47   H129  1.028 .      S
N47   H130  1.029 .      S
C154  H131  1.066 .      S
C155  H132  1.073 1_455  S
H124  C145  1.081 1_455  S
H125  C146  1.080 1_545  S
H132  C155  1.073 1_655  S
N49   C157  1.409 .      S
N49   H133  1.029 .      S
N49   H134  1.029 .      S
C158  H135  1.062 .      S
C159  H136  1.046 .      S
C160  C163  1.471 .      S
C161  H137  1.074 .      S
C162  H138  1.062 .      S
C165  H139  1.068 .      S
C166  N51   1.409 .      S
N51   H140  1.029 .      S
N51   H141  1.029 .      S
C167  H142  1.081 .      S
C168  H143  1.076 .      S
N53   C170  1.407 .      S
N53   H144  1.026 .      S
N53   H145  1.028 .      S
C171  H146  1.063 .      S
C172  H147  1.071 .      S
C173  C176  1.440 .      S
C174  H148  1.050 .      S
C175  H149  1.077 .      S
C178  H150  1.069 .      S
C179  N55   1.408 .      S
N55   H151  1.029 .      S
N55   H152  1.029 .      S
C180  H153  1.069 .      S
C181  H154  1.068 .      S
N57   C183  1.409 .      S
N57   H155  1.027 .      S
N57   H156  1.029 .      S
C184  H157  1.079 .      S
C185  H158  1.068 .      S
C186  C189  1.465 .      S
C187  H159  1.080 .      S
C188  H160  1.081 .      S
C191  H161  1.062 .      S
C192  N59   1.386 .      S
N59   H162  1.012 .      S
N59   H163  1.023 .      S
C193  H164  1.070 .      S
C194  H165  1.076 .      S
N61   C196  1.408 .      S
N61   H166  1.029 .      S
N61   H167  1.028 .      S
C197  H168  1.081 .      S
C198  H169  1.080 .      S
C199  C202  1.462 .      S
C200  H170  1.065 .      S
C201  H171  1.070 .      S
N62   Zn1   2.274 1_455  S
C204  H172  1.045 1_455  S
C205  N63   1.406 1_455  S
N63   C205  1.406 1_655  S
N63   H173  1.026 .      S
N63   H174  1.028 .      S
C206  H175  1.047 .      S
C207  H176  1.079 .      S
N64   Zn9   2.206 1_544  S
H172  C204  1.045 1_655  S
N65   C209  1.396 .      S
N65   H177  1.020 .      S
N65   H178  1.028 1_545  S
C210  H179  1.076 1_655  S
C211  H180  1.077 .      S
C212  C215  1.443 1_556  S
C213  H181  1.056 .      S
C214  H182  1.064 1_545  S
C215  C212  1.443 1_554  S
C217  H183  1.082 .      S
C218  N67   1.409 .      S
N67   H184  1.029 .      S
N67   H185  1.029 .      S
C219  H186  1.081 .      S
C220  H187  1.075 .      S
N68   Zn9   2.190 1_544  S
H178  N65   1.028 1_565  S
H179  C210  1.076 1_455  S
H182  C214  1.064 1_565  S
N69   C222  1.382 1_655  S
N69   H188  1.027 .      S
N69   H189  1.016 .      S
C222  N69   1.382 1_455  S
C223  H190  1.068 .      S
C224  H191  1.056 1_565  S
C225  C228  1.422 .      S
C226  H192  1.077 .      S
C227  H193  1.069 .      S
C230  H194  1.074 .      S
C231  N71   1.405 .      S
N71   H195  1.027 .      S
N71   H196  1.027 .      S
C232  H197  1.075 .      S
C233  H198  1.081 .      S
H191  C224  1.056 1_545  S
N73   C235  1.401 .      S
N73   H199  1.026 .      S
N73   H200  1.021 .      S
C236  H201  1.074 .      S
C237  H202  1.079 .      S
C238  C241  1.444 .      S
C239  H203  1.081 .      S
C240  H204  1.077 .      S
C243  H205  1.073 .      S
C244  N75   1.408 .      S
N75   H206  1.029 .      S
N75   H207  1.025 .      S
C245  H208  1.081 .      S
C246  H209  1.064 .      S
N77   C248  1.409 .      S
N77   H210  1.029 .      S
N77   H211  1.029 .      S
C249  H212  1.067 .      S
C250  H213  1.077 .      S
C251  C254  1.446 .      S
C252  H214  1.071 .      S
C253  H215  1.073 .      S
C256  H216  1.081 .      S
C257  N79   1.408 1_455  S
N79   C257  1.408 1_655  S
N79   H217  1.029 .      S
N79   H218  1.027 .      S
C258  H219  1.069 1_455  S
C259  H220  1.066 .      S
H219  C258  1.069 1_655  S
N81   C261  1.408 .      S
N81   H221  1.027 .      S
N81   H222  1.028 .      S
C262  H223  1.071 .      S
C263  H224  1.077 .      S
C264  C267  1.441 .      S
C265  H225  1.078 .      S
C266  H226  1.067 .      S
C269  H227  1.065 .      S
C270  N83   1.409 .      S
N83   H228  1.029 .      S
N83   H229  1.029 .      S
C271  H230  1.049 .      S
C272  H231  1.071 .      S
N85   C274  1.410 .      S
N85   H232  1.025 .      S
N85   H233  1.029 .      S
C275  H234  1.076 .      S
C276  H235  1.070 .      S
C277  C280  1.486 .      S
C278  H236  1.071 .      S
C279  H237  1.080 .      S
C282  H238  1.057 .      S
C283  N87   1.403 .      S
N87   H239  1.021 .      S
N87   H240  1.029 .      S
C284  H241  1.062 .      S
C285  H242  1.080 .      S
N88   Zn3   2.045 1_655  S
N89   C287  1.410 .      S
N89   H243  1.029 .      S
N89   H244  1.029 .      S
C288  H245  1.066 .      S
C289  H246  1.078 .      S
C290  C293  1.451 .      S
C291  H247  1.075 .      S
C292  H248  1.068 .      S
C295  H249  1.080 .      S
C296  N91   1.406 .      S
N91   H250  1.029 .      S
N91   H251  1.026 .      S
C297  H252  1.060 .      S
C298  H253  1.068 .      S
N93   C300  1.410 .      S
N93   H254  1.029 .      S
N93   H255  1.029 1_655  S
C301  H256  1.061 .      S
C302  H257  1.053 .      S
C303  C306  1.477 .      S
C304  H258  1.060 .      S
C305  H259  1.067 .      S
N94   Zn3   2.091 1_655  S
C308  H260  1.068 .      S
C309  N95   1.409 .      S
N95   H261  1.029 .      S
N95   H262  1.029 .      S
C310  H263  1.081 .      S
C311  H264  1.071 .      S
H255  N93   1.029 1_455  S
C1    C2    1.378 .      A
C1    C6    1.377 .      A
C2    C3    1.379 .      A
C3    C4    1.381 .      A
C4    C5    1.381 .      A
C5    C6    1.378 .      A
C7    N2    1.408 .      A
C7    N4    1.406 .      A
N2    C8    1.346 .      A
C8    C9    1.366 .      A
C8    C13   1.359 .      A
C9    C10   1.370 .      A
C10   C11   1.373 .      A
C11   C12   1.380 .      A
C12   C13   1.370 .      A
C13   N4    1.345 .      A
C14   C15   1.362 1_655  A
C14   C19   1.364 .      A
C15   C14   1.362 1_455  A
C15   C16   1.380 1_455  A
C16   C15   1.380 1_655  A
C16   C17   1.379 .      A
C17   C18   1.392 .      A
C18   C19   1.390 .      A
C20   N6    1.382 .      A
C20   N8    1.428 .      A
N6    C21   1.363 1_556  A
C21   N6    1.363 1_554  A
C21   C22   1.386 .      A
C21   C26   1.365 .      A
C22   C23   1.385 .      A
C23   C24   1.384 .      A
C24   C25   1.375 .      A
C25   C26   1.369 .      A
C26   N8    1.336 1_554  A
N8    C26   1.336 1_556  A
C27   C28   1.375 1_556  A
C27   C32   1.371 .      A
C28   C27   1.375 1_554  A
C28   C29   1.363 .      A
C29   C30   1.366 1_554  A
C30   C29   1.366 1_556  A
C30   C31   1.351 .      A
C31   C32   1.360 .      A
C33   N10   1.371 .      A
C33   N12   1.375 .      A
N10   C34   1.338 .      A
C34   C35   1.357 .      A
C34   C39   1.360 .      A
C35   C36   1.379 .      A
C36   C37   1.390 .      A
C37   C38   1.376 .      A
C38   C39   1.366 .      A
C39   N12   1.339 .      A
C40   C41   1.373 .      A
C40   C45   1.378 1_455  A
C41   C42   1.372 .      A
C42   C43   1.373 .      A
C43   C44   1.358 .      A
C44   C45   1.362 1_455  A
C45   C40   1.378 1_655  A
C45   C44   1.362 1_655  A
C46   N14   1.389 .      A
C46   N16   1.399 .      A
N14   C47   1.359 .      A
C47   C48   1.374 .      A
C47   C52   1.381 .      A
C48   C49   1.396 .      A
C49   C50   1.388 .      A
C50   C51   1.378 .      A
C51   C52   1.364 .      A
C52   N16   1.340 .      A
C53   C54   1.366 .      A
C53   C58   1.380 .      A
C54   C55   1.353 .      A
C55   C56   1.367 .      A
C56   C57   1.371 .      A
C57   C58   1.382 .      A
C59   N18   1.388 .      A
C59   N20   1.390 .      A
N18   C60   1.367 1_556  A
C60   N18   1.367 1_554  A
C60   C61   1.383 .      A
C60   C65   1.379 .      A
C61   C62   1.388 .      A
C62   C63   1.385 .      A
C63   C64   1.378 .      A
C64   C65   1.367 .      A
C65   N20   1.337 1_554  A
N20   C65   1.337 1_556  A
C66   C67   1.378 1_554  A
C66   C71   1.367 .      A
C67   C66   1.378 1_556  A
C67   C68   1.374 .      A
C68   C69   1.363 .      A
C69   C70   1.375 .      A
C70   C71   1.385 1_556  A
C71   C70   1.385 1_554  A
C72   N22   1.381 .      A
C72   N24   1.411 .      A
N22   C73   1.350 .      A
C73   C74   1.371 .      A
C73   C78   1.362 .      A
C74   C75   1.390 .      A
C75   C76   1.384 .      A
C76   C77   1.371 .      A
C77   C78   1.361 .      A
C78   N24   1.334 .      A
C79   C80   1.374 .      A
C79   C84   1.368 .      A
C80   C81   1.353 .      A
C81   C82   1.347 1_455  A
C82   C81   1.347 1_655  A
C82   C83   1.357 .      A
C83   C84   1.357 1_655  A
C84   C83   1.357 1_455  A
C85   N26   1.373 .      A
C85   N28   1.374 1_655  A
N26   C86   1.331 .      A
C86   C87   1.361 .      A
C86   C91   1.367 1_655  A
C87   C88   1.371 1_655  A
C88   C87   1.371 1_455  A
C88   C89   1.383 .      A
C89   C90   1.373 .      A
C90   C91   1.362 .      A
C91   C86   1.367 1_455  A
C91   N28   1.345 .      A
N28   C85   1.374 1_455  A
C92   C93   1.352 .      A
C92   C97   1.381 1_554  A
C93   C94   1.345 1_554  A
C94   C93   1.345 1_556  A
C94   C95   1.353 .      A
C95   C96   1.362 .      A
C96   C97   1.364 .      A
C97   C92   1.381 1_556  A
C98   N30   1.383 .      A
C98   N32   1.386 .      A
N30   C99   1.345 .      A
C99   C100  1.366 .      A
C99   C104  1.377 .      A
C100  C101  1.383 .      A
C101  C102  1.386 .      A
C102  C103  1.384 .      A
C103  C104  1.377 .      A
C104  N32   1.355 .      A
C105  C106  1.379 .      A
C105  C110  1.379 .      A
C106  C107  1.380 .      A
C107  C108  1.381 .      A
C108  C109  1.381 .      A
C109  C110  1.380 .      A
C111  N34   1.411 .      A
C111  N36   1.394 .      A
N34   C112  1.362 .      A
C112  C113  1.379 .      A
C112  C117  1.352 .      A
C113  C114  1.400 .      A
C114  C115  1.367 .      A
C115  C116  1.354 .      A
C116  C117  1.336 .      A
C117  N36   1.323 .      A
C118  C119  1.353 .      A
C118  C123  1.366 .      A
C119  C120  1.358 .      A
C120  C121  1.344 .      A
C121  C122  1.369 .      A
C122  C123  1.355 .      A
C124  N38   1.396 .      A
C124  N40   1.372 1_556  A
N38   C125  1.347 .      A
C125  C126  1.361 .      A
C125  C130  1.369 1_556  A
C126  C127  1.376 .      A
C127  C128  1.400 1_556  A
C128  C127  1.400 1_554  A
C128  C129  1.375 .      A
C129  C130  1.361 .      A
C130  C125  1.369 1_554  A
C130  N40   1.331 .      A
N40   C124  1.372 1_554  A
C131  C132  1.368 .      A
C131  C136  1.361 .      A
C132  C133  1.374 .      A
C133  C134  1.348 .      A
C134  C135  1.372 .      A
C135  C136  1.372 .      A
C137  N42   1.399 .      A
C137  N44   1.386 .      A
N42   C138  1.350 .      A
C138  C139  1.356 .      A
C138  C143  1.366 .      A
C139  C140  1.382 .      A
C140  C141  1.389 .      A
C141  C142  1.387 .      A
C142  C143  1.379 .      A
C143  N44   1.347 .      A
C144  C145  1.377 .      A
C144  C149  1.379 .      A
C145  C146  1.377 1_655  A
C146  C145  1.377 1_455  A
C146  C147  1.381 1_465  A
C147  C146  1.381 1_645  A
C147  C148  1.366 .      A
C148  C149  1.375 1_545  A
C149  C148  1.375 1_565  A
C150  N46   1.405 .      A
C150  N48   1.403 1_455  A
N46   C151  1.353 .      A
C151  C152  1.371 .      A
C151  C156  1.367 .      A
C152  C153  1.381 .      A
C153  C154  1.387 .      A
C154  C155  1.373 .      A
C155  C156  1.362 .      A
C156  N48   1.337 1_455  A
N48   C150  1.403 1_655  A
N48   C156  1.337 1_655  A
C157  C158  1.363 .      A
C157  C162  1.363 .      A
C158  C159  1.368 .      A
C159  C160  1.377 .      A
C160  C161  1.368 .      A
C161  C162  1.377 .      A
C163  N50   1.394 .      A
C163  N52   1.380 .      A
N50   C164  1.358 .      A
C164  C165  1.379 .      A
C164  C169  1.372 .      A
C165  C166  1.386 .      A
C166  C167  1.388 .      A
C167  C168  1.381 .      A
C168  C169  1.372 .      A
C169  N52   1.344 .      A
C170  C171  1.377 .      A
C170  C175  1.372 .      A
C171  C172  1.372 .      A
C172  C173  1.363 .      A
C173  C174  1.349 .      A
C174  C175  1.373 .      A
C176  N54   1.365 .      A
C176  N56   1.389 1_455  A
N54   C177  1.332 .      A
C177  C178  1.363 .      A
C177  C182  1.354 1_455  A
C178  C179  1.371 1_455  A
C179  C178  1.371 1_655  A
C179  C180  1.382 .      A
C180  C181  1.391 .      A
C181  C182  1.376 .      A
C182  C177  1.354 1_655  A
C182  N56   1.351 .      A
N56   C176  1.389 1_655  A
C183  C184  1.377 .      A
C183  C188  1.371 .      A
C184  C185  1.382 .      A
C185  C186  1.382 .      A
C186  C187  1.375 .      A
C187  C188  1.378 .      A
C189  N58   1.406 .      A
C189  N60   1.378 .      A
N58   C190  1.339 .      A
C190  C191  1.343 .      A
C190  C195  1.363 .      A
C191  C192  1.361 .      A
C192  C193  1.389 .      A
C193  C194  1.366 .      A
C194  C195  1.352 .      A
C195  N60   1.319 .      A
C196  C197  1.376 .      A
C196  C201  1.380 .      A
C197  C198  1.376 .      A
C198  C199  1.383 .      A
C199  C200  1.369 .      A
C200  C201  1.377 .      A
C202  N62   1.412 .      A
C202  N64   1.404 .      A
N62   C203  1.332 .      A
C203  C204  1.347 .      A
C203  C208  1.370 .      A
C204  C205  1.359 1_545  A
C205  C204  1.359 1_565  A
C205  C206  1.371 .      A
C206  C207  1.384 .      A
C207  C208  1.368 1_565  A
C208  C207  1.368 1_545  A
C208  N64   1.343 .      A
C209  C210  1.366 .      A
C209  C214  1.364 .      A
C210  C211  1.376 .      A
C211  C212  1.373 .      A
C212  C213  1.351 .      A
C213  C214  1.366 .      A
C215  N66   1.391 .      A
C215  N68   1.397 .      A
N66   C216  1.358 .      A
C216  C217  1.383 .      A
C216  C221  1.369 .      A
C217  C218  1.392 .      A
C218  C219  1.391 .      A
C219  C220  1.380 .      A
C220  C221  1.353 .      A
C221  N68   1.340 .      A
C222  C223  1.361 .      A
C222  C227  1.362 .      A
C223  C224  1.366 .      A
C224  C225  1.357 .      A
C225  C226  1.372 .      A
C226  C227  1.356 .      A
C228  N70   1.402 .      A
C228  N72   1.376 .      A
N70   C229  1.346 .      A
C229  C230  1.358 .      A
C229  C234  1.369 .      A
C230  C231  1.374 .      A
C231  C232  1.394 .      A
C232  C233  1.380 .      A
C233  C234  1.368 .      A
C234  N72   1.334 .      A
C235  C236  1.376 .      A
C235  C240  1.367 .      A
C236  C237  1.378 .      A
C237  C238  1.366 .      A
C238  C239  1.379 .      A
C239  C240  1.369 .      A
C241  N74   1.383 .      A
C241  N76   1.391 .      A
N74   C242  1.354 .      A
C242  C243  1.375 .      A
C242  C247  1.364 .      A
C243  C244  1.398 .      A
C244  C245  1.386 1_455  A
C245  C244  1.386 1_655  A
C245  C246  1.376 .      A
C246  C247  1.352 1_655  A
C247  C246  1.352 1_455  A
C247  N76   1.334 .      A
C248  C249  1.368 .      A
C248  C253  1.371 .      A
C249  C250  1.377 .      A
C250  C251  1.373 .      A
C251  C252  1.371 .      A
C252  C253  1.381 .      A
C254  N78   1.398 .      A
C254  N80   1.405 .      A
N78   C255  1.333 .      A
C255  C256  1.370 .      A
C255  C260  1.365 .      A
C256  C257  1.382 .      A
C257  C258  1.390 .      A
C258  C259  1.386 .      A
C259  C260  1.348 .      A
C260  N80   1.346 .      A
C261  C262  1.374 .      A
C261  C266  1.376 1_655  A
C262  C263  1.369 .      A
C263  C264  1.370 1_655  A
C264  C263  1.370 1_455  A
C264  C265  1.376 .      A
C265  C266  1.373 .      A
C266  C261  1.376 1_455  A
C267  N82   1.365 .      A
C267  N84   1.382 .      A
N82   C268  1.330 .      A
C268  C269  1.363 .      A
C268  C273  1.344 .      A
C269  C270  1.372 .      A
C270  C271  1.382 .      A
C271  C272  1.380 .      A
C272  C273  1.349 .      A
C273  N84   1.334 .      A
C274  C275  1.383 .      A
C274  C279  1.371 .      A
C275  C276  1.389 .      A
C276  C277  1.383 .      A
C277  C278  1.383 .      A
C278  C279  1.383 .      A
C280  N86   1.417 .      A
C280  N88   1.377 .      A
N86   C281  1.348 .      A
C281  C282  1.354 .      A
C281  C286  1.369 .      A
C282  C283  1.368 .      A
C283  C284  1.388 .      A
C284  C285  1.365 .      A
C285  C286  1.355 .      A
C286  N88   1.322 .      A
C287  C288  1.364 .      A
C287  C292  1.366 .      A
C288  C289  1.378 .      A
C289  C290  1.373 .      A
C290  C291  1.374 .      A
C291  C292  1.384 .      A
C293  N90   1.404 .      A
C293  N92   1.409 .      A
N90   C294  1.330 1_655  A
C294  N90   1.330 1_455  A
C294  C295  1.366 .      A
C294  C299  1.362 .      A
C295  C296  1.376 .      A
C296  C297  1.387 .      A
C297  C298  1.387 .      A
C298  C299  1.344 .      A
C299  N92   1.344 1_455  A
N92   C299  1.344 1_655  A
C300  C301  1.364 .      A
C300  C305  1.362 1_655  A
C301  C302  1.376 .      A
C302  C303  1.378 .      A
C303  C304  1.365 1_655  A
C304  C303  1.365 1_455  A
C304  C305  1.377 .      A
C305  C300  1.362 1_455  A
C306  N94   1.391 .      A
C306  N96   1.383 .      A
N94   C307  1.357 1_655  A
C307  N94   1.357 1_455  A
C307  C308  1.383 .      A
C307  C312  1.370 1_455  A
C308  C309  1.385 .      A
C309  C310  1.385 .      A
C310  C311  1.380 1_455  A
C311  C310  1.380 1_655  A
C311  C312  1.372 .      A
C312  C307  1.370 1_655  A
C312  N96   1.347 .      A
