data_str_m1_o12038_STF
_audit_creation_date              2015-10-01T06:43:06-0700
_symmetry_space_group_name_H-M    P1
_symmetry_Int_Tables_number       1
_space_group_crystal_system       triclinic
loop_
_symmetry_equiv_pos_as_xyz
  x,y,z
_cell_length_a                    16.4346232
_cell_length_b                    25.4174935
_cell_length_c                    25.3663524
_cell_angle_alpha                 73.8617706
_cell_angle_beta                  97.2207123
_cell_angle_gamma                 77.5055141
_cell_volume                      9740.56102284

loop_
_atom_site_label
_atom_site_type_symbol
_atom_site_description
_atom_site_fract_x
_atom_site_fract_y
_atom_site_fract_z
_atom_type_partial_charge
Zn1   Zn    Zn3+2 0.188962 0.797667 0.618055 0.000000
Zn2   Zn    Zn3+2 0.676751 0.896726 0.820928 0.000000
Zn3   Zn    Zn3+2 0.974471 0.583494 0.146187 0.000000
Zn4   Zn    Zn3+2 0.286755 0.690374 0.403417 0.000000
Zn5   Zn    Zn3+2 0.853261 0.715638 0.685616 0.000000
Zn6   Zn    Zn3+2 0.577908 0.707542 0.019700 0.000000
Zn7   Zn    Zn3+2 0.213620 0.776951 0.126180 0.000000
Zn8   Zn    Zn3+2 0.248024 0.280841 0.652908 0.000000
Zn9   Zn    Zn3+2 0.979247 0.283604 0.835587 0.000000
Zn10  Zn    Zn3+2 0.575056 0.400033 0.718509 0.000000
Zn11  Zn    Zn3+2 0.050693 0.499862 0.417841 0.000000
Zn12  Zn    Zn3+2 0.271341 0.008045 0.709683 0.000000
Zn13  Zn    Zn3+2 0.690692 0.577652 0.517321 0.000000
Zn14  Zn    Zn3+2 0.401468 0.574841 0.851422 0.000000
Zn15  Zn    Zn3+2 0.005746 0.009810 0.891121 0.000000
Zn16  Zn    Zn3+2 0.067710 0.498662 0.920036 0.000000
N1    N     N_2   0.903748 0.948125 0.373053 0.000000
C1    C     C_R   0.974360 0.901774 0.402087 0.000000
C2    C     C_R   0.053825 0.902098 0.390685 0.000000
C3    C     C_R   0.121957 0.856134 0.418819 0.000000
C4    C     C_R   0.112402 0.808873 0.457779 0.000000
C5    C     C_R   0.034371 0.811411 0.472768 0.000000
C6    C     C_R   0.965006 0.856357 0.443344 0.000000
C7    C     C_R   0.189958 0.766898 0.492806 0.000000
N2    N     N_R   0.251700 0.739075 0.467236 0.000000
C8    C     C_R   0.321403 0.745762 0.495269 0.000000
C9    C     C_R   0.400699 0.713257 0.505452 0.000000
C10   C     C_R   0.463907 0.731268 0.528681 0.000000
N3    N     N_2   0.546273 0.694936 0.547636 0.000000
C11   C     C_R   0.443996 0.784795 0.533750 0.000000
C12   C     C_R   0.363273 0.803896 0.542899 0.000000
C13   C     C_R   0.305046 0.775377 0.531121 0.000000
N4    N     N_R   0.224685 0.781270 0.539061 0.000000
H1    H     H_    0.911486 0.972237 0.335011 0.000000
H2    H     H_    0.846008 0.938649 0.373512 0.000000
H3    H     H_    0.063540 0.938544 0.360557 0.000000
H4    H     H_    0.184477 0.859185 0.413429 0.000000
H5    H     H_    0.026861 0.778978 0.507580 0.000000
H6    H     H_    0.903413 0.856148 0.453422 0.000000
H7    H     H_    0.411141 0.671591 0.504322 0.000000
H8    H     H_    0.590787 0.712263 0.562810 0.000000
H9    H     H_    0.549741 0.653119 0.567258 0.000000
H10   H     H_    0.493468 0.804431 0.543588 0.000000
H11   H     H_    0.351368 0.836618 0.561875 0.000000
N5    N     N_2   0.270608 0.552199 0.763154 0.000000
C14   C     C_R   0.206504 0.601981 0.736636 0.000000
C15   C     C_R   0.152692 0.625565 0.765935 0.000000
C16   C     C_R   0.091624 0.675211 0.739406 0.000000
C17   C     C_R   0.085270 0.699828 0.683431 0.000000
C18   C     C_R   0.140278 0.677192 0.654509 0.000000
C19   C     C_R   0.199343 0.627473 0.681217 0.000000
C20   C     C_R   0.028447 0.753462 0.654516 0.000000
N6    N     N_R   0.940521 0.764950 0.649563 0.000000
C21   C     C_R   0.917178 0.817504 0.610602 0.000000
C22   C     C_R   0.836584 0.849560 0.583423 0.000000
C23   C     C_R   0.827630 0.897651 0.538083 0.000000
N7    N     N_2   0.747432 0.925383 0.502730 0.000000
C24   C     C_R   0.898129 0.916408 0.524787 0.000000
C25   C     C_R   0.979107 0.883682 0.551949 0.000000
C26   C     C_R   0.986771 0.834287 0.593819 0.000000
N8    N     N_R   0.059160 0.794970 0.621468 0.000000
H12   H     H_    0.298350 0.552350 0.801072 0.000000
H13   H     H_    0.313694 0.544411 0.738619 0.000000
H14   H     H_    0.155417 0.604781 0.808631 0.000000
H15   H     H_    0.049668 0.694570 0.762224 0.000000
H16   H     H_    0.138381 0.698846 0.611121 0.000000
H17   H     H_    0.241674 0.608977 0.659509 0.000000
H18   H     H_    0.782458 0.833695 0.592938 0.000000
H19   H     H_    0.750089 0.949655 0.463392 0.000000
H20   H     H_    0.706153 0.900055 0.503909 0.000000
H21   H     H_    0.890444 0.954489 0.490237 0.000000
H22   H     H_    0.034575 0.895500 0.539006 0.000000
N9    N     N_2   0.530810 0.994948 0.529466 0.000000
C27   C     C_R   0.584784 0.954639 0.578111 0.000000
C28   C     C_R   0.555071 0.913629 0.611996 0.000000
C29   C     C_R   0.609147 0.873434 0.658525 0.000000
C30   C     C_R   0.694172 0.871893 0.670517 0.000000
C31   C     C_R   0.722501 0.913775 0.637264 0.000000
C32   C     C_R   0.668016 0.955617 0.591910 0.000000
C33   C     C_R   0.747026 0.829521 0.722426 0.000000
N10   N     N_R   0.765071 0.772294 0.722346 0.000000
C34   C     C_R   0.723201 0.751140 0.762760 0.000000
C35   C     C_R   0.702200 0.700169 0.779516 0.000000
C36   C     C_R   0.668263 0.687042 0.826748 0.000000
N11   N     N_2   0.665704 0.630951 0.851812 0.000000
C37   C     C_R   0.637922 0.728827 0.849433 0.000000
C38   C     C_R   0.644473 0.781851 0.824334 0.000000
C39   C     C_R   0.697870 0.789069 0.789532 0.000000
N12   N     N_R   0.718510 0.837415 0.770599 0.000000
H23   H     H_    0.466986 0.000660 0.529726 0.000000
H24   H     H_    0.550449 0.031127 0.514558 0.000000
H25   H     H_    0.489465 0.912803 0.602477 0.000000
H26   H     H_    0.584604 0.842202 0.685254 0.000000
H27   H     H_    0.788095 0.913422 0.645998 0.000000
H28   H     H_    0.691708 0.988411 0.566426 0.000000
H29   H     H_    0.713030 0.668744 0.760801 0.000000
H30   H     H_    0.655979 0.621569 0.892224 0.000000
H31   H     H_    0.707428 0.601103 0.841521 0.000000
H32   H     H_    0.606512 0.721403 0.884400 0.000000
H33   H     H_    0.611044 0.818380 0.830753 0.000000
N13   N     N_2   0.967344 0.847209 0.001382 0.000000
C40   C     C_R   0.895865 0.830021 0.985581 0.000000
C41   C     C_R   0.873668 0.831488 0.931703 0.000000
C42   C     C_R   0.805301 0.812905 0.917249 0.000000
C43   C     C_R   0.760860 0.788794 0.956389 0.000000
C44   C     C_R   0.784713 0.787042 0.011087 0.000000
C45   C     C_R   0.848818 0.810851 0.024019 0.000000
C46   C     C_R   0.671700 0.797698 0.933836 0.000000
N14   N     N_R   0.648669 0.853204 0.899278 0.000000
C47   C     C_R   0.608377 0.879271 0.930995 0.000000
C48   C     C_R   0.592058 0.935887 0.925288 0.000000
C49   C     C_R   0.558081 0.953763 0.966436 0.000000
N15   N     N_2   0.547285 0.010246 0.965653 0.000000
C50   C     C_R   0.532818 0.916297 0.007640 0.000000
C51   C     C_R   0.545336 0.860490 0.009309 0.000000
C52   C     C_R   0.589839 0.840694 0.973963 0.000000
N16   N     N_R   0.618073 0.786437 0.972321 0.000000
H34   H     H_    0.992233 0.863467 0.967317 0.000000
H35   H     H_    0.010957 0.815237 0.032835 0.000000
H36   H     H_    0.908112 0.848011 0.900150 0.000000
H37   H     H_    0.786212 0.818870 0.873496 0.000000
H38   H     H_    0.747169 0.774984 0.042178 0.000000
H39   H     H_    0.856431 0.820392 0.062164 0.000000
H40   H     H_    0.611076 0.964356 0.891873 0.000000
H41   H     H_    0.507521 0.022785 0.990641 0.000000
H42   H     H_    0.540506 0.037480 0.926252 0.000000
H43   H     H_    0.498293 0.931190 0.036528 0.000000
H44   H     H_    0.507531 0.837261 0.029766 0.000000
N17   N     N_2   0.788152 0.382227 0.118314 0.000000
C53   C     C_R   0.789010 0.439492 0.108699 0.000000
C54   C     C_R   0.806273 0.458952 0.152866 0.000000
C55   C     C_R   0.804856 0.515149 0.143577 0.000000
C56   C     C_R   0.780174 0.554204 0.090186 0.000000
C57   C     C_R   0.757425 0.534613 0.046545 0.000000
C58   C     C_R   0.767323 0.477208 0.055308 0.000000
C59   C     C_R   0.775334 0.614502 0.084805 0.000000
N18   N     N_R   0.836042 0.618555 0.125429 0.000000
C60   C     C_R   0.785452 0.641423 0.155829 0.000000
C61   C     C_R   0.805771 0.636329 0.210923 0.000000
C62   C     C_R   0.742181 0.656801 0.237094 0.000000
N19   N     N_2   0.760014 0.663295 0.290325 0.000000
C63   C     C_R   0.658913 0.668600 0.211444 0.000000
C64   C     C_R   0.640206 0.662275 0.159739 0.000000
C65   C     C_R   0.702886 0.658455 0.129507 0.000000
N20   N     N_R   0.694425 0.650515 0.079558 0.000000
H45   H     H_    0.781049 0.361959 0.157976 0.000000
H46   H     H_    0.752470 0.374885 0.086090 0.000000
H47   H     H_    0.820208 0.430393 0.195185 0.000000
H48   H     H_    0.819723 0.527922 0.179848 0.000000
H49   H     H_    0.726686 0.563609 0.005928 0.000000
H50   H     H_    0.749949 0.462338 0.020800 0.000000
H51   H     H_    0.868032 0.613228 0.231779 0.000000
H52   H     H_    0.705833 0.674996 0.305192 0.000000
H53   H     H_    0.795017 0.692020 0.290223 0.000000
H54   H     H_    0.608801 0.682177 0.232083 0.000000
H55   H     H_    0.577764 0.661008 0.143469 0.000000
N21   N     N_2   0.805571 0.841451 0.199202 0.000000
C66   C     C_R   0.858962 0.811863 0.171692 0.000000
C67   C     C_R   0.848103 0.762117 0.164703 0.000000
C68   C     C_R   0.910947 0.728338 0.148096 0.000000
C69   C     C_R   0.983932 0.743895 0.137547 0.000000
C70   C     C_R   0.993008 0.794276 0.143068 0.000000
C71   C     C_R   0.929331 0.828869 0.158641 0.000000
C72   C     C_R   0.055855 0.702182 0.131337 0.000000
N22   N     N_R   0.050324 0.646121 0.139509 0.000000
C73   C     C_R   0.131621 0.618838 0.148119 0.000000
C74   C     C_R   0.161504 0.561052 0.166669 0.000000
C75   C     C_R   0.247519 0.538427 0.180512 0.000000
N23   N     N_2   0.283608 0.479417 0.204470 0.000000
C76   C     C_R   0.299221 0.574431 0.174059 0.000000
C77   C     C_R   0.268370 0.633087 0.157764 0.000000
C78   C     C_R   0.183168 0.654789 0.145240 0.000000
N24   N     N_R   0.139017 0.709875 0.131914 0.000000
H56   H     H_    0.760383 0.822728 0.214486 0.000000
H57   H     H_    0.790624 0.885031 0.183271 0.000000
H58   H     H_    0.792232 0.748883 0.174171 0.000000
H59   H     H_    0.905269 0.688323 0.145854 0.000000
H60   H     H_    0.053919 0.802488 0.141334 0.000000
H61   H     H_    0.939376 0.864527 0.170401 0.000000
H62   H     H_    0.118807 0.534963 0.173536 0.000000
H63   H     H_    0.344353 0.465302 0.198639 0.000000
H64   H     H_    0.243357 0.454630 0.200022 0.000000
H65   H     H_    0.365219 0.554887 0.188516 0.000000
H66   H     H_    0.309044 0.660744 0.158791 0.000000
N25   N     N_2   0.502344 0.528536 0.268474 0.000000
C79   C     C_R   0.443132 0.578013 0.268236 0.000000
C80   C     C_R   0.365515 0.575448 0.281955 0.000000
C81   C     C_R   0.307946 0.623389 0.281796 0.000000
C82   C     C_R   0.325557 0.674943 0.265609 0.000000
C83   C     C_R   0.403777 0.677432 0.252827 0.000000
C84   C     C_R   0.461649 0.629344 0.253458 0.000000
C85   C     C_R   0.265897 0.726685 0.265077 0.000000
N26   N     N_R   0.237391 0.773199 0.215930 0.000000
C86   C     C_R   0.226006 0.816590 0.238016 0.000000
C87   C     C_R   0.218944 0.872953 0.211132 0.000000
C88   C     C_R   0.221511 0.909167 0.243015 0.000000
N27   N     N_2   0.216565 0.966748 0.216679 0.000000
C89   C     C_R   0.234104 0.888357 0.301011 0.000000
C90   C     C_R   0.245478 0.831170 0.327639 0.000000
C91   C     C_R   0.239486 0.796570 0.295611 0.000000
N28   N     N_R   0.260371 0.739578 0.314796 0.000000
H67   H     H_    0.477384 0.494585 0.269303 0.000000
H68   H     H_    0.542715 0.535880 0.241008 0.000000
H69   H     H_    0.348847 0.535735 0.291861 0.000000
H70   H     H_    0.252545 0.619118 0.298541 0.000000
H71   H     H_    0.421618 0.716563 0.244733 0.000000
H72   H     H_    0.520874 0.631852 0.241424 0.000000
H73   H     H_    0.214668 0.888359 0.166569 0.000000
H74   H     H_    0.239004 0.986803 0.243213 0.000000
H75   H     H_    0.237457 0.973932 0.179420 0.000000
H76   H     H_    0.239879 0.916211 0.325821 0.000000
H77   H     H_    0.266149 0.812909 0.372247 0.000000
N29   N     N_2   0.391467 0.512322 0.052750 0.000000
C92   C     C_R   0.392655 0.566618 0.055317 0.000000
C93   C     C_R   0.427532 0.572351 0.104191 0.000000
C94   C     C_R   0.425701 0.625197 0.107808 0.000000
C95   C     C_R   0.383229 0.672830 0.064017 0.000000
C96   C     C_R   0.357795 0.667201 0.012845 0.000000
C97   C     C_R   0.363786 0.613820 0.008424 0.000000
C98   C     C_R   0.393119 0.726042 0.069736 0.000000
N30   N     N_R   0.474251 0.734640 0.066599 0.000000
C99   C     C_R   0.480953 0.763360 0.103989 0.000000
C100  C     C_R   0.551234 0.779672 0.122822 0.000000
C101  C     C_R   0.544210 0.812191 0.158080 0.000000
N31   N     N_2   0.609414 0.837391 0.170002 0.000000
C102  C     C_R   0.471272 0.822778 0.179042 0.000000
C103  C     C_R   0.402945 0.803822 0.162379 0.000000
C104  C     C_R   0.407136 0.775263 0.123683 0.000000
N32   N     N_R   0.345955 0.754359 0.102009 0.000000
H78   H     H_    0.429521 0.479005 0.085902 0.000000
H79   H     H_    0.393130 0.509044 0.013736 0.000000
H80   H     H_    0.457954 0.535200 0.139711 0.000000
H81   H     H_    0.455495 0.629351 0.146128 0.000000
H82   H     H_    0.333395 0.704183 0.976606 0.000000
H83   H     H_    0.345193 0.609199 0.968272 0.000000
H84   H     H_    0.608443 0.771749 0.106200 0.000000
H85   H     H_    0.590668 0.871092 0.184663 0.000000
H86   H     H_    0.643857 0.844578 0.138766 0.000000
H87   H     H_    0.466046 0.848346 0.206598 0.000000
H88   H     H_    0.347008 0.813321 0.178494 0.000000
N33   N     N_2   0.344938 0.071305 0.919716 0.000000
C105  C     C_R   0.275021 0.111703 0.881410 0.000000
C106  C     C_R   0.251472 0.108048 0.829011 0.000000
C107  C     C_R   0.202038 0.155304 0.786972 0.000000
C108  C     C_R   0.169055 0.203236 0.799781 0.000000
C109  C     C_R   0.175248 0.200984 0.854877 0.000000
C110  C     C_R   0.230991 0.156037 0.895811 0.000000
C111  C     C_R   0.124245 0.256579 0.757464 0.000000
N34   N     N_R   0.157402 0.283337 0.711279 0.000000
C112  C     C_R   0.107624 0.335595 0.697463 0.000000
C113  C     C_R   0.121454 0.380973 0.661568 0.000000
C114  C     C_R   0.067066 0.432123 0.653221 0.000000
N35   N     N_2   0.079273 0.478272 0.613901 0.000000
C115  C     C_R   0.006693 0.438591 0.685839 0.000000
C116  C     C_R   0.999055 0.391645 0.726516 0.000000
C117  C     C_R   0.048393 0.340432 0.730137 0.000000
N36   N     N_R   0.055497 0.291220 0.769463 0.000000
H89   H     H_    0.389482 0.053142 0.900837 0.000000
H90   H     H_    0.369360 0.085814 0.950625 0.000000
H91   H     H_    0.273110 0.068757 0.820998 0.000000
H92   H     H_    0.185835 0.154533 0.744997 0.000000
H93   H     H_    0.143555 0.237044 0.865718 0.000000
H94   H     H_    0.244156 0.157576 0.938084 0.000000
H95   H     H_    0.177148 0.377720 0.643554 0.000000
H96   H     H_    0.095368 0.465855 0.580623 0.000000
H97   H     H_    0.129870 0.489407 0.630551 0.000000
H98   H     H_    0.969119 0.480627 0.680595 0.000000
H99   H     H_    0.959417 0.393208 0.756500 0.000000
N37   N     N_2   0.198632 0.556255 0.560099 0.000000
C118  C     C_R   0.257441 0.504501 0.587064 0.000000
C119  C     C_R   0.261935 0.462015 0.563756 0.000000
C120  C     C_R   0.322099 0.412096 0.589429 0.000000
C121  C     C_R   0.363132 0.402139 0.641992 0.000000
C122  C     C_R   0.358650 0.443977 0.665801 0.000000
C123  C     C_R   0.307346 0.496034 0.637381 0.000000
C124  C     C_R   0.410977 0.347073 0.674413 0.000000
N38   N     N_R   0.373967 0.300578 0.686945 0.000000
C125  C     C_R   0.434194 0.265465 0.732010 0.000000
C126  C     C_R   0.426656 0.218808 0.772189 0.000000
C127  C     C_R   0.493689 0.191987 0.818109 0.000000
N39   N     N_2   0.487305 0.147097 0.862914 0.000000
C128  C     C_R   0.566648 0.210378 0.822227 0.000000
C129  C     C_R   0.569963 0.259987 0.784880 0.000000
C130  C     C_R   0.502499 0.287972 0.741599 0.000000
N40   N     N_R   0.489314 0.341311 0.707572 0.000000
H100  H     H_    0.206146 0.574571 0.520223 0.000000
H101  H     H_    0.187739 0.581819 0.584776 0.000000
H102  H     H_    0.221679 0.469878 0.524119 0.000000
H103  H     H_    0.340191 0.380742 0.569789 0.000000
H104  H     H_    0.392567 0.435570 0.707211 0.000000
H105  H     H_    0.303273 0.528424 0.656592 0.000000
H106  H     H_    0.368748 0.205352 0.769323 0.000000
H107  H     H_    0.544407 0.123658 0.888848 0.000000
H108  H     H_    0.441163 0.127428 0.854774 0.000000
H109  H     H_    0.617954 0.189325 0.858147 0.000000
H110  H     H_    0.621048 0.278431 0.792882 0.000000
N41   N     N_2   0.904237 0.257411 0.476498 0.000000
C131  C     C_R   0.948786 0.293053 0.494180 0.000000
C132  C     C_R   0.999513 0.274848 0.546757 0.000000
C133  C     C_R   0.048262 0.307658 0.562925 0.000000
C134  C     C_R   0.046910 0.359440 0.526238 0.000000
C135  C     C_R   0.990961 0.379248 0.474920 0.000000
C136  C     C_R   0.942672 0.346235 0.458822 0.000000
C137  C     C_R   0.118726 0.383705 0.533162 0.000000
N42   N     N_R   0.194113 0.343535 0.565806 0.000000
C138  C     C_R   0.240144 0.342337 0.525540 0.000000
C139  C     C_R   0.310543 0.300074 0.528742 0.000000
C140  C     C_R   0.332704 0.295448 0.479122 0.000000
N43   N     N_2   0.401085 0.250640 0.480011 0.000000
C141  C     C_R   0.284546 0.333036 0.428374 0.000000
C142  C     C_R   0.220333 0.379247 0.426777 0.000000
C143  C     C_R   0.200876 0.384666 0.476169 0.000000
N44   N     N_R   0.128757 0.417976 0.481913 0.000000
H111  H     H_    0.932781 0.214819 0.495495 0.000000
H112  H     H_    0.883820 0.269389 0.433818 0.000000
H113  H     H_    0.006827 0.232987 0.574424 0.000000
H114  H     H_    0.090783 0.290434 0.603165 0.000000
H115  H     H_    0.986118 0.419643 0.445201 0.000000
H116  H     H_    0.901907 0.361876 0.417812 0.000000
H117  H     H_    0.341767 0.268225 0.568173 0.000000
H118  H     H_    0.424099 0.256830 0.443497 0.000000
H119  H     H_    0.446376 0.236048 0.516319 0.000000
H120  H     H_    0.299149 0.327715 0.389476 0.000000
H121  H     H_    0.184372 0.408677 0.387363 0.000000
N45   N     N_2   0.632801 0.089415 0.786806 0.000000
C144  C     C_R   0.547168 0.102869 0.760289 0.000000
C145  C     C_R   0.517040 0.144294 0.709063 0.000000
C146  C     C_R   0.432698 0.157952 0.684093 0.000000
C147  C     C_R   0.378326 0.129776 0.710072 0.000000
C148  C     C_R   0.409715 0.087081 0.759156 0.000000
C149  C     C_R   0.493408 0.073718 0.784945 0.000000
C150  C     C_R   0.290300 0.142323 0.682001 0.000000
N46   N     N_R   0.254458 0.196172 0.644214 0.000000
C151  C     C_R   0.205545 0.183799 0.604353 0.000000
C152  C     C_R   0.177988 0.214585 0.548474 0.000000
C153  C     C_R   0.140151 0.190952 0.512197 0.000000
N47   N     N_2   0.113634 0.221646 0.454644 0.000000
C154  C     C_R   0.129430 0.136966 0.532072 0.000000
C155  C     C_R   0.161807 0.105051 0.587293 0.000000
C156  C     C_R   0.202493 0.128261 0.621938 0.000000
N48   N     N_R   0.253706 0.099781 0.672114 0.000000
H122  H     H_    0.672362 0.097595 0.759124 0.000000
H123  H     H_    0.652904 0.050041 0.816560 0.000000
H124  H     H_    0.558496 0.166782 0.688504 0.000000
H125  H     H_    0.410726 0.190093 0.643756 0.000000
H126  H     H_    0.368614 0.062594 0.775034 0.000000
H127  H     H_    0.516416 0.040206 0.824284 0.000000
H128  H     H_    0.185969 0.255790 0.531994 0.000000
H129  H     H_    0.067518 0.208938 0.433791 0.000000
H130  H     H_    0.105745 0.264738 0.445051 0.000000
H131  H     H_    0.099457 0.118503 0.503968 0.000000
H132  H     H_    0.157536 0.062066 0.602010 0.000000
N49   N     N_2   0.699244 0.198910 0.669868 0.000000
C157  C     C_R   0.757524 0.184226 0.720664 0.000000
C158  C     C_R   0.814161 0.131914 0.741954 0.000000
C159  C     C_R   0.877548 0.119757 0.788196 0.000000
C160  C     C_R   0.884042 0.160130 0.813035 0.000000
C161  C     C_R   0.814659 0.205418 0.800015 0.000000
C162  C     C_R   0.755490 0.220597 0.751277 0.000000
C163  C     C_R   0.956100 0.150005 0.858836 0.000000
N50   N     N_R   0.990453 0.096015 0.897604 0.000000
C164  C     C_R   0.034459 0.109051 0.939280 0.000000
C165  C     C_R   0.069839 0.075651 0.993510 0.000000
C166  C     C_R   0.106698 0.098986 0.030511 0.000000
N51   N     N_2   0.141037 0.065453 0.086594 0.000000
C167  C     C_R   0.111663 0.154613 0.012462 0.000000
C168  C     C_R   0.075496 0.188119 0.958203 0.000000
C169  C     C_R   0.034210 0.165234 0.923442 0.000000
N52   N     N_R   0.987263 0.193372 0.872036 0.000000
H133  H     H_    0.692047 0.165263 0.656387 0.000000
H134  H     H_    0.644739 0.229809 0.665803 0.000000
H135  H     H_    0.808498 0.101789 0.721031 0.000000
H136  H     H_    0.925333 0.080473 0.803798 0.000000
H137  H     H_    0.804762 0.226546 0.829693 0.000000
H138  H     H_    0.707596 0.260352 0.737098 0.000000
H139  H     H_    0.070209 0.032339 0.007965 0.000000
H140  H     H_    0.147794 0.088501 0.113642 0.000000
H141  H     H_    0.114936 0.032002 0.100244 0.000000
H142  H     H_    0.142781 0.172282 0.040862 0.000000
H143  H     H_    0.078795 0.231449 0.944029 0.000000
N53   N     N_2   0.357161 0.226327 0.892013 0.000000
C170  C     C_R   0.288279 0.270661 0.890238 0.000000
C171  C     C_R   0.260750 0.273331 0.938654 0.000000
C172  C     C_R   0.190152 0.314883 0.935889 0.000000
C173  C     C_R   0.146445 0.353458 0.885068 0.000000
C174  C     C_R   0.174411 0.350686 0.837078 0.000000
C175  C     C_R   0.246241 0.310032 0.839433 0.000000
C176  C     C_R   0.058106 0.378543 0.882784 0.000000
N54   N     N_R   0.009442 0.338957 0.888461 0.000000
C177  C     C_R   0.969863 0.349460 0.929773 0.000000
C178  C     C_R   0.947796 0.310560 0.971434 0.000000
C179  C     C_R   0.920750 0.326132 0.015645 0.000000
N55   N     N_2   0.901049 0.286028 0.059637 0.000000
C180  C     C_R   0.916607 0.380223 0.018061 0.000000
C181  C     C_R   0.946116 0.417172 0.979254 0.000000
C182  C     C_R   0.981094 0.398200 0.939534 0.000000
N56   N     N_R   0.037739 0.418645 0.911421 0.000000
H144  H     H_    0.376389 0.194508 0.929901 0.000000
H145  H     H_    0.346459 0.212954 0.857927 0.000000
H146  H     H_    0.292135 0.241880 0.978523 0.000000
H147  H     H_    0.164589 0.313954 0.973216 0.000000
H148  H     H_    0.137764 0.378760 0.797586 0.000000
H149  H     H_    0.267517 0.307756 0.801306 0.000000
H150  H     H_    0.960321 0.266860 0.974158 0.000000
H151  H     H_    0.907137 0.294519 0.097077 0.000000
H152  H     H_    0.926182 0.244422 0.062245 0.000000
H153  H     H_    0.898848 0.391721 0.053386 0.000000
H154  H     H_    0.948783 0.457535 0.983750 0.000000
N57   N     N_2   0.905355 0.389824 0.567205 0.000000
C183  C     C_R   0.882804 0.375070 0.619065 0.000000
C184  C     C_R   0.831810 0.416040 0.632879 0.000000
C185  C     C_R   0.788792 0.401147 0.674460 0.000000
C186  C     C_R   0.809245 0.347814 0.709192 0.000000
C187  C     C_R   0.873043 0.307800 0.701693 0.000000
C188  C     C_R   0.904428 0.319897 0.653288 0.000000
C189  C     C_R   0.784710 0.339473 0.762255 0.000000
N58   N     N_R   0.702082 0.356430 0.771311 0.000000
C190  C     C_R   0.718383 0.341310 0.828308 0.000000
C191  C     C_R   0.668081 0.353711 0.864825 0.000000
C192  C     C_R   0.694967 0.323990 0.921158 0.000000
N59   N     N_2   0.644480 0.335677 0.959305 0.000000
C193  C     C_R   0.770296 0.282029 0.939731 0.000000
C194  C     C_R   0.825116 0.277775 0.903556 0.000000
C195  C     C_R   0.801456 0.314088 0.849982 0.000000
N60   N     N_R   0.847156 0.315212 0.809782 0.000000
H155  H     H_    0.877203 0.370662 0.542338 0.000000
H156  H     H_    0.892303 0.432795 0.548475 0.000000
H157  H     H_    0.818314 0.459257 0.606912 0.000000
H158  H     H_    0.745056 0.432823 0.683968 0.000000
H159  H     H_    0.899089 0.268014 0.734341 0.000000
H160  H     H_    0.950270 0.287751 0.644697 0.000000
H161  H     H_    0.613539 0.388715 0.852141 0.000000
H162  H     H_    0.677857 0.322853 0.999839 0.000000
H163  H     H_    0.605260 0.376254 0.944995 0.000000
H164  H     H_    0.788395 0.254791 0.982752 0.000000
H165  H     H_    0.882758 0.244474 0.916140 0.000000
N61   N     N_2   0.285174 0.642913 0.574728 0.000000
C196  C     C_R   0.365080 0.604767 0.585562 0.000000
C197  C     C_R   0.387770 0.578489 0.547565 0.000000
C198  C     C_R   0.468030 0.544043 0.557802 0.000000
C199  C     C_R   0.528217 0.541930 0.601661 0.000000
C200  C     C_R   0.503647 0.564864 0.641529 0.000000
C201  C     C_R   0.420033 0.593141 0.634766 0.000000
C202  C     C_R   0.606562 0.499043 0.613592 0.000000
N62   N     N_R   0.654153 0.502150 0.571187 0.000000
C203  C     C_R   0.662662 0.448682 0.566442 0.000000
C204  C     C_R   0.705803 0.423068 0.532719 0.000000
C205  C     C_R   0.704786 0.367605 0.535927 0.000000
N63   N     N_2   0.746164 0.340666 0.501237 0.000000
C206  C     C_R   0.666298 0.337139 0.574770 0.000000
C207  C     C_R   0.630448 0.360836 0.611799 0.000000
C208  C     C_R   0.628340 0.416333 0.606049 0.000000
N64   N     N_R   0.599425 0.444831 0.639824 0.000000
H166  H     H_    0.248476 0.651832 0.535984 0.000000
H167  H     H_    0.283307 0.674050 0.593394 0.000000
H168  H     H_    0.343722 0.586682 0.509273 0.000000
H169  H     H_    0.483673 0.517949 0.531660 0.000000
H170  H     H_    0.549250 0.558897 0.678155 0.000000
H171  H     H_    0.395465 0.604878 0.668033 0.000000
H172  H     H_    0.743256 0.443948 0.506241 0.000000
H173  H     H_    0.760469 0.367232 0.467150 0.000000
H174  H     H_    0.723020 0.308084 0.494475 0.000000
H175  H     H_    0.667025 0.293910 0.577398 0.000000
H176  H     H_    0.603836 0.336539 0.643848 0.000000
N65   N     N_2   0.448107 0.281710 0.951720 0.000000
C209  C     C_R   0.434851 0.326144 0.901044 0.000000
C210  C     C_R   0.490190 0.322765 0.866222 0.000000
C211  C     C_R   0.481523 0.368331 0.819816 0.000000
C212  C     C_R   0.430338 0.420915 0.814720 0.000000
C213  C     C_R   0.365002 0.421069 0.843006 0.000000
C214  C     C_R   0.365144 0.372220 0.884048 0.000000
C215  C     C_R   0.459362 0.471593 0.787985 0.000000
N66   N     N_R   0.467059 0.512548 0.815169 0.000000
C216  C     C_R   0.545662 0.516447 0.810385 0.000000
C217  C     C_R   0.598937 0.526210 0.849878 0.000000
C218  C     C_R   0.683082 0.497724 0.860945 0.000000
N67   N     N_2   0.735621 0.491560 0.911512 0.000000
C219  C     C_R   0.713925 0.471197 0.824660 0.000000
C220  C     C_R   0.661682 0.474744 0.776490 0.000000
C221  C     C_R   0.576993 0.488873 0.775447 0.000000
N68   N     N_R   0.523357 0.461374 0.758130 0.000000
H177  H     H_    0.510321 0.258269 0.966934 0.000000
H178  H     H_    0.414359 0.291033 0.980782 0.000000
H179  H     H_    0.543257 0.285893 0.877202 0.000000
H180  H     H_    0.528726 0.364226 0.795179 0.000000
H181  H     H_    0.315498 0.458715 0.835391 0.000000
H182  H     H_    0.313841 0.371928 0.905725 0.000000
H183  H     H_    0.574776 0.544297 0.879106 0.000000
H184  H     H_    0.799030 0.483243 0.910168 0.000000
H185  H     H_    0.713320 0.521578 0.929846 0.000000
H186  H     H_    0.776130 0.442814 0.836929 0.000000
H187  H     H_    0.685534 0.455338 0.747564 0.000000
N69   N     N_2   0.032951 0.767955 0.262933 0.000000
C222  C     C_R   0.030289 0.711919 0.268478 0.000000
C223  C     C_R   0.095731 0.675567 0.258271 0.000000
C224  C     C_R   0.095300 0.620341 0.264841 0.000000
C225  C     C_R   0.029687 0.600862 0.282647 0.000000
C226  C     C_R   0.964898 0.636939 0.293977 0.000000
C227  C     C_R   0.961630 0.693616 0.282659 0.000000
C228  C     C_R   0.024484 0.544517 0.282996 0.000000
N70   N     N_R   0.006502 0.531654 0.233552 0.000000
C229  C     C_R   0.008789 0.476210 0.253790 0.000000
C230  C     C_R   0.989060 0.441741 0.223939 0.000000
C231  C     C_R   0.995541 0.385509 0.252644 0.000000
N71   N     N_2   0.977810 0.348479 0.223073 0.000000
C232  C     C_R   0.018971 0.365529 0.310583 0.000000
C233  C     C_R   0.034894 0.401484 0.340328 0.000000
C234  C     C_R   0.029091 0.457009 0.311252 0.000000
N72   N     N_R   0.036589 0.499790 0.332088 0.000000
H188  H     H_    0.980497 0.792969 0.270198 0.000000
H189  H     H_    0.091167 0.772805 0.276784 0.000000
H190  H     H_    0.143771 0.691736 0.240391 0.000000
H191  H     H_    0.146635 0.592016 0.256287 0.000000
H192  H     H_    0.916621 0.619932 0.311920 0.000000
H193  H     H_    0.908478 0.722870 0.288880 0.000000
H194  H     H_    0.970039 0.458156 0.179059 0.000000
H195  H     H_    0.005620 0.306160 0.244241 0.000000
H196  H     H_    0.980722 0.361825 0.181342 0.000000
H197  H     H_    0.023939 0.321679 0.332974 0.000000
H198  H     H_    0.053500 0.385322 0.384937 0.000000
N73   N     N_2   0.443780 0.374650 0.416419 0.000000
C235  C     C_R   0.381571 0.422389 0.416797 0.000000
C236  C     C_R   0.385566 0.441198 0.462677 0.000000
C237  C     C_R   0.330277 0.491514 0.460171 0.000000
C238  C     C_R   0.265068 0.520958 0.414694 0.000000
C239  C     C_R   0.257948 0.499422 0.370574 0.000000
C240  C     C_R   0.318389 0.452384 0.370169 0.000000
C241  C     C_R   0.199667 0.571553 0.414124 0.000000
N74   N     N_R   0.210772 0.626761 0.409329 0.000000
C242  C     C_R   0.129679 0.655541 0.404598 0.000000
C243  C     C_R   0.099925 0.713067 0.393601 0.000000
C244  C     C_R   0.013613 0.735290 0.388598 0.000000
N75   N     N_2   0.977533 0.794230 0.367620 0.000000
C245  C     C_R   0.960524 0.699920 0.397959 0.000000
C246  C     C_R   0.989966 0.643254 0.404372 0.000000
C247  C     C_R   0.075216 0.621542 0.407345 0.000000
N76   N     N_R   0.116315 0.567424 0.413937 0.000000
H199  H     H_    0.498646 0.363949 0.445929 0.000000
H200  H     H_    0.451586 0.373668 0.377055 0.000000
H201  H     H_    0.435927 0.419226 0.499018 0.000000
H202  H     H_    0.340079 0.508302 0.493752 0.000000
H203  H     H_    0.206315 0.519949 0.335342 0.000000
H204  H     H_    0.313660 0.437790 0.334004 0.000000
H205  H     H_    0.141170 0.740652 0.384817 0.000000
H206  H     H_    0.913994 0.806315 0.349406 0.000000
H207  H     H_    0.015365 0.816842 0.347146 0.000000
H208  H     H_    0.893672 0.717575 0.393136 0.000000
H209  H     H_    0.945584 0.617801 0.405107 0.000000
N77   N     N_2   0.001824 0.672292 0.572627 0.000000
C248  C     C_R   0.982889 0.625643 0.560005 0.000000
C249  C     C_R   0.024943 0.604880 0.525173 0.000000
C250  C     C_R   0.006471 0.560191 0.511363 0.000000
C251  C     C_R   0.934226 0.545999 0.522509 0.000000
C252  C     C_R   0.898688 0.560763 0.562845 0.000000
C253  C     C_R   0.927269 0.598332 0.584074 0.000000
C254  C     C_R   0.883497 0.534540 0.479822 0.000000
N78   N     N_R   0.919985 0.520479 0.437024 0.000000
C255  C     C_R   0.849259 0.527691 0.399876 0.000000
C256  C     C_R   0.843439 0.509366 0.354127 0.000000
C257  C     C_R   0.764364 0.521080 0.321159 0.000000
N79   N     N_2   0.754138 0.497243 0.277734 0.000000
C258  C     C_R   0.695173 0.556338 0.330845 0.000000
C259  C     C_R   0.702184 0.573557 0.377778 0.000000
C260  C     C_R   0.777207 0.551045 0.416216 0.000000
N80   N     N_R   0.794044 0.552699 0.469414 0.000000
H210  H     H_    0.033404 0.692926 0.544872 0.000000
H211  H     H_    0.953853 0.697352 0.583542 0.000000
H212  H     H_    0.070522 0.625250 0.507842 0.000000
H213  H     H_    0.042912 0.540251 0.487125 0.000000
H214  H     H_    0.846020 0.545622 0.574710 0.000000
H215  H     H_    0.901269 0.608355 0.616640 0.000000
H216  H     H_    0.896598 0.481427 0.347769 0.000000
H217  H     H_    0.706552 0.522121 0.244157 0.000000
H218  H     H_    0.810312 0.478039 0.269030 0.000000
H219  H     H_    0.634902 0.568958 0.302782 0.000000
H220  H     H_    0.649758 0.603558 0.383497 0.000000
N81   N     N_2   0.885425 0.190351 0.600302 0.000000
C261  C     C_R   0.954409 0.155757 0.643810 0.000000
C262  C     C_R   0.968287 0.167927 0.692952 0.000000
C263  C     C_R   0.028929 0.131337 0.738136 0.000000
C264  C     C_R   0.073035 0.080608 0.734948 0.000000
C265  C     C_R   0.063786 0.070136 0.684342 0.000000
C266  C     C_R   0.006286 0.108394 0.638331 0.000000
C267  C     C_R   0.124234 0.034792 0.784140 0.000000
N82   N     N_R   0.091905 0.011235 0.832063 0.000000
C268  C     C_R   0.142008 0.959343 0.850183 0.000000
C269  C     C_R   0.120366 0.914521 0.883570 0.000000
C270  C     C_R   0.175826 0.862800 0.897395 0.000000
N83   N     N_2   0.163007 0.814914 0.935825 0.000000
C271  C     C_R   0.244586 0.857692 0.872509 0.000000
C272  C     C_R   0.259591 0.902486 0.832774 0.000000
C273  C     C_R   0.205791 0.953402 0.821259 0.000000
N84   N     N_R   0.197174 0.999772 0.777342 0.000000
H221  H     H_    0.838823 0.215723 0.612591 0.000000
H222  H     H_    0.864511 0.170208 0.573373 0.000000
H223  H     H_    0.926601 0.203804 0.697451 0.000000
H224  H     H_    0.037976 0.140734 0.776894 0.000000
H225  H     H_    0.097723 0.030195 0.681195 0.000000
H226  H     H_    0.996419 0.098221 0.599764 0.000000
H227  H     H_    0.058848 0.918566 0.894449 0.000000
H228  H     H_    0.218447 0.785325 0.958217 0.000000
H229  H     H_    0.119104 0.823875 0.959427 0.000000
H230  H     H_    0.285861 0.817348 0.884898 0.000000
H231  H     H_    0.306053 0.897803 0.807361 0.000000
N85   N     N_2   0.365325 0.842795 0.977255 0.000000
C274  C     C_R   0.397849 0.869886 0.931981 0.000000
C275  C     C_R   0.382297 0.927904 0.912944 0.000000
C276  C     C_R   0.409277 0.952700 0.865311 0.000000
C277  C     C_R   0.448871 0.920289 0.835939 0.000000
C278  C     C_R   0.463178 0.862841 0.855496 0.000000
C279  C     C_R   0.442027 0.837596 0.904851 0.000000
C280  C     C_R   0.469614 0.946665 0.782575 0.000000
N86   N     N_R   0.406627 0.978982 0.735990 0.000000
C281  C     C_R   0.453677 0.999726 0.699273 0.000000
C282  C     C_R   0.424500 0.039887 0.647739 0.000000
C283  C     C_R   0.480445 0.063927 0.619383 0.000000
N87   N     N_2   0.450487 0.105690 0.566438 0.000000
C284  C     C_R   0.563779 0.051816 0.646085 0.000000
C285  C     C_R   0.590517 0.013935 0.699473 0.000000
C286  C     C_R   0.537804 0.983321 0.722957 0.000000
N88   N     N_R   0.552404 0.947203 0.775446 0.000000
H232  H     H_    0.307482 0.866531 0.977700 0.000000
H233  H     H_    0.362763 0.803152 0.976370 0.000000
H234  H     H_    0.349253 0.953831 0.934748 0.000000
H235  H     H_    0.398783 0.997339 0.851053 0.000000
H236  H     H_    0.486453 0.837971 0.830785 0.000000
H237  H     H_    0.461727 0.792288 0.923505 0.000000
H238  H     H_    0.359008 0.055962 0.631853 0.000000
H239  H     H_    0.489824 0.131628 0.555502 0.000000
H240  H     H_    0.386493 0.125407 0.557937 0.000000
H241  H     H_    0.605822 0.075713 0.627713 0.000000
H242  H     H_    0.643992 0.017140 0.725350 0.000000
N89   N     N_2   0.915253 0.872050 0.732230 0.000000
C287  C     C_R   0.977751 0.898840 0.714349 0.000000
C288  C     C_R   0.976534 0.921370 0.658564 0.000000
C289  C     C_R   0.048141 0.934283 0.642027 0.000000
C290  C     C_R   0.121847 0.917156 0.681408 0.000000
C291  C     C_R   0.118146 0.901760 0.736171 0.000000
C292  C     C_R   0.042393 0.901172 0.752363 0.000000
C293  C     C_R   0.202204 0.909583 0.663508 0.000000
N90   N     N_R   0.208888 0.879860 0.624601 0.000000
C294  C     C_R   0.234329 0.915758 0.584347 0.000000
C295  C     C_R   0.225144 0.917993 0.528990 0.000000
C296  C     C_R   0.250687 0.959431 0.492024 0.000000
N91   N     N_2   0.247149 0.960974 0.435810 0.000000
C297  C     C_R   0.278332 0.000179 0.510052 0.000000
C298  C     C_R   0.278663 0.000839 0.564264 0.000000
C299  C     C_R   0.255331 0.958694 0.601796 0.000000
N92   N     N_R   0.238736 0.955764 0.653917 0.000000
H243  H     H_    0.904553 0.844453 0.710962 0.000000
H244  H     H_    0.922157 0.856084 0.774955 0.000000
H245  H     H_    0.919851 0.928668 0.628428 0.000000
H246  H     H_    0.049024 0.951583 0.598212 0.000000
H247  H     H_    0.175267 0.880207 0.764874 0.000000
H248  H     H_    0.039571 0.890257 0.796113 0.000000
H249  H     H_    0.198023 0.888374 0.514594 0.000000
H250  H     H_    0.281028 0.986572 0.414677 0.000000
H251  H     H_    0.257587 0.921481 0.430844 0.000000
H252  H     H_    0.295607 0.033907 0.480875 0.000000
H253  H     H_    0.290506 0.036876 0.573047 0.000000
N93   N     N_2   0.487987 0.898300 0.318725 0.000000
C300  C     C_R   0.493785 0.841149 0.347722 0.000000
C301  C     C_R   0.545831 0.814623 0.399455 0.000000
C302  C     C_R   0.550773 0.758866 0.427853 0.000000
C303  C     C_R   0.502689 0.728617 0.406079 0.000000
C304  C     C_R   0.452499 0.755628 0.353455 0.000000
C305  C     C_R   0.447449 0.811233 0.324662 0.000000
C306  C     C_R   0.499267 0.669582 0.434794 0.000000
N94   N     N_R   0.569866 0.622819 0.462286 0.000000
C307  C     C_R   0.540061 0.581526 0.451144 0.000000
C308  C     C_R   0.589782 0.532085 0.449945 0.000000
C309  C     C_R   0.556737 0.502485 0.419195 0.000000
N95   N     N_2   0.609861 0.460581 0.403294 0.000000
C310  C     C_R   0.472025 0.520040 0.396573 0.000000
C311  C     C_R   0.420587 0.568113 0.402382 0.000000
C312  C     C_R   0.456755 0.599210 0.427851 0.000000
N96   N     N_R   0.424590 0.653912 0.421280 0.000000
H254  H     H_    0.539247 0.912214 0.331181 0.000000
H255  H     H_    0.466284 0.909939 0.276202 0.000000
H256  H     H_    0.582852 0.837383 0.418386 0.000000
H257  H     H_    0.591088 0.740959 0.467750 0.000000
H258  H     H_    0.417734 0.732808 0.333735 0.000000
H259  H     H_    0.406114 0.831238 0.284134 0.000000
H260  H     H_    0.655799 0.523027 0.464368 0.000000
H261  H     H_    0.585285 0.427987 0.398180 0.000000
H262  H     H_    0.674031 0.452830 0.416837 0.000000
H263  H     H_    0.449067 0.497697 0.370707 0.000000
H264  H     H_    0.355639 0.585120 0.383069 0.000000
N97   N     N_2   0.899989 0.471548 0.809203 0.000000
C313  C     C_R   0.843916 0.512211 0.762343 0.000000
C314  C     C_R   0.824532 0.500397 0.714606 0.000000
C315  C     C_R   0.775501 0.541331 0.667316 0.000000
C316  C     C_R   0.764877 0.596102 0.665704 0.000000
C317  C     C_R   0.786104 0.606932 0.713564 0.000000
C318  C     C_R   0.809557 0.564708 0.763155 0.000000
C319  C     C_R   0.752195 0.641145 0.614402 0.000000
N98   N     N_R   0.729101 0.633425 0.562394 0.000000
C320  C     C_R   0.745857 0.678201 0.528049 0.000000
C321  C     C_R   0.739158 0.688811 0.471318 0.000000
C322  C     C_R   0.754940 0.738120 0.440761 0.000000
N99   N     N_2   0.736184 0.755562 0.381727 0.000000
C323  C     C_R   0.789547 0.770236 0.468497 0.000000
C324  C     C_R   0.804970 0.754678 0.526381 0.000000
C325  C     C_R   0.777806 0.710485 0.556656 0.000000
N100  N     N_R   0.785803 0.688089 0.613565 0.000000
H265  H     H_    0.894408 0.481344 0.845220 0.000000
H266  H     H_    0.899269 0.430684 0.811945 0.000000
H267  H     H_    0.851548 0.459494 0.715001 0.000000
H268  H     H_    0.758686 0.531525 0.630022 0.000000
H269  H     H_    0.788900 0.648454 0.711417 0.000000
H270  H     H_    0.813801 0.573475 0.801204 0.000000
H271  H     H_    0.714413 0.662192 0.450607 0.000000
H272  H     H_    0.728637 0.798244 0.362952 0.000000
H273  H     H_    0.692090 0.738315 0.365148 0.000000
H274  H     H_    0.807257 0.806759 0.444747 0.000000
H275  H     H_    0.843924 0.773760 0.546200 0.000000
N101  N     N_2   0.623161 0.739865 0.643808 0.000000
C326  C     C_R   0.552878 0.723204 0.662358 0.000000
C327  C     C_R   0.477794 0.763344 0.651224 0.000000
C328  C     C_R   0.405832 0.748221 0.663642 0.000000
C329  C     C_R   0.410081 0.693463 0.694835 0.000000
C330  C     C_R   0.488125 0.654358 0.711831 0.000000
C331  C     C_R   0.558363 0.667992 0.692903 0.000000
C332  C     C_R   0.335088 0.684395 0.717989 0.000000
N102  N     N_R   0.261858 0.729749 0.695428 0.000000
C333  C     C_R   0.234015 0.731619 0.742106 0.000000
C334  C     C_R   0.167718 0.771027 0.747088 0.000000
C335  C     C_R   0.158014 0.767694 0.800461 0.000000
N103  N     N_2   0.078948 0.790266 0.810852 0.000000
C336  C     C_R   0.222560 0.735086 0.844360 0.000000
C337  C     C_R   0.276575 0.688258 0.839644 0.000000
C338  C     C_R   0.280533 0.687412 0.787534 0.000000
N104  N     N_R   0.341248 0.652093 0.774820 0.000000
H276  H     H_    0.613703 0.782497 0.624374 0.000000
H277  H     H_    0.680292 0.718911 0.669540 0.000000
H278  H     H_    0.474611 0.807603 0.632512 0.000000
H279  H     H_    0.349086 0.782468 0.653522 0.000000
H280  H     H_    0.493633 0.612810 0.738979 0.000000
H281  H     H_    0.617425 0.635676 0.704132 0.000000
H282  H     H_    0.123856 0.801992 0.711629 0.000000
H283  H     H_    0.078767 0.789919 0.851215 0.000000
H284  H     H_    0.031432 0.777277 0.791942 0.000000
H285  H     H_    0.227139 0.742681 0.883696 0.000000
H286  H     H_    0.320275 0.657054 0.875145 0.000000
N105  N     N_2   0.154868 0.690408 0.030627 0.000000
C339  C     C_R   0.172940 0.652408 0.000345 0.000000
C340  C     C_R   0.162363 0.673998 0.944301 0.000000
C341  C     C_R   0.172355 0.639544 0.911302 0.000000
C342  C     C_R   0.205474 0.583055 0.935190 0.000000
C343  C     C_R   0.211764 0.559945 0.992403 0.000000
C344  C     C_R   0.194586 0.594681 0.024830 0.000000
C345  C     C_R   0.226993 0.545992 0.901827 0.000000
N106  N     N_R   0.312704 0.531785 0.897894 0.000000
C346  C     C_R   0.334851 0.476248 0.930146 0.000000
C347  C     C_R   0.414282 0.440950 0.954868 0.000000
C348  C     C_R   0.421472 0.393822 0.000923 0.000000
N107  N     N_2   0.501287 0.362795 0.035153 0.000000
C349  C     C_R   0.349524 0.378044 0.015024 0.000000
C350  C     C_R   0.270540 0.408688 0.983236 0.000000
C351  C     C_R   0.264819 0.458073 0.942106 0.000000
N108  N     N_R   0.194262 0.499783 0.917920 0.000000
H287  H     H_    0.206975 0.704434 0.040664 0.000000
H288  H     H_    0.105060 0.725156 0.009028 0.000000
H289  H     H_    0.135701 0.718570 0.926729 0.000000
H290  H     H_    0.148232 0.656152 0.867020 0.000000
H291  H     H_    0.231498 0.514763 0.013232 0.000000
H292  H     H_    0.201298 0.576124 0.068853 0.000000
H293  H     H_    0.467703 0.449092 0.937872 0.000000
H294  H     H_    0.507984 0.320202 0.053811 0.000000
H295  H     H_    0.552651 0.375354 0.022395 0.000000
H296  H     H_    0.355250 0.340855 0.050164 0.000000
H297  H     H_    0.215272 0.395193 0.991843 0.000000
N109  N     N_2   0.397099 0.841794 0.723959 0.000000
C352  C     C_R   0.412711 0.791382 0.768955 0.000000
C353  C     C_R   0.364639 0.787265 0.808717 0.000000
C354  C     C_R   0.398213 0.746984 0.860655 0.000000
C355  C     C_R   0.460306 0.701476 0.865125 0.000000
C356  C     C_R   0.484304 0.696461 0.817290 0.000000
C357  C     C_R   0.478366 0.745826 0.776095 0.000000
C358  C     C_R   0.487626 0.654606 0.916310 0.000000
N110  N     N_R   0.529546 0.656569 0.968061 0.000000
C359  C     C_R   0.548396 0.600964 0.997802 0.000000
C360  C     C_R   0.578258 0.577039 0.054435 0.000000
C361  C     C_R   0.590576 0.519024 0.078034 0.000000
N111  N     N_2   0.611726 0.493878 0.136680 0.000000
C362  C     C_R   0.581373 0.485813 0.043929 0.000000
C363  C     C_R   0.551237 0.510892 0.987145 0.000000
C364  C     C_R   0.524770 0.568829 0.966120 0.000000
N112  N     N_R   0.480419 0.601487 0.914404 0.000000
H298  H     H_    0.364197 0.876768 0.732298 0.000000
H299  H     H_    0.450034 0.847253 0.707846 0.000000
H300  H     H_    0.304262 0.816710 0.799180 0.000000
H301  H     H_    0.370607 0.743794 0.896852 0.000000
H302  H     H_    0.520647 0.656463 0.816595 0.000000
H303  H     H_    0.524448 0.748057 0.750353 0.000000
H304  H     H_    0.583584 0.603065 0.080717 0.000000
H305  H     H_    0.634134 0.450361 0.151427 0.000000
H306  H     H_    0.634176 0.517672 0.158962 0.000000
H307  H     H_    0.598445 0.440180 0.061689 0.000000
H308  H     H_    0.556058 0.485682 0.960009 0.000000
N113  N     N_2   0.696608 0.057753 0.035890 0.000000
C365  C     C_R   0.727119 0.034504 0.995483 0.000000
C366  C     C_R   0.737366 0.977589 0.002269 0.000000
C367  C     C_R   0.763706 0.955429 0.961545 0.000000
C368  C     C_R   0.786229 0.988509 0.915895 0.000000
C369  C     C_R   0.776041 0.045570 0.909361 0.000000
C370  C     C_R   0.745386 0.068696 0.948414 0.000000
C371  C     C_R   0.822814 0.965701 0.874222 0.000000
N114  N     N_R   0.892076 0.984021 0.855080 0.000000
C372  C     C_R   0.880642 0.978098 0.803278 0.000000
C373  C     C_R   0.913779 0.002164 0.757978 0.000000
C374  C     C_R   0.869569 0.010194 0.704742 0.000000
N115  N     N_2   0.888478 0.044292 0.656529 0.000000
C375  C     C_R   0.801661 0.988351 0.698148 0.000000
C376  C     C_R   0.781813 0.953461 0.743624 0.000000
C377  C     C_R   0.815479 0.953623 0.795010 0.000000
N116  N     N_R   0.777424 0.942319 0.838838 0.000000
H309  H     H_    0.705429 0.028535 0.074854 0.000000
H310  H     H_    0.710959 0.095336 0.035294 0.000000
H311  H     H_    0.721403 0.950532 0.038376 0.000000
H312  H     H_    0.763998 0.912686 0.964927 0.000000
H313  H     H_    0.791612 0.072712 0.873278 0.000000
H314  H     H_    0.737284 0.113475 0.942317 0.000000
H315  H     H_    0.965842 0.020089 0.762106 0.000000
H316  H     H_    0.878187 0.029606 0.623048 0.000000
H317  H     H_    0.850082 0.084890 0.645263 0.000000
H318  H     H_    0.763872 0.999912 0.656902 0.000000
H319  H     H_    0.730197 0.934974 0.738722 0.000000
N117  N     N_2   0.355170 0.028150 0.065318 0.000000
C378  C     C_R   0.310620 0.992807 0.046996 0.000000
C379  C     C_R   0.321666 0.938067 0.079655 0.000000
C380  C     C_R   0.271193 0.906057 0.063966 0.000000
C381  C     C_R   0.212158 0.926893 0.014634 0.000000
C382  C     C_R   0.207058 0.980143 0.979548 0.000000
C383  C     C_R   0.252358 0.013585 0.997585 0.000000
C384  C     C_R   0.139986 0.902146 0.010098 0.000000
N118  N     N_R   0.131932 0.866291 0.062080 0.000000
C385  C     C_R   0.059904 0.900651 0.068316 0.000000
C386  C     C_R   0.041768 0.908477 0.117512 0.000000
C387  C     C_R   0.978048 0.955201 0.115754 0.000000
N119  N     N_2   0.962095 0.965125 0.166005 0.000000
C388  C     C_R   0.930341 0.992454 0.065069 0.000000
C389  C     C_R   0.950243 0.985960 0.015715 0.000000
C390  C     C_R   0.018396 0.942581 0.018575 0.000000
N120  N     N_R   0.063990 0.942939 0.978223 0.000000
H320  H     H_    0.378785 0.014561 0.107747 0.000000
H321  H     H_    0.326104 0.070869 0.047830 0.000000
H322  H     H_    0.364189 0.922280 0.119743 0.000000
H323  H     H_    0.273353 0.866076 0.092537 0.000000
H324  H     H_    0.160154 0.999597 0.941333 0.000000
H325  H     H_    0.235979 0.057869 0.974949 0.000000
H326  H     H_    0.076588 0.879557 0.157185 0.000000
H327  H     H_    0.931549 0.006504 0.161262 0.000000
H328  H     H_    0.012295 0.945877 0.199456 0.000000
H329  H     H_    0.882115 0.029294 0.064061 0.000000
H330  H     H_    0.923310 0.019517 0.976860 0.000000
N121  N     N_2   0.222226 0.274867 0.179379 0.000000
C391  C     C_R   0.177612 0.331441 0.148732 0.000000
C392  C     C_R   0.153838 0.347747 0.091424 0.000000
C393  C     C_R   0.110792 0.403303 0.061701 0.000000
C394  C     C_R   0.087576 0.442894 0.088303 0.000000
C395  C     C_R   0.115135 0.426528 0.145318 0.000000
C396  C     C_R   0.159011 0.371324 0.175625 0.000000
C397  C     C_R   0.041335 0.502321 0.055457 0.000000
N122  N     N_R   0.038734 0.523224 0.997094 0.000000
C398  C     C_R   0.012019 0.579126 0.989539 0.000000
C399  C     C_R   0.012802 0.622288 0.944190 0.000000
C400  C     C_R   0.987883 0.677347 0.945666 0.000000
N123  N     N_2   0.982739 0.723758 0.898584 0.000000
C401  C     C_R   0.961955 0.687482 0.991755 0.000000
C402  C     C_R   0.958801 0.644386 0.036132 0.000000
C403  C     C_R   0.990226 0.590370 0.035994 0.000000
N124  N     N_R   0.008524 0.544081 0.080529 0.000000
H331  H     H_    0.252864 0.252631 0.156102 0.000000
H332  H     H_    0.256563 0.269971 0.218048 0.000000
H333  H     H_    0.169766 0.317338 0.069419 0.000000
H334  H     H_    0.096547 0.415891 0.017069 0.000000
H335  H     H_    0.104277 0.457005 0.166815 0.000000
H336  H     H_    0.179042 0.359786 0.220503 0.000000
H337  H     H_    0.034231 0.613060 0.909000 0.000000
H338  H     H_    0.992686 0.758908 0.907822 0.000000
H339  H     H_    0.009566 0.713016 0.867367 0.000000
H340  H     H_    0.945411 0.728932 0.994119 0.000000
H341  H     H_    0.932952 0.655126 0.069264 0.000000
N125  N     N_2   0.762361 0.654928 0.974434 0.000000
C404  C     C_R   0.806662 0.643468 0.933985 0.000000
C405  C     C_R   0.836322 0.589125 0.934047 0.000000
C406  C     C_R   0.876752 0.580117 0.893088 0.000000
C407  C     C_R   0.886928 0.625166 0.851769 0.000000
C408  C     C_R   0.860568 0.678586 0.852450 0.000000
C409  C     C_R   0.820129 0.687262 0.893953 0.000000
C410  C     C_R   0.944189 0.612202 0.817501 0.000000
N126  N     N_R   0.005517 0.560931 0.840355 0.000000
C411  C     C_R   0.027301 0.551635 0.794560 0.000000
C412  C     C_R   0.088374 0.506657 0.792866 0.000000
C413  C     C_R   0.109747 0.508630 0.741837 0.000000
N127  N     N_2   0.178665 0.466862 0.738553 0.000000
C414  C     C_R   0.069646 0.555226 0.695119 0.000000
C415  C     C_R   0.006326 0.598657 0.698662 0.000000
C416  C     C_R   0.984784 0.595883 0.747935 0.000000
N128  N     N_R   0.931357 0.637826 0.759223 0.000000
H342  H     H_    0.697765 0.663018 0.962475 0.000000
H343  H     H_    0.779484 0.685581 0.988498 0.000000
H344  H     H_    0.834779 0.552754 0.966888 0.000000
H345  H     H_    0.903370 0.536812 0.895895 0.000000
H346  H     H_    0.875364 0.712850 0.822533 0.000000
H347  H     H_    0.796741 0.728691 0.893803 0.000000
H348  H     H_    0.122273 0.473174 0.830610 0.000000
H349  H     H_    0.212843 0.482838 0.710083 0.000000
H350  H     H_    0.215496 0.442452 0.776680 0.000000
H351  H     H_    0.093201 0.561117 0.656989 0.000000
H352  H     H_    0.980352 0.638016 0.666637 0.000000

loop_
_geom_bond_atom_site_label_1
_geom_bond_atom_site_label_2
_geom_bond_distance
_geom_bond_site_symmetry_2
_ccdc_geom_bond_type
Zn1   N4    2.278 .      S
Zn1   N8    2.161 .      S
Zn1   N90   2.230 .      S
Zn1   N102  2.213 .      S
Zn2   N12   2.284 .      S
Zn2   N14   2.148 .      S
Zn2   N88   2.146 .      S
Zn2   N116  2.285 .      S
Zn3   N18   2.193 .      S
Zn3   N22   2.209 1_655  S
Zn3   N70   2.170 1_655  S
Zn3   N124  2.238 1_655  S
Zn4   N2    2.350 .      S
Zn4   N28   2.182 .      S
Zn4   N74   2.232 .      S
Zn4   N96   2.190 .      S
Zn5   N6    2.221 .      S
Zn5   N10   2.286 .      S
Zn5   N100  2.366 .      S
Zn5   N128  2.300 .      S
Zn6   N16   2.309 1_554  S
Zn6   N20   2.218 .      S
Zn6   N30   2.291 .      S
Zn6   N110  2.270 1_554  S
Zn7   N24   2.290 .      S
Zn7   N26   2.233 .      S
Zn7   N32   2.329 .      S
Zn7   N118  2.384 .      S
Zn8   N34   2.232 .      S
Zn8   N38   2.350 .      S
Zn8   N42   2.268 .      S
Zn8   N46   2.205 .      S
Zn9   N36   2.208 1_655  S
Zn9   N52   2.189 .      S
Zn9   N54   2.282 1_655  S
Zn9   N60   2.093 .      S
Zn10  N40   2.309 .      S
Zn10  N58   2.203 .      S
Zn10  N64   2.139 .      S
Zn10  N68   2.162 .      S
Zn11  N44   2.249 .      S
Zn11  N72   2.159 .      S
Zn11  N76   2.204 .      S
Zn11  N78   2.246 1_455  S
Zn12  N48   2.198 .      S
Zn12  N84   2.216 1_545  S
Zn12  N86   2.139 1_545  S
Zn12  N92   2.284 1_545  S
Zn13  N62   2.271 .      S
Zn13  N80   2.290 .      S
Zn13  N94   2.153 .      S
Zn13  N98   2.196 .      S
Zn14  N66   2.199 .      S
Zn14  N104  2.273 .      S
Zn14  N106  2.263 .      S
Zn14  N112  2.271 .      S
Zn15  N50   2.205 1_455  S
Zn15  N82   2.185 .      S
Zn15  N114  2.278 1_445  S
Zn15  N120  2.316 1_545  S
Zn16  N56   2.254 .      S
Zn16  N108  2.093 .      S
Zn16  N122  2.285 .      S
Zn16  N126  2.153 .      S
N1    C1    1.410 .      S
N1    H1    1.029 .      S
N1    H2    1.029 .      S
C2    H3    1.081 .      S
C3    H4    1.070 .      S
C4    C7    1.467 .      S
C5    H5    1.068 .      S
C6    H6    1.075 .      S
C9    H7    1.045 .      S
C10   N3    1.402 .      S
N3    H8    1.020 .      S
N3    H9    1.026 .      S
C11   H10   1.080 .      S
C12   H11   1.067 .      S
N5    C14   1.391 .      S
N5    H12   1.013 .      S
N5    H13   1.023 .      S
C15   H14   1.055 .      S
C16   H15   1.079 .      S
C17   C20   1.411 .      S
C18   H16   1.078 .      S
C19   H17   1.052 .      S
C22   H18   1.080 .      S
C23   N7    1.410 .      S
N7    H19   1.029 .      S
N7    H20   1.029 .      S
C24   H21   1.081 .      S
C25   H22   1.081 1_655  S
H22   C25   1.081 1_455  S
N9    C27   1.410 .      S
N9    H23   1.028 1_565  S
N9    H24   1.029 1_565  S
C28   H25   1.081 .      S
C29   H26   1.077 .      S
C30   C33   1.472 .      S
C31   H27   1.070 .      S
C32   H28   1.081 .      S
C35   H29   1.032 .      S
C36   N11   1.403 .      S
N11   H30   1.027 .      S
N11   H31   1.022 .      S
C37   H32   1.074 .      S
C38   H33   1.037 .      S
H23   N9    1.028 1_545  S
H24   N9    1.029 1_545  S
N13   C40   1.390 1_554  S
N13   H34   1.024 1_554  S
N13   H35   1.027 1_655  S
C40   N13   1.390 1_556  S
C41   H36   1.080 .      S
C42   H37   1.073 .      S
C43   C46   1.449 .      S
C44   H38   1.080 .      S
C45   H39   1.060 .      S
C48   H40   1.079 .      S
C49   N15   1.402 1_565  S
N15   C49   1.402 1_545  S
N15   H41   1.028 .      S
N15   H42   1.022 .      S
C50   H43   1.081 .      S
C51   H44   1.036 .      S
N16   Zn6   2.309 1_556  S
H34   N13   1.024 1_556  S
H35   N13   1.027 1_455  S
N17   C53   1.411 .      S
N17   H45   1.029 .      S
N17   H46   1.029 .      S
C54   H47   1.079 .      S
C55   H48   1.075 .      S
C56   C59   1.484 .      S
C57   H49   1.070 .      S
C58   H50   1.076 .      S
C61   H51   1.050 .      S
C62   N19   1.408 .      S
N19   H52   1.027 .      S
N19   H53   1.022 .      S
C63   H54   1.076 .      S
C64   H55   1.068 .      S
N21   C66   1.408 .      S
N21   H56   1.025 .      S
N21   H57   1.029 .      S
C67   H58   1.076 .      S
C68   H59   1.058 .      S
C69   C72   1.464 1_655  S
C70   H60   1.070 1_655  S
C71   H61   1.068 .      S
C72   C69   1.464 1_455  S
N22   Zn3   2.209 1_455  S
C74   H62   1.063 .      S
C75   N23   1.410 .      S
N23   H63   1.029 .      S
N23   H64   1.024 .      S
C76   H65   1.060 .      S
C77   H66   1.073 .      S
H60   C70   1.070 1_455  S
N25   C79   1.412 .      S
N25   H67   1.029 .      S
N25   H68   1.029 .      S
C80   H69   1.074 .      S
C81   H70   1.066 .      S
C82   C85   1.456 .      S
C83   H71   1.070 .      S
C84   H72   1.066 .      S
C87   H73   1.076 .      S
C88   N27   1.409 .      S
N27   H74   1.029 .      S
N27   H75   1.028 .      S
C89   H76   1.081 .      S
C90   H77   1.074 .      S
N29   C92   1.404 .      S
N29   H78   1.029 .      S
N29   H79   1.019 .      S
C93   H80   1.078 .      S
C94   H81   1.075 .      S
C95   C98   1.440 .      S
C96   H82   1.074 1_554  S
C97   H83   1.072 1_554  S
C100  H84   1.080 .      S
C101  N31   1.405 .      S
N31   H85   1.029 .      S
N31   H86   1.029 .      S
C102  H87   1.078 .      S
C103  H88   1.060 .      S
H82   C96   1.074 1_556  S
H83   C97   1.072 1_556  S
N33   C105  1.405 .      S
N33   H89   1.021 .      S
N33   H90   1.028 .      S
C106  H91   1.069 .      S
C107  H92   1.071 .      S
C108  C111  1.447 .      S
C109  H93   1.075 .      S
C110  H94   1.080 .      S
C113  H95   1.071 .      S
C114  N35   1.383 .      S
N35   H96   1.025 .      S
N35   H97   1.015 .      S
C115  H98   1.075 1_455  S
C116  H99   1.065 .      S
N36   Zn9   2.208 1_455  S
H98   C115  1.075 1_655  S
N37   C118  1.384 .      S
N37   H100  1.025 .      S
N37   H101  1.025 .      S
C119  H102  1.074 .      S
C120  H103  1.062 .      S
C121  C124  1.405 .      S
C122  H104  1.066 .      S
C123  H105  1.062 .      S
C126  H106  1.079 .      S
C127  N39   1.402 .      S
N39   H107  1.026 .      S
N39   H108  1.025 .      S
C128  H109  1.081 .      S
C129  H110  1.071 .      S
N41   C131  1.410 .      S
N41   H111  1.028 .      S
N41   H112  1.029 .      S
C132  H113  1.071 1_655  S
C133  H114  1.078 .      S
C134  C137  1.459 .      S
C135  H115  1.072 .      S
C136  H116  1.081 .      S
C139  H117  1.077 .      S
C140  N43   1.409 .      S
N43   H118  1.029 .      S
N43   H119  1.029 .      S
C141  H120  1.081 .      S
C142  H121  1.074 .      S
H113  C132  1.071 1_455  S
N45   C144  1.406 .      S
N45   H122  1.025 .      S
N45   H123  1.027 .      S
C145  H124  1.075 .      S
C146  H125  1.077 .      S
C147  C150  1.455 .      S
C148  H126  1.057 .      S
C149  H127  1.076 .      S
C152  H128  1.058 .      S
C153  N47   1.411 .      S
N47   H129  1.029 .      S
N47   H130  1.029 .      S
C154  H131  1.081 .      S
C155  H132  1.073 .      S
N49   C157  1.409 .      S
N49   H133  1.029 .      S
N49   H134  1.028 .      S
C158  H135  1.059 .      S
C159  H136  1.065 .      S
C160  C163  1.475 .      S
C161  H137  1.048 .      S
C162  H138  1.074 .      S
N50   Zn15  2.205 1_655  S
C165  H139  1.058 1_556  S
C166  N51   1.409 .      S
N51   H140  1.029 .      S
N51   H141  1.029 .      S
C167  H142  1.081 .      S
C168  H143  1.075 .      S
H139  C165  1.058 1_554  S
N53   C170  1.400 .      S
N53   H144  1.029 .      S
N53   H145  1.022 .      S
C171  H146  1.081 .      S
C172  H147  1.080 .      S
C173  C176  1.441 .      S
C174  H148  1.068 .      S
C175  H149  1.081 .      S
N54   Zn9   2.282 1_455  S
C178  H150  1.066 .      S
C179  N55   1.411 .      S
N55   H151  1.029 .      S
N55   H152  1.029 .      S
C180  H153  1.071 .      S
C181  H154  1.073 .      S
N57   C183  1.385 .      S
N57   H155  1.022 .      S
N57   H156  1.024 .      S
C184  H157  1.070 .      S
C185  H158  1.060 .      S
C186  C189  1.426 .      S
C187  H159  1.072 .      S
C188  H160  1.075 .      S
C191  H161  1.059 .      S
C192  N59   1.403 .      S
N59   H162  1.029 .      S
N59   H163  1.028 .      S
C193  H164  1.081 .      S
C194  H165  1.069 .      S
N61   C196  1.397 .      S
N61   H166  1.024 .      S
N61   H167  1.026 .      S
C197  H168  1.075 .      S
C198  H169  1.077 .      S
C199  C202  1.431 .      S
C200  H170  1.070 .      S
C201  H171  1.067 .      S
C204  H172  1.076 .      S
C205  N63   1.411 .      S
N63   H173  1.027 .      S
N63   H174  1.029 .      S
C206  H175  1.079 .      S
C207  H176  1.077 .      S
N65   C209  1.411 .      S
N65   H177  1.029 .      S
N65   H178  1.025 .      S
C210  H179  1.076 .      S
C211  H180  1.061 .      S
C212  C215  1.486 .      S
C213  H181  1.066 .      S
C214  H182  1.063 .      S
C217  H183  1.050 .      S
C218  N67   1.402 .      S
N67   H184  1.024 .      S
N67   H185  1.026 .      S
C219  H186  1.067 .      S
C220  H187  1.061 .      S
N69   C222  1.403 .      S
N69   H188  1.024 1_455  S
N69   H189  1.022 .      S
C223  H190  1.061 .      S
C224  H191  1.071 .      S
C225  C228  1.451 .      S
C226  H192  1.074 .      S
C227  H193  1.077 .      S
N70   Zn3   2.170 1_455  S
C230  H194  1.076 .      S
C231  N71   1.411 .      S
N71   H195  1.029 1_655  S
N71   H196  1.029 .      S
C232  H197  1.081 .      S
C233  H198  1.069 .      S
H188  N69   1.024 1_655  S
H195  N71   1.029 1_455  S
N73   C235  1.411 .      S
N73   H199  1.029 .      S
N73   H200  1.029 .      S
C236  H201  1.081 .      S
C237  H202  1.063 .      S
C238  C241  1.482 .      S
C239  H203  1.072 .      S
C240  H204  1.081 .      S
C243  H205  1.076 .      S
C244  N75   1.404 1_455  S
N75   C244  1.404 1_655  S
N75   H206  1.029 .      S
N75   H207  1.028 1_655  S
C245  H208  1.070 .      S
C246  H209  1.073 .      S
H207  N75   1.028 1_455  S
N77   C248  1.397 1_455  S
N77   H210  1.022 .      S
N77   H211  1.020 1_455  S
C248  N77   1.397 1_655  S
C249  H212  1.071 .      S
C250  H213  1.062 .      S
C251  C254  1.416 .      S
C252  H214  1.064 .      S
C253  H215  1.043 .      S
N78   Zn11  2.246 1_655  S
C256  H216  1.060 .      S
C257  N79   1.406 .      S
N79   H217  1.028 .      S
N79   H218  1.027 .      S
C258  H219  1.072 .      S
C259  H220  1.074 .      S
H211  N77   1.020 1_655  S
N81   C261  1.411 .      S
N81   H221  1.028 .      S
N81   H222  1.029 .      S
C262  H223  1.059 .      S
C263  H224  1.075 .      S
C264  C267  1.458 .      S
C265  H225  1.077 .      S
C266  H226  1.081 1_455  S
C269  H227  1.072 .      S
C270  N83   1.407 .      S
N83   H228  1.027 .      S
N83   H229  1.022 .      S
C271  H230  1.038 .      S
C272  H231  1.068 .      S
N84   Zn12  2.216 1_565  S
H226  C266  1.081 1_655  S
N85   C274  1.397 .      S
N85   H232  1.013 .      S
N85   H233  1.024 .      S
C275  H234  1.076 .      S
C276  H235  1.058 .      S
C277  C280  1.452 .      S
C278  H236  1.056 .      S
C279  H237  1.073 .      S
N86   Zn12  2.139 1_565  S
C282  H238  1.047 .      S
C283  N87   1.410 .      S
N87   H239  1.028 .      S
N87   H240  1.029 .      S
C284  H241  1.081 .      S
C285  H242  1.061 .      S
N89   C287  1.404 .      S
N89   H243  1.027 .      S
N89   H244  1.028 .      S
C288  H245  1.074 .      S
C289  H246  1.079 .      S
C290  C293  1.441 .      S
C291  H247  1.047 .      S
C292  H248  1.076 .      S
C295  H249  1.075 .      S
C296  N91   1.409 .      S
N91   H250  1.029 .      S
N91   H251  1.027 .      S
C297  H252  1.081 .      S
C298  H253  1.052 .      S
N92   Zn12  2.284 1_565  S
N93   C300  1.410 .      S
N93   H254  1.029 .      S
N93   H255  1.029 .      S
C301  H256  1.081 .      S
C302  H257  1.056 .      S
C303  C306  1.491 .      S
C304  H258  1.070 .      S
C305  H259  1.078 .      S
C308  H260  1.053 .      S
C309  N95   1.409 .      S
N95   H261  1.028 .      S
N95   H262  1.025 .      S
C310  H263  1.064 .      S
C311  H264  1.057 .      S
N97   C313  1.400 .      S
N97   H265  1.021 .      S
N97   H266  1.024 .      S
C314  H267  1.035 .      S
C315  H268  1.062 .      S
C316  C319  1.431 .      S
C317  H269  1.053 .      S
C318  H270  1.047 .      S
C321  H271  1.078 .      S
C322  N99   1.411 .      S
N99   H272  1.029 .      S
N99   H273  1.028 .      S
C323  H274  1.077 .      S
C324  H275  1.043 .      S
N101  C326  1.404 .      S
N101  H276  1.026 .      S
N101  H277  1.014 .      S
C327  H278  1.079 .      S
C328  H279  1.076 .      S
C329  C332  1.465 .      S
C330  H280  1.066 .      S
C331  H281  1.074 .      S
C334  H282  1.071 .      S
C335  N103  1.391 .      S
N103  H283  1.022 .      S
N103  H284  1.027 .      S
C336  H285  1.064 .      S
C337  H286  1.072 .      S
N105  C339  1.399 .      S
N105  H287  1.026 .      S
N105  H288  1.027 .      S
C340  H289  1.063 .      S
C341  H290  1.072 .      S
C342  C345  1.450 .      S
C343  H291  1.078 1_556  S
C344  H292  1.066 .      S
C347  H293  1.060 .      S
C348  N107  1.408 .      S
N107  H294  1.029 .      S
N107  H295  1.023 .      S
C349  H296  1.081 .      S
C350  H297  1.065 .      S
H291  C343  1.078 1_554  S
N109  C352  1.408 .      S
N109  H298  1.026 .      S
N109  H299  1.026 .      S
C353  H300  1.059 .      S
C354  H301  1.065 .      S
C355  C358  1.438 .      S
C356  H302  1.068 .      S
C357  H303  1.061 .      S
N110  Zn6   2.270 1_556  S
C360  H304  1.070 .      S
C361  N111  1.410 .      S
N111  H305  1.029 .      S
N111  H306  1.027 .      S
C362  H307  1.079 .      S
C363  H308  1.062 .      S
N113  C365  1.410 1_554  S
N113  H309  1.029 .      S
N113  H310  1.029 .      S
C365  N113  1.410 1_556  S
C366  H311  1.081 .      S
C367  H312  1.065 .      S
C368  C371  1.471 .      S
C369  H313  1.079 .      S
C370  H314  1.081 .      S
N114  Zn15  2.278 1_665  S
C373  H315  1.060 .      S
C374  N115  1.402 .      S
N115  H316  1.028 .      S
N115  H317  1.026 .      S
C375  H318  1.074 .      S
C376  H319  1.065 .      S
N117  C378  1.411 1_545  S
N117  H320  1.029 .      S
N117  H321  1.029 .      S
C378  N117  1.411 1_565  S
C379  H322  1.075 .      S
C380  H323  1.062 .      S
C381  C384  1.464 .      S
C382  H324  1.077 .      S
C383  H325  1.068 .      S
C386  H326  1.069 .      S
C387  N119  1.411 .      S
N119  H327  1.029 1_565  S
N119  H328  1.029 1_655  S
C388  H329  1.080 1_565  S
C389  H330  1.074 1_564  S
N120  Zn15  2.316 1_565  S
H327  N119  1.029 1_545  S
H328  N119  1.029 1_455  S
H329  C388  1.080 1_545  S
H330  C389  1.074 1_546  S
N121  C391  1.410 .      S
N121  H331  1.029 .      S
N121  H332  1.029 .      S
C392  H333  1.080 .      S
C393  H334  1.067 .      S
C394  C397  1.482 .      S
C395  H335  1.062 .      S
C396  H336  1.081 .      S
C399  H337  1.066 .      S
C400  N123  1.405 .      S
N123  H338  1.025 .      S
N123  H339  1.026 1_655  S
C401  H340  1.050 .      S
C402  H341  1.062 .      S
N124  Zn3   2.238 1_455  S
H339  N123  1.026 1_455  S
N125  C404  1.389 .      S
N125  H342  1.025 .      S
N125  H343  1.019 .      S
C405  H344  1.066 .      S
C406  H345  1.072 .      S
C407  C410  1.407 .      S
C408  H346  1.079 .      S
C409  H347  1.039 .      S
C412  H348  1.077 .      S
C413  N127  1.403 .      S
N127  H349  1.020 .      S
N127  H350  1.021 .      S
C414  H351  1.071 .      S
C415  H352  1.058 1_455  S
H352  C415  1.058 1_655  S
C1    C2    1.374 1_655  A
C1    C6    1.377 .      A
C2    C1    1.374 1_455  A
C2    C3    1.378 .      A
C3    C4    1.380 .      A
C4    C5    1.376 .      A
C5    C6    1.382 1_455  A
C6    C5    1.382 1_655  A
C7    N2    1.435 .      A
C7    N4    1.413 .      A
N2    C8    1.339 .      A
C8    C9    1.334 .      A
C8    C13   1.349 .      A
C9    C10   1.356 .      A
C10   C11   1.375 .      A
C11   C12   1.382 .      A
C12   C13   1.371 .      A
C13   N4    1.344 .      A
C14   C15   1.370 .      A
C14   C19   1.352 .      A
C15   C16   1.365 .      A
C16   C17   1.363 .      A
C17   C18   1.365 .      A
C18   C19   1.351 .      A
C20   N6    1.393 1_455  A
C20   N8    1.384 .      A
N6    C20   1.393 1_655  A
N6    C21   1.363 .      A
C21   C22   1.373 .      A
C21   C26   1.380 .      A
C22   C23   1.392 .      A
C23   C24   1.390 .      A
C24   C25   1.382 .      A
C25   C26   1.370 .      A
C26   N8    1.339 1_655  A
N8    C26   1.339 1_455  A
C27   C28   1.375 .      A
C27   C32   1.376 .      A
C28   C29   1.378 .      A
C29   C30   1.382 .      A
C30   C31   1.370 .      A
C31   C32   1.380 .      A
C33   N10   1.421 .      A
C33   N12   1.412 .      A
N10   C34   1.358 .      A
C34   C35   1.379 .      A
C34   C39   1.351 .      A
C35   C36   1.373 .      A
C36   C37   1.375 .      A
C37   C38   1.355 .      A
C38   C39   1.326 .      A
C39   N12   1.322 .      A
C40   C41   1.357 .      A
C40   C45   1.369 1_556  A
C41   C42   1.357 .      A
C42   C43   1.390 .      A
C43   C44   1.379 1_556  A
C44   C43   1.379 1_554  A
C44   C45   1.372 .      A
C45   C40   1.369 1_554  A
C46   N14   1.378 .      A
C46   N16   1.408 .      A
N14   C47   1.329 .      A
C47   C48   1.368 .      A
C47   C52   1.364 .      A
C48   C49   1.381 .      A
C49   C50   1.378 1_556  A
C50   C49   1.378 1_554  A
C50   C51   1.376 .      A
C51   C52   1.360 1_554  A
C52   C51   1.360 1_556  A
C52   N16   1.371 .      A
C53   C54   1.367 .      A
C53   C58   1.375 .      A
C54   C55   1.376 .      A
C55   C56   1.387 .      A
C56   C57   1.377 .      A
C57   C58   1.383 .      A
C59   N18   1.383 .      A
C59   N20   1.409 .      A
N18   C60   1.351 .      A
C60   C61   1.358 .      A
C60   C65   1.353 .      A
C61   C62   1.391 .      A
C62   C63   1.370 .      A
C63   C64   1.370 .      A
C64   C65   1.362 .      A
C65   N20   1.332 .      A
C66   C67   1.370 .      A
C66   C71   1.366 .      A
C67   C68   1.381 .      A
C68   C69   1.376 .      A
C69   C70   1.363 .      A
C70   C71   1.387 .      A
C72   N22   1.407 .      A
C72   N24   1.421 .      A
N22   C73   1.325 .      A
C73   C74   1.366 .      A
C73   C78   1.368 .      A
C74   C75   1.365 .      A
C75   C76   1.369 .      A
C76   C77   1.389 .      A
C77   C78   1.350 .      A
C78   N24   1.355 .      A
C79   C80   1.374 .      A
C79   C84   1.365 .      A
C80   C81   1.370 .      A
C81   C82   1.365 .      A
C82   C83   1.375 .      A
C83   C84   1.372 .      A
C85   N26   1.402 .      A
C85   N28   1.397 .      A
N26   C86   1.359 .      A
C86   C87   1.377 .      A
C86   C91   1.378 .      A
C87   C88   1.388 .      A
C88   C89   1.389 .      A
C89   C90   1.382 .      A
C90   C91   1.363 .      A
C91   N28   1.343 .      A
C92   C93   1.358 .      A
C92   C97   1.378 .      A
C93   C94   1.366 .      A
C94   C95   1.371 .      A
C95   C96   1.369 .      A
C96   C97   1.376 .      A
C98   N30   1.405 .      A
C98   N32   1.426 .      A
N30   C99   1.356 .      A
C99   C100  1.383 .      A
C99   C104  1.375 .      A
C100  C101  1.376 .      A
C101  C102  1.376 .      A
C102  C103  1.378 .      A
C103  C104  1.374 .      A
C104  N32   1.360 .      A
C105  C106  1.371 .      A
C105  C110  1.367 .      A
C106  C107  1.374 .      A
C107  C108  1.365 .      A
C108  C109  1.373 .      A
C109  C110  1.368 .      A
C111  N34   1.418 .      A
C111  N36   1.396 .      A
N34   C112  1.325 .      A
C112  C113  1.339 .      A
C112  C117  1.363 .      A
C113  C114  1.353 .      A
C114  C115  1.381 .      A
C115  C116  1.385 1_455  A
C116  C115  1.385 1_655  A
C116  C117  1.348 1_655  A
C117  C116  1.348 1_455  A
C117  N36   1.337 .      A
C118  C119  1.361 .      A
C118  C123  1.362 .      A
C119  C120  1.359 .      A
C120  C121  1.345 .      A
C121  C122  1.355 .      A
C122  C123  1.347 .      A
C124  N38   1.421 .      A
C124  N40   1.401 .      A
N38   C125  1.360 .      A
C125  C126  1.373 .      A
C125  C130  1.390 .      A
C126  C127  1.395 .      A
C127  C128  1.380 .      A
C128  C129  1.367 .      A
C129  C130  1.364 .      A
C130  N40   1.344 .      A
C131  C132  1.378 .      A
C131  C136  1.373 .      A
C132  C133  1.379 1_655  A
C133  C132  1.379 1_455  A
C133  C134  1.378 .      A
C134  C135  1.389 1_455  A
C135  C134  1.389 1_655  A
C135  C136  1.378 .      A
C137  N42   1.410 .      A
C137  N44   1.401 .      A
N42   C138  1.348 .      A
C138  C139  1.374 .      A
C138  C143  1.375 .      A
C139  C140  1.382 .      A
C140  C141  1.389 .      A
C141  C142  1.386 .      A
C142  C143  1.367 .      A
C143  N44   1.349 .      A
C144  C145  1.376 .      A
C144  C149  1.373 .      A
C145  C146  1.375 .      A
C146  C147  1.381 .      A
C147  C148  1.356 .      A
C148  C149  1.372 .      A
C150  N46   1.385 .      A
C150  N48   1.410 .      A
N46   C151  1.360 .      A
C151  C152  1.377 .      A
C151  C156  1.371 .      A
C152  C153  1.385 .      A
C153  C154  1.382 .      A
C154  C155  1.378 .      A
C155  C156  1.371 .      A
C156  N48   1.344 .      A
C157  C158  1.366 .      A
C157  C162  1.361 .      A
C158  C159  1.382 .      A
C159  C160  1.361 .      A
C160  C161  1.364 .      A
C161  C162  1.376 .      A
C163  N50   1.394 .      A
C163  N52   1.413 .      A
N50   C164  1.363 1_655  A
C164  N50   1.363 1_455  A
C164  C165  1.374 .      A
C164  C169  1.371 .      A
C165  C166  1.386 1_556  A
C166  C165  1.386 1_554  A
C166  C167  1.384 .      A
C167  C168  1.377 1_554  A
C168  C167  1.377 1_556  A
C168  C169  1.372 .      A
C169  N52   1.341 1_455  A
N52   C169  1.341 1_655  A
C170  C171  1.375 .      A
C170  C175  1.378 .      A
C171  C172  1.369 .      A
C172  C173  1.378 .      A
C173  C174  1.368 .      A
C174  C175  1.373 .      A
C176  N54   1.403 .      A
C176  N56   1.416 .      A
N54   C177  1.358 1_455  A
C177  N54   1.358 1_655  A
C177  C178  1.377 .      A
C177  C182  1.374 .      A
C178  C179  1.381 1_556  A
C179  C178  1.381 1_554  A
C179  C180  1.381 .      A
C180  C181  1.375 1_554  A
C181  C180  1.375 1_556  A
C181  C182  1.369 .      A
C182  N56   1.347 1_655  A
N56   C182  1.347 1_455  A
C183  C184  1.345 .      A
C183  C188  1.370 .      A
C184  C185  1.355 .      A
C185  C186  1.338 .      A
C186  C187  1.366 .      A
C187  C188  1.373 .      A
C189  N58   1.401 .      A
C189  N60   1.374 .      A
N58   C190  1.363 .      A
C190  C191  1.372 .      A
C190  C195  1.355 .      A
C191  C192  1.380 .      A
C192  C193  1.377 .      A
C193  C194  1.373 .      A
C194  C195  1.365 .      A
C195  N60   1.338 .      A
C196  C197  1.362 .      A
C196  C201  1.363 .      A
C197  C198  1.364 .      A
C198  C199  1.373 .      A
C199  C200  1.362 .      A
C200  C201  1.371 .      A
C202  N62   1.402 .      A
C202  N64   1.391 .      A
N62   C203  1.376 .      A
C203  C204  1.386 .      A
C203  C208  1.374 .      A
C204  C205  1.393 .      A
C205  C206  1.384 .      A
C206  C207  1.376 .      A
C207  C208  1.369 .      A
C208  N64   1.335 .      A
C209  C210  1.351 .      A
C209  C214  1.373 .      A
C210  C211  1.370 .      A
C211  C212  1.379 .      A
C212  C213  1.364 .      A
C213  C214  1.380 .      A
C215  N66   1.417 .      A
C215  N68   1.392 .      A
N66   C216  1.335 .      A
C216  C217  1.358 .      A
C216  C221  1.359 .      A
C217  C218  1.368 .      A
C218  C219  1.369 .      A
C219  C220  1.371 .      A
C220  C221  1.355 .      A
C221  N68   1.341 .      A
C222  C223  1.360 .      A
C222  C227  1.362 1_455  A
C223  C224  1.368 .      A
C224  C225  1.357 .      A
C225  C226  1.363 1_455  A
C226  C225  1.363 1_655  A
C226  C227  1.376 .      A
C227  C222  1.362 1_655  A
C228  N70   1.394 .      A
C228  N72   1.391 .      A
N70   C229  1.349 .      A
C229  C230  1.370 1_455  A
C229  C234  1.373 .      A
C230  C229  1.370 1_655  A
C230  C231  1.386 .      A
C231  C232  1.387 1_655  A
C232  C231  1.387 1_455  A
C232  C233  1.382 .      A
C233  C234  1.375 .      A
C234  N72   1.356 .      A
C235  C236  1.375 .      A
C235  C240  1.381 .      A
C236  C237  1.379 .      A
C237  C238  1.379 .      A
C238  C239  1.379 .      A
C239  C240  1.383 .      A
C241  N74   1.428 .      A
C241  N76   1.396 .      A
N74   C242  1.347 .      A
C242  C243  1.373 .      A
C242  C247  1.367 .      A
C243  C244  1.384 .      A
C244  C245  1.378 1_455  A
C245  C244  1.378 1_655  A
C245  C246  1.372 .      A
C246  C247  1.374 1_655  A
C247  C246  1.374 1_455  A
C247  N76   1.348 .      A
C248  C249  1.339 1_655  A
C248  C253  1.367 .      A
C249  C248  1.339 1_455  A
C249  C250  1.360 .      A
C250  C251  1.354 1_455  A
C251  C250  1.354 1_655  A
C251  C252  1.341 .      A
C252  C253  1.356 .      A
C254  N78   1.397 .      A
C254  N80   1.409 .      A
N78   C255  1.345 .      A
C255  C256  1.366 .      A
C255  C260  1.372 .      A
C256  C257  1.378 .      A
C257  C258  1.381 .      A
C258  C259  1.378 .      A
C259  C260  1.371 .      A
C260  N80   1.357 .      A
C261  C262  1.369 .      A
C261  C266  1.369 1_655  A
C262  C263  1.375 1_655  A
C263  C262  1.375 1_455  A
C263  C264  1.365 .      A
C264  C265  1.378 .      A
C265  C266  1.377 .      A
C266  C261  1.369 1_455  A
C267  N82   1.419 .      A
C267  N84   1.391 1_545  A
N82   C268  1.314 1_545  A
C268  N82   1.314 1_565  A
C268  C269  1.362 .      A
C268  C273  1.359 .      A
C269  C270  1.352 .      A
C270  C271  1.362 .      A
C271  C272  1.385 .      A
C272  C273  1.331 .      A
C273  N84   1.345 .      A
N84   C267  1.391 1_565  A
C274  C275  1.372 .      A
C274  C279  1.362 .      A
C275  C276  1.373 .      A
C276  C277  1.374 .      A
C277  C278  1.361 .      A
C278  C279  1.364 .      A
C280  N86   1.388 .      A
C280  N88   1.397 .      A
N86   C281  1.352 .      A
C281  C282  1.367 1_565  A
C281  C286  1.360 .      A
C282  C281  1.367 1_545  A
C282  C283  1.379 .      A
C283  C284  1.378 .      A
C284  C285  1.377 .      A
C285  C286  1.369 1_545  A
C286  C285  1.369 1_565  A
C286  N88   1.348 .      A
C287  C288  1.367 .      A
C287  C292  1.365 1_655  A
C288  C289  1.372 1_655  A
C289  C288  1.372 1_455  A
C289  C290  1.371 .      A
C290  C291  1.348 .      A
C291  C292  1.361 .      A
C292  C287  1.365 1_455  A
C293  N90   1.401 .      A
C293  N92   1.407 .      A
N90   C294  1.343 .      A
C294  C295  1.377 .      A
C294  C299  1.378 .      A
C295  C296  1.381 .      A
C296  C297  1.379 1_565  A
C297  C296  1.379 1_545  A
C297  C298  1.379 .      A
C298  C299  1.380 1_545  A
C299  C298  1.380 1_565  A
C299  N92   1.368 .      A
C300  C301  1.373 .      A
C300  C305  1.373 .      A
C301  C302  1.379 .      A
C302  C303  1.382 .      A
C303  C304  1.379 .      A
C304  C305  1.378 .      A
C306  N94   1.409 .      A
C306  N96   1.401 .      A
N94   C307  1.332 .      A
C307  C308  1.353 .      A
C307  C312  1.345 .      A
C308  C309  1.366 .      A
C309  C310  1.362 .      A
C310  C311  1.383 .      A
C311  C312  1.336 .      A
C312  N96   1.331 .      A
C313  C314  1.343 .      A
C313  C318  1.339 .      A
C314  C315  1.368 .      A
C315  C316  1.353 .      A
C316  C317  1.339 .      A
C317  C318  1.353 .      A
C319  N98   1.405 .      A
C319  N100  1.415 .      A
N98   C320  1.332 .      A
C320  C321  1.374 .      A
C320  C325  1.377 .      A
C321  C322  1.375 .      A
C322  C323  1.380 .      A
C323  C324  1.385 .      A
C324  C325  1.369 .      A
C325  N100  1.374 .      A
C326  C327  1.360 .      A
C326  C331  1.379 .      A
C327  C328  1.367 .      A
C328  C329  1.378 .      A
C329  C330  1.375 .      A
C330  C331  1.379 .      A
C332  N102  1.402 .      A
C332  N104  1.425 .      A
N102  C333  1.331 .      A
C333  C334  1.356 .      A
C333  C338  1.365 .      A
C334  C335  1.365 .      A
C335  C336  1.364 .      A
C336  C337  1.367 .      A
C337  C338  1.337 .      A
C338  N104  1.327 .      A
C339  C340  1.347 1_554  A
C339  C344  1.370 .      A
C340  C339  1.347 1_556  A
C340  C341  1.369 .      A
C341  C342  1.349 .      A
C342  C343  1.387 .      A
C343  C344  1.375 1_556  A
C344  C343  1.375 1_554  A
C345  N106  1.400 .      A
C345  N108  1.378 .      A
N106  C346  1.362 .      A
C346  C347  1.370 .      A
C346  C351  1.368 .      A
C347  C348  1.393 1_556  A
C348  C347  1.393 1_554  A
C348  C349  1.385 .      A
C349  C350  1.376 1_554  A
C350  C349  1.376 1_556  A
C350  C351  1.367 .      A
C351  N108  1.331 .      A
C352  C353  1.353 .      A
C352  C357  1.353 .      A
C353  C354  1.383 .      A
C354  C355  1.334 .      A
C355  C356  1.352 .      A
C356  C357  1.367 .      A
C358  N110  1.423 .      A
C358  N112  1.394 .      A
N110  C359  1.350 .      A
C359  C360  1.372 1_556  A
C359  C364  1.374 .      A
C360  C359  1.372 1_554  A
C360  C361  1.387 .      A
C361  C362  1.383 .      A
C362  C363  1.378 1_554  A
C363  C362  1.378 1_556  A
C363  C364  1.368 .      A
C364  N112  1.354 .      A
C365  C366  1.378 1_546  A
C365  C370  1.377 .      A
C366  C365  1.378 1_564  A
C366  C367  1.379 1_554  A
C367  C366  1.379 1_556  A
C367  C368  1.373 .      A
C368  C369  1.383 1_565  A
C369  C368  1.383 1_545  A
C369  C370  1.379 .      A
C371  N114  1.411 .      A
C371  N116  1.427 .      A
N114  C372  1.358 .      A
C372  C373  1.379 1_565  A
C372  C377  1.372 .      A
C373  C372  1.379 1_545  A
C373  C374  1.389 .      A
C374  C375  1.362 1_545  A
C375  C374  1.362 1_565  A
C375  C376  1.369 .      A
C376  C377  1.352 .      A
C377  N116  1.336 .      A
C378  C379  1.366 .      A
C378  C383  1.370 1_564  A
C379  C380  1.377 .      A
C380  C381  1.375 .      A
C381  C382  1.376 1_554  A
C382  C381  1.376 1_556  A
C382  C383  1.375 1_565  A
C383  C378  1.370 1_546  A
C383  C382  1.375 1_545  A
C384  N118  1.419 .      A
C384  N120  1.417 1_554  A
N118  C385  1.366 .      A
C385  C386  1.375 .      A
C385  C390  1.384 .      A
C386  C387  1.389 1_455  A
C387  C386  1.389 1_655  A
C387  C388  1.383 .      A
C388  C389  1.377 .      A
C389  C390  1.370 1_655  A
C390  C389  1.370 1_455  A
C390  N120  1.342 1_554  A
N120  C384  1.417 1_556  A
N120  C390  1.342 1_556  A
C391  C392  1.375 .      A
C391  C396  1.374 .      A
C392  C393  1.380 .      A
C393  C394  1.375 .      A
C394  C395  1.375 .      A
C395  C396  1.380 .      A
C397  N122  1.419 1_554  A
C397  N124  1.427 .      A
N122  C397  1.419 1_556  A
N122  C398  1.344 .      A
C398  C399  1.355 .      A
C398  C403  1.359 1_456  A
C399  C400  1.383 1_455  A
C400  C399  1.383 1_655  A
C400  C401  1.364 .      A
C401  C402  1.350 1_556  A
C402  C401  1.350 1_554  A
C402  C403  1.359 .      A
C403  C398  1.359 1_654  A
C403  N124  1.332 1_655  A
N124  C403  1.332 1_455  A
C404  C405  1.361 .      A
C404  C409  1.362 .      A
C405  C406  1.347 .      A
C406  C407  1.377 .      A
C407  C408  1.339 .      A
C408  C409  1.357 .      A
C410  N126  1.384 1_655  A
C410  N128  1.407 .      A
N126  C410  1.384 1_455  A
N126  C411  1.324 .      A
C411  C412  1.363 .      A
C411  C416  1.366 1_455  A
C412  C413  1.374 .      A
C413  C414  1.388 .      A
C414  C415  1.375 .      A
C415  C416  1.329 1_455  A
C416  C411  1.366 1_655  A
C416  C415  1.329 1_655  A
C416  N128  1.348 .      A
