data_str_m1_o12014_CGS
_audit_creation_date              2015-10-01T06:35:47-0700
_symmetry_space_group_name_H-M    P1
_symmetry_Int_Tables_number       1
_space_group_crystal_system       triclinic
loop_
_symmetry_equiv_pos_as_xyz
  x,y,z
_cell_length_a                    18.1568341
_cell_length_b                    31.5040482
_cell_length_c                    33.9521591
_cell_angle_alpha                 91.9640609
_cell_angle_beta                  88.5160589
_cell_angle_gamma                 93.6522443
_cell_volume                      19364.7978091

loop_
_atom_site_label
_atom_site_type_symbol
_atom_site_description
_atom_site_fract_x
_atom_site_fract_y
_atom_site_fract_z
_atom_type_partial_charge
Zn1   Zn    Zn3+2 0.400056 0.968056 0.822505 0.000000
Zn2   Zn    Zn3+2 0.242297 0.671215 0.326110 0.000000
Zn3   Zn    Zn3+2 0.238150 0.464545 0.335418 0.000000
Zn4   Zn    Zn3+2 0.380177 0.173250 0.802541 0.000000
Zn5   Zn    Zn3+2 0.175674 0.960920 0.967449 0.000000
Zn6   Zn    Zn3+2 0.992381 0.458483 0.987080 0.000000
Zn7   Zn    Zn3+2 0.878867 0.176812 0.630342 0.000000
Zn8   Zn    Zn3+2 0.740069 0.457829 0.120866 0.000000
Zn9   Zn    Zn3+2 0.760871 0.664085 0.134894 0.000000
Zn10  Zn    Zn3+2 0.896360 0.973260 0.642285 0.000000
Zn11  Zn    Zn3+2 0.494402 0.323909 0.600776 0.000000
Zn12  Zn    Zn3+2 0.972260 0.818863 0.858912 0.000000
Zn13  Zn    Zn3+2 0.169597 0.325516 0.094603 0.000000
Zn14  Zn    Zn3+2 0.652323 0.320750 0.349167 0.000000
Zn15  Zn    Zn3+2 0.693422 0.820447 0.358058 0.000000
Zn16  Zn    Zn3+2 0.191962 0.816415 0.102633 0.000000
Zn17  Zn    Zn3+2 0.990453 0.311412 0.853748 0.000000
Zn18  Zn    Zn3+2 0.481126 0.757673 0.208532 0.000000
Zn19  Zn    Zn3+2 0.170117 0.868008 0.702956 0.000000
Zn20  Zn    Zn3+2 0.948994 0.376373 0.244400 0.000000
Zn21  Zn    Zn3+2 0.681811 0.281566 0.750276 0.000000
Zn22  Zn    Zn3+2 0.676779 0.862184 0.757015 0.000000
Zn23  Zn    Zn3+2 0.979296 0.776038 0.250961 0.000000
Zn24  Zn    Zn3+2 0.661420 0.960065 0.506166 0.000000
Zn25  Zn    Zn3+2 0.453959 0.371927 0.204420 0.000000
Zn26  Zn    Zn3+2 0.165592 0.174430 0.961408 0.000000
Zn27  Zn    Zn3+2 0.999417 0.672769 0.992296 0.000000
Zn28  Zn    Zn3+2 0.486071 0.681279 0.459952 0.000000
Zn29  Zn    Zn3+2 0.480166 0.458721 0.461848 0.000000
Zn30  Zn    Zn3+2 0.177549 0.276286 0.691526 0.000000
Zn31  Zn    Zn3+2 0.662181 0.173996 0.486143 0.000000
Zn32  Zn    Zn3+2 0.472425 0.812617 0.611707 0.000000
C1    C     C_3   0.431860 0.055250 0.895314 0.000000
C2    C     C_3   0.431206 0.089554 0.865168 0.000000
C3    C     C_3   0.509883 0.108213 0.861184 0.000000
C4    C     C_R   0.406776 0.073625 0.824980 0.000000
N1    N     N_R   0.419973 0.032418 0.811417 0.000000
C5    C     C_R   0.437994 0.037725 0.773831 0.000000
C6    C     C_R   0.460809 0.006531 0.748074 0.000000
C7    C     C_R   0.486526 0.017740 0.711247 0.000000
C8    C     C_R   0.482414 0.058955 0.700455 0.000000
C9    C     C_R   0.445994 0.086962 0.724496 0.000000
C10   C     C_R   0.427553 0.077755 0.763186 0.000000
N2    N     N_R   0.403684 0.102643 0.794975 0.000000
C11   C     C_2   0.519790 0.074447 0.664605 0.000000
O1    O     O_2   0.563816 0.052930 0.646874 0.000000
O2    O     O_2   0.509029 0.113617 0.652354 0.000000
H1    H     H_    0.464937 0.029241 0.884096 0.000000
H2    H     H_    0.457270 0.068401 0.922809 0.000000
H3    H     H_    0.375508 0.043467 0.903365 0.000000
H4    H     H_    0.395280 0.114412 0.876237 0.000000
H5    H     H_    0.536203 0.111929 0.890283 0.000000
H6    H     H_    0.541971 0.086859 0.841893 0.000000
H7    H     H_    0.510680 0.139821 0.848322 0.000000
H8    H     H_    0.462681 0.974588 0.757533 0.000000
H9    H     H_    0.510533 0.994975 0.691302 0.000000
H10   H     H_    0.434612 0.114848 0.711364 0.000000
H11   H     H_    0.536592 0.125018 0.630142 0.000000
C12   C     C_3   0.317288 0.591227 0.379124 0.000000
C13   C     C_3   0.321288 0.587650 0.334622 0.000000
C14   C     C_3   0.382161 0.564055 0.316122 0.000000
C15   C     C_R   0.248891 0.572390 0.323998 0.000000
N3    N     N_R   0.220758 0.532520 0.336025 0.000000
C16   C     C_R   0.158639 0.543214 0.355211 0.000000
C17   C     C_R   0.120963 0.518412 0.381788 0.000000
C18   C     C_R   0.068673 0.535984 0.406086 0.000000
C19   C     C_R   0.057752 0.579052 0.404838 0.000000
C20   C     C_R   0.098311 0.604615 0.378210 0.000000
C21   C     C_R   0.148055 0.585663 0.352893 0.000000
N4    N     N_R   0.202755 0.604909 0.330767 0.000000
C22   C     C_2   0.007759 0.597511 0.434243 0.000000
O3    O     O_2   0.004698 0.635861 0.437524 0.000000
O4    O     O_2   0.966258 0.572321 0.458505 0.000000
H12   H     H_    0.281485 0.566137 0.391398 0.000000
H13   H     H_    0.370857 0.595140 0.392970 0.000000
H14   H     H_    0.281952 0.615740 0.389537 0.000000
H15   H     H_    0.323752 0.619075 0.322715 0.000000
H16   H     H_    0.385473 0.572840 0.284891 0.000000
H17   H     H_    0.436110 0.573807 0.328419 0.000000
H18   H     H_    0.369722 0.529892 0.319628 0.000000
H19   H     H_    0.138602 0.487508 0.386391 0.000000
H20   H     H_    0.040533 0.516378 0.427989 0.000000
H21   H     H_    0.092575 0.638419 0.377865 0.000000
H22   H     H_    0.934010 0.584801 0.478139 0.000000
C23   C     C_3   0.276432 0.283707 0.811762 0.000000
C24   C     C_3   0.291328 0.276750 0.768257 0.000000
C25   C     C_3   0.369327 0.288320 0.757379 0.000000
C26   C     C_R   0.272958 0.233437 0.750565 0.000000
N5    N     N_R   0.307689 0.196329 0.758267 0.000000
C27   C     C_R   0.289292 0.172270 0.725680 0.000000
C28   C     C_R   0.304197 0.131674 0.717247 0.000000
C29   C     C_R   0.294046 0.114942 0.679750 0.000000
C30   C     C_R   0.253724 0.135535 0.653388 0.000000
C31   C     C_R   0.231969 0.176200 0.663564 0.000000
C32   C     C_R   0.249942 0.193201 0.700231 0.000000
N6    N     N_R   0.234211 0.230973 0.716065 0.000000
C33   C     C_2   0.227262 0.111013 0.618198 0.000000
O5    O     O_2   0.256192 0.078683 0.607425 0.000000
O6    O     O_2   0.169020 0.122589 0.598543 0.000000
H23   H     H_    0.277578 0.253717 0.827590 0.000000
H24   H     H_    0.316069 0.308328 0.824022 0.000000
H25   H     H_    0.223091 0.298253 0.815441 0.000000
H26   H     H_    0.258373 0.299137 0.753371 0.000000
H27   H     H_    0.371857 0.287235 0.725267 0.000000
H28   H     H_    0.388970 0.319835 0.769950 0.000000
H29   H     H_    0.401738 0.262951 0.765901 0.000000
H30   H     H_    0.319886 0.112533 0.740081 0.000000
H31   H     H_    0.312118 0.083767 0.672651 0.000000
H32   H     H_    0.199170 0.193548 0.644462 0.000000
H33   H     H_    0.155652 0.107566 0.574289 0.000000
C34   C     C_3   0.154535 0.973262 0.872728 0.000000
C35   C     C_3   0.230656 0.989529 0.863784 0.000000
C36   C     C_3   0.232144 0.037088 0.865251 0.000000
C37   C     C_R   0.283301 0.972648 0.891021 0.000000
N7    N     N_R   0.268245 0.960212 0.929372 0.000000
C38   C     C_R   0.334043 0.946088 0.939297 0.000000
C39   C     C_R   0.350622 0.921013 0.969548 0.000000
C40   C     C_R   0.423756 0.916774 0.977319 0.000000
C41   C     C_R   0.478225 0.934630 0.952714 0.000000
C42   C     C_R   0.458740 0.948673 0.916483 0.000000
C43   C     C_R   0.385251 0.952674 0.910183 0.000000
N8    N     N_R   0.353724 0.965916 0.877910 0.000000
C44   C     C_2   0.554485 0.939947 0.965902 0.000000
O7    O     O_2   0.569141 0.930544 0.999193 0.000000
O8    O     O_2   0.606861 0.959743 0.943274 0.000000
H34   H     H_    0.137798 0.988300 0.900914 0.000000
H35   H     H_    0.117883 0.981526 0.849295 0.000000
H36   H     H_    0.155665 0.938671 0.873757 0.000000
H37   H     H_    0.245425 0.978640 0.833740 0.000000
H38   H     H_    0.207954 0.049012 0.893281 0.000000
H39   H     H_    0.288237 0.050828 0.861239 0.000000
H40   H     H_    0.199956 0.046170 0.840303 0.000000
H41   H     H_    0.309216 0.903736 0.986328 0.000000
H42   H     H_    0.437354 0.900940 0.003567 0.000000
H43   H     H_    0.499083 0.958503 0.894761 0.000000
H44   H     H_    0.655644 0.965738 0.953541 0.000000
C45   C     C_3   0.987478 0.483993 0.077404 0.000000
C46   C     C_3   0.936681 0.444808 0.073079 0.000000
C47   C     C_3   0.922542 0.421450 0.108847 0.000000
C48   C     C_R   0.870823 0.452321 0.052339 0.000000
N9    N     N_R   0.797570 0.448496 0.066019 0.000000
C49   C     C_R   0.761501 0.448654 0.032067 0.000000
C50   C     C_R   0.687052 0.441936 0.027187 0.000000
C51   C     C_R   0.659351 0.447159 0.990357 0.000000
C52   C     C_R   0.706622 0.458750 0.959206 0.000000
C53   C     C_R   0.782512 0.461661 0.964190 0.000000
C54   C     C_R   0.809600 0.455575 0.000921 0.000000
N10   N     N_R   0.880872 0.455294 0.012599 0.000000
C55   C     C_2   0.675965 0.468022 0.921066 0.000000
O9    O     O_2   0.609385 0.465228 0.916738 0.000000
O10   O     O_2   0.720842 0.481185 0.891138 0.000000
H45   H     H_    0.044656 0.474725 0.076898 0.000000
H46   H     H_    0.979529 0.504515 0.052425 0.000000
H47   H     H_    0.978358 0.501703 0.105102 0.000000
H48   H     H_    0.961844 0.422437 0.053069 0.000000
H49   H     H_    0.865544 0.408348 0.107777 0.000000
H50   H     H_    0.958471 0.395032 0.107962 0.000000
H51   H     H_    0.935320 0.442364 0.134417 0.000000
H52   H     H_    0.651005 0.432536 0.051262 0.000000
H53   H     H_    0.600403 0.443185 0.986526 0.000000
H54   H     H_    0.818500 0.468337 0.939813 0.000000
H55   H     H_    0.700391 0.488126 0.866358 0.000000
C56   C     C_3   0.991343 0.201901 0.710703 0.000000
C57   C     C_3   0.052331 0.191073 0.683850 0.000000
C58   C     C_3   0.051725 0.146489 0.667799 0.000000
C59   C     C_R   0.043613 0.220219 0.653849 0.000000
N11   N     N_R   0.980226 0.220832 0.631600 0.000000
C60   C     C_R   0.991466 0.260175 0.615842 0.000000
C61   C     C_R   0.954912 0.278570 0.586201 0.000000
C62   C     C_R   0.975571 0.319964 0.576369 0.000000
C63   C     C_R   0.034066 0.342463 0.594601 0.000000
C64   C     C_R   0.073500 0.323080 0.622435 0.000000
C65   C     C_R   0.051416 0.282172 0.632255 0.000000
N12   N     N_R   0.086512 0.257347 0.656141 0.000000
C66   C     C_2   0.055954 0.385924 0.583001 0.000000
O11   O     O_2   0.012276 0.406860 0.566681 0.000000
O12   O     O_2   0.124561 0.402751 0.589886 0.000000
H56   H     H_    0.939024 0.199697 0.695223 0.000000
H57   H     H_    0.993672 0.182640 0.736811 0.000000
H58   H     H_    0.000286 0.236208 0.717864 0.000000
H59   H     H_    0.104416 0.198975 0.698582 0.000000
H60   H     H_    0.107225 0.137983 0.660213 0.000000
H61   H     H_    0.034818 0.125263 0.691290 0.000000
H62   H     H_    0.020277 0.143256 0.640606 0.000000
H63   H     H_    0.912400 0.262100 0.569409 0.000000
H64   H     H_    0.946436 0.334229 0.553351 0.000000
H65   H     H_    0.121906 0.338938 0.635118 0.000000
H66   H     H_    0.139182 0.431086 0.581435 0.000000
C67   C     C_3   0.719532 0.132723 0.616049 0.000000
C68   C     C_3   0.715073 0.131944 0.573094 0.000000
C69   C     C_3   0.635407 0.135060 0.566011 0.000000
C70   C     C_R   0.765760 0.166755 0.556832 0.000000
N13   N     N_R   0.834963 0.174969 0.572865 0.000000
C71   C     C_R   0.877225 0.185525 0.541157 0.000000
C72   C     C_R   0.953138 0.187731 0.539081 0.000000
C73   C     C_R   0.988038 0.189692 0.502655 0.000000
C74   C     C_R   0.946915 0.186614 0.468758 0.000000
C75   C     C_R   0.870302 0.185187 0.471516 0.000000
C76   C     C_R   0.835463 0.186567 0.508304 0.000000
N14   N     N_R   0.762704 0.176999 0.517534 0.000000
C77   C     C_2   0.984721 0.180883 0.430291 0.000000
O13   O     O_2   0.051884 0.184866 0.427715 0.000000
O14   O     O_2   0.945847 0.169553 0.397952 0.000000
H67   H     H_    0.703071 0.163696 0.627684 0.000000
H68   H     H_    0.681201 0.107499 0.628154 0.000000
H69   H     H_    0.776595 0.127502 0.622551 0.000000
H70   H     H_    0.732331 0.100912 0.561029 0.000000
H71   H     H_    0.614351 0.162217 0.583192 0.000000
H72   H     H_    0.628206 0.138677 0.535248 0.000000
H73   H     H_    0.605452 0.104974 0.574430 0.000000
H74   H     H_    0.985548 0.185161 0.564821 0.000000
H75   H     H_    0.047589 0.189979 0.501026 0.000000
H76   H     H_    0.839056 0.178389 0.445355 0.000000
H77   H     H_    0.971096 0.165320 0.372868 0.000000
C78   C     C_3   0.018637 0.061843 0.582709 0.000000
C79   C     C_3   0.945846 0.082229 0.586563 0.000000
C80   C     C_3   0.895911 0.068822 0.553147 0.000000
C81   C     C_R   0.910992 0.076747 0.626499 0.000000
N15   N     N_R   0.923834 0.042450 0.649964 0.000000
C82   C     C_R   0.925861 0.061778 0.686169 0.000000
C83   C     C_R   0.971424 0.054828 0.716875 0.000000
C84   C     C_R   0.966872 0.077100 0.751738 0.000000
C85   C     C_R   0.922842 0.110078 0.754542 0.000000
C86   C     C_R   0.896392 0.124351 0.720543 0.000000
C87   C     C_R   0.901737 0.101197 0.685490 0.000000
N16   N     N_R   0.895665 0.113488 0.647911 0.000000
C88   C     C_2   0.913222 0.133958 0.791560 0.000000
O15   O     O_2   0.943940 0.124153 0.821082 0.000000
O16   O     O_2   0.866539 0.165353 0.793675 0.000000
H78   H     H_    0.010308 0.027303 0.583643 0.000000
H79   H     H_    0.046399 0.070512 0.554383 0.000000
H80   H     H_    0.053388 0.073006 0.607717 0.000000
H81   H     H_    0.958799 0.116626 0.583832 0.000000
H82   H     H_    0.844528 0.052471 0.564105 0.000000
H83   H     H_    0.882298 0.097907 0.538771 0.000000
H84   H     H_    0.924914 0.048840 0.531100 0.000000
H85   H     H_    0.018862 0.038376 0.713751 0.000000
H86   H     H_    0.001377 0.070051 0.775329 0.000000
H87   H     H_    0.875405 0.154501 0.722991 0.000000
H88   H     H_    0.853608 0.178587 0.818588 0.000000
C89   C     C_3   0.722534 0.549488 0.041710 0.000000
C90   C     C_3   0.696514 0.578069 0.075242 0.000000
C91   C     C_3   0.616318 0.587210 0.071501 0.000000
C92   C     C_R   0.719193 0.566413 0.115967 0.000000
N17   N     N_R   0.742120 0.526390 0.125816 0.000000
C93   C     C_R   0.799498 0.538319 0.148416 0.000000
C94   C     C_R   0.859263 0.515583 0.150491 0.000000
C95   C     C_R   0.919688 0.531161 0.170801 0.000000
C96   C     C_R   0.925876 0.573832 0.180096 0.000000
C97   C     C_R   0.870423 0.598675 0.169628 0.000000
C98   C     C_R   0.805204 0.580141 0.156620 0.000000
N18   N     N_R   0.753986 0.599413 0.137625 0.000000
C99   C     C_2   0.997483 0.594051 0.189304 0.000000
O17   O     O_2   0.051550 0.573267 0.188167 0.000000
O18   O     O_2   0.006128 0.636520 0.189885 0.000000
H89   H     H_    0.771101 0.532966 0.050396 0.000000
H90   H     H_    0.677361 0.526926 0.031874 0.000000
H91   H     H_    0.739267 0.569579 0.016413 0.000000
H92   H     H_    0.726572 0.609046 0.070034 0.000000
H93   H     H_    0.609124 0.620424 0.081470 0.000000
H94   H     H_    0.599664 0.583386 0.040322 0.000000
H95   H     H_    0.580993 0.566466 0.090178 0.000000
H96   H     H_    0.858590 0.487101 0.133552 0.000000
H97   H     H_    0.965732 0.511556 0.173049 0.000000
H98   H     H_    0.882075 0.631543 0.166259 0.000000
H99   H     H_    0.054158 0.650004 0.184408 0.000000
C100  C     C_3   0.480037 0.258549 0.660524 0.000000
C101  C     C_3   0.559899 0.259280 0.671519 0.000000
C102  C     C_3   0.599692 0.231433 0.642761 0.000000
C103  C     C_R   0.592350 0.303070 0.673951 0.000000
N19   N     N_R   0.634230 0.318384 0.706057 0.000000
C104  C     C_R   0.632484 0.360745 0.702351 0.000000
C105  C     C_R   0.654075 0.392075 0.729488 0.000000
C106  C     C_R   0.642679 0.433829 0.721505 0.000000
C107  C     C_R   0.607546 0.443659 0.687389 0.000000
C108  C     C_R   0.582816 0.411412 0.661202 0.000000
C109  C     C_R   0.595136 0.369901 0.669203 0.000000
N20   N     N_R   0.567809 0.333691 0.650255 0.000000
C110  C     C_2   0.592672 0.487966 0.680189 0.000000
O19   O     O_2   0.614407 0.516507 0.702989 0.000000
O20   O     O_2   0.553865 0.497254 0.648704 0.000000
H100  H     H_    0.452034 0.280582 0.680205 0.000000
H101  H     H_    0.476137 0.267812 0.630648 0.000000
H102  H     H_    0.451140 0.226777 0.660469 0.000000
H103  H     H_    0.565300 0.248927 0.701023 0.000000
H104  H     H_    0.642961 0.216442 0.658327 0.000000
H105  H     H_    0.560786 0.206005 0.630913 0.000000
H106  H     H_    0.622978 0.251224 0.618837 0.000000
H107  H     H_    0.675895 0.384555 0.757343 0.000000
H108  H     H_    0.659420 0.458535 0.742891 0.000000
H109  H     H_    0.551728 0.418530 0.636084 0.000000
H110  H     H_    0.542592 0.526271 0.644521 0.000000
C111  C     C_3   0.423637 0.370603 0.698507 0.000000
C112  C     C_3   0.344031 0.358481 0.689777 0.000000
C113  C     C_3   0.308217 0.398236 0.678496 0.000000
C114  C     C_R   0.333955 0.324166 0.657891 0.000000
N21   N     N_R   0.263659 0.304505 0.652593 0.000000
C115  C     C_R   0.266830 0.294570 0.613257 0.000000
C116  C     C_R   0.214102 0.275203 0.589322 0.000000
C117  C     C_R   0.229954 0.268356 0.549771 0.000000
C118  C     C_R   0.301017 0.275946 0.535191 0.000000
C119  C     C_R   0.352853 0.297587 0.558387 0.000000
C120  C     C_R   0.334845 0.305080 0.597347 0.000000
N22   N     N_R   0.381580 0.320754 0.624609 0.000000
C121  C     C_2   0.322769 0.258326 0.496588 0.000000
O21   O     O_2   0.276946 0.240716 0.474917 0.000000
O22   O     O_2   0.394634 0.258256 0.486569 0.000000
H111  H     H_    0.450452 0.380084 0.670744 0.000000
H112  H     H_    0.427230 0.397581 0.720396 0.000000
H113  H     H_    0.452059 0.344155 0.710409 0.000000
H114  H     H_    0.314615 0.348505 0.716877 0.000000
H115  H     H_    0.270462 0.407694 0.702856 0.000000
H116  H     H_    0.350225 0.424925 0.675358 0.000000
H117  H     H_    0.277680 0.392448 0.650774 0.000000
H118  H     H_    0.164661 0.260364 0.600159 0.000000
H119  H     H_    0.188941 0.251009 0.531991 0.000000
H120  H     H_    0.407872 0.305548 0.547207 0.000000
H121  H     H_    0.409415 0.243390 0.462820 0.000000
C122  C     C_3   0.715563 0.268922 0.524719 0.000000
C123  C     C_3   0.646005 0.288326 0.537042 0.000000
C124  C     C_3   0.624097 0.316536 0.505033 0.000000
C125  C     C_R   0.587164 0.254550 0.542994 0.000000
N23   N     N_R   0.588481 0.213361 0.525244 0.000000
C126  C     C_R   0.520750 0.197614 0.535279 0.000000
C127  C     C_R   0.490663 0.159054 0.522935 0.000000
C128  C     C_R   0.417795 0.149335 0.529786 0.000000
C129  C     C_R   0.377862 0.176207 0.553119 0.000000
C130  C     C_R   0.411955 0.212361 0.571520 0.000000
C131  C     C_R   0.482700 0.225458 0.558903 0.000000
N24   N     N_R   0.523077 0.263379 0.564920 0.000000
C132  C     C_2   0.298325 0.167986 0.553640 0.000000
O23   O     O_2   0.269568 0.142386 0.530078 0.000000
O24   O     O_2   0.255929 0.191212 0.577279 0.000000
H122  H     H_    0.707865 0.253081 0.495981 0.000000
H123  H     H_    0.761938 0.293501 0.524577 0.000000
H124  H     H_    0.724699 0.244529 0.545547 0.000000
H125  H     H_    0.654826 0.306318 0.565094 0.000000
H126  H     H_    0.623890 0.298292 0.476699 0.000000
H127  H     H_    0.567786 0.326176 0.511585 0.000000
H128  H     H_    0.663444 0.344804 0.503063 0.000000
H129  H     H_    0.521892 0.137758 0.505780 0.000000
H130  H     H_    0.393056 0.120047 0.517148 0.000000
H131  H     H_    0.381893 0.230221 0.593150 0.000000
H132  H     H_    0.203303 0.189446 0.573524 0.000000
C133  C     C_3   0.406921 0.438901 0.599151 0.000000
C134  C     C_3   0.384724 0.410849 0.563710 0.000000
C135  C     C_3   0.328586 0.433307 0.540676 0.000000
C136  C     C_R   0.454734 0.398862 0.541719 0.000000
N25   N     N_R   0.490868 0.428315 0.516986 0.000000
C137  C     C_R   0.559862 0.429733 0.530382 0.000000
C138  C     C_R   0.608984 0.464221 0.529320 0.000000
C139  C     C_R   0.674014 0.463228 0.549371 0.000000
C140  C     C_R   0.688272 0.428014 0.570697 0.000000
C141  C     C_R   0.634463 0.395022 0.574263 0.000000
C142  C     C_R   0.568618 0.398175 0.555718 0.000000
N26   N     N_R   0.503630 0.376270 0.562765 0.000000
C143  C     C_2   0.756894 0.428035 0.592618 0.000000
O25   O     O_2   0.805140 0.456313 0.588203 0.000000
O26   O     O_2   0.766200 0.397632 0.618563 0.000000
H133  H     H_    0.447951 0.464651 0.590837 0.000000
H134  H     H_    0.358365 0.452773 0.613742 0.000000
H135  H     H_    0.432335 0.419192 0.620358 0.000000
H136  H     H_    0.355442 0.382196 0.575023 0.000000
H137  H     H_    0.351972 0.444960 0.512565 0.000000
H138  H     H_    0.279777 0.411086 0.535624 0.000000
H139  H     H_    0.307991 0.460847 0.557688 0.000000
H140  H     H_    0.594149 0.492642 0.515720 0.000000
H141  H     H_    0.712465 0.490767 0.549313 0.000000
H142  H     H_    0.642159 0.369259 0.593221 0.000000
H143  H     H_    0.810424 0.398942 0.633867 0.000000
C144  C     C_3   0.114654 0.928033 0.780810 0.000000
C145  C     C_3   0.071086 0.895289 0.803401 0.000000
C146  C     C_3   0.993941 0.909915 0.810305 0.000000
C147  C     C_R   0.071341 0.851074 0.785155 0.000000
N27   N     N_R   0.102710 0.838423 0.748651 0.000000
C148  C     C_R   0.076431 0.797261 0.745384 0.000000
C149  C     C_R   0.081407 0.769453 0.713460 0.000000
C150  C     C_R   0.051630 0.728184 0.716488 0.000000
C151  C     C_R   0.014920 0.715300 0.750829 0.000000
C152  C     C_R   0.007082 0.744286 0.782037 0.000000
C153  C     C_R   0.038804 0.785127 0.778690 0.000000
N28   N     N_R   0.033623 0.818474 0.804679 0.000000
C154  C     C_2   0.982654 0.671529 0.753656 0.000000
O27   O     O_2   0.988550 0.646168 0.725991 0.000000
O28   O     O_2   0.946414 0.659121 0.786815 0.000000
H144  H     H_    0.117466 0.916546 0.750189 0.000000
H145  H     H_    0.088819 0.958738 0.783706 0.000000
H146  H     H_    0.168894 0.933171 0.794085 0.000000
H147  H     H_    0.095307 0.894828 0.832427 0.000000
H148  H     H_    0.958056 0.884375 0.823322 0.000000
H149  H     H_    0.996495 0.938469 0.830251 0.000000
H150  H     H_    0.969389 0.918967 0.782997 0.000000
H151  H     H_    0.111589 0.778378 0.687350 0.000000
H152  H     H_    0.057662 0.706149 0.691685 0.000000
H153  H     H_    0.975070 0.735676 0.808116 0.000000
H154  H     H_    0.925279 0.630304 0.788553 0.000000
C155  C     C_3   0.830236 0.766133 0.753779 0.000000
C156  C     C_3   0.865390 0.805835 0.772331 0.000000
C157  C     C_3   0.895163 0.836250 0.742096 0.000000
C158  C     C_R   0.822630 0.824960 0.804570 0.000000
N29   N     N_R   0.748427 0.835126 0.802975 0.000000
C159  C     C_R   0.732640 0.839542 0.842408 0.000000
C160  C     C_R   0.669538 0.852832 0.860811 0.000000
C161  C     C_R   0.661911 0.855225 0.901125 0.000000
C162  C     C_R   0.722875 0.852522 0.923515 0.000000
C163  C     C_R   0.789306 0.845945 0.904732 0.000000
C164  C     C_R   0.793251 0.835316 0.864829 0.000000
N30   N     N_R   0.853401 0.826323 0.842013 0.000000
C165  C     C_2   0.718859 0.861846 0.966138 0.000000
O29   O     O_2   0.659114 0.861510 0.983211 0.000000
O30   O     O_2   0.780598 0.870919 0.986680 0.000000
H155  H     H_    0.806654 0.774915 0.726046 0.000000
H156  H     H_    0.872821 0.743611 0.745889 0.000000
H157  H     H_    0.790278 0.750707 0.774847 0.000000
H158  H     H_    0.909233 0.795205 0.788929 0.000000
H159  H     H_    0.939069 0.857527 0.754320 0.000000
H160  H     H_    0.919275 0.817964 0.717028 0.000000
H161  H     H_    0.850663 0.855427 0.733319 0.000000
H162  H     H_    0.627677 0.864651 0.845539 0.000000
H163  H     H_    0.610461 0.864665 0.914360 0.000000
H164  H     H_    0.836491 0.853437 0.921273 0.000000
H165  H     H_    0.777206 0.877054 0.014717 0.000000
C166  C     C_3   0.147124 0.827081 0.878070 0.000000
C167  C     C_3   0.135387 0.848121 0.917414 0.000000
C168  C     C_3   0.208881 0.865259 0.931986 0.000000
C169  C     C_R   0.081129 0.881722 0.915588 0.000000
N31   N     N_R   0.089402 0.921876 0.934975 0.000000
C170  C     C_R   0.023765 0.937518 0.927894 0.000000
C171  C     C_R   0.003851 0.978044 0.935574 0.000000
C172  C     C_R   0.932539 0.987926 0.930428 0.000000
C173  C     C_R   0.884043 0.958463 0.912525 0.000000
C174  C     C_R   0.910465 0.921058 0.896184 0.000000
C175  C     C_R   0.979585 0.909576 0.906117 0.000000
N32   N     N_R   0.014622 0.873674 0.896094 0.000000
C176  C     C_2   0.806680 0.968596 0.909256 0.000000
O31   O     O_2   0.786823 0.003188 0.920873 0.000000
O32   O     O_2   0.757444 0.940052 0.892969 0.000000
H166  H     H_    0.094024 0.812886 0.869177 0.000000
H167  H     H_    0.164153 0.850097 0.856160 0.000000
H168  H     H_    0.188444 0.802831 0.879894 0.000000
H169  H     H_    0.112455 0.822601 0.936221 0.000000
H170  H     H_    0.200985 0.886767 0.957593 0.000000
H171  H     H_    0.241094 0.838539 0.940517 0.000000
H172  H     H_    0.238876 0.882548 0.908498 0.000000
H173  H     H_    0.043601 0.002594 0.942858 0.000000
H174  H     H_    0.916319 0.019343 0.939205 0.000000
H175  H     H_    0.878348 0.902367 0.875454 0.000000
H176  H     H_    0.707764 0.947628 0.888668 0.000000
C177  C     C_3   0.923458 0.806781 0.950089 0.000000
C178  C     C_3   0.903749 0.760807 0.942970 0.000000
C179  C     C_3   0.841708 0.753244 0.914373 0.000000
C180  C     C_R   0.967600 0.743060 0.924375 0.000000
N33   N     N_R   0.997067 0.759299 0.889446 0.000000
C181  C     C_R   0.049393 0.730761 0.880878 0.000000
C182  C     C_R   0.103265 0.730872 0.851367 0.000000
C183  C     C_R   0.149400 0.697721 0.847741 0.000000
C184  C     C_R   0.142357 0.664393 0.873350 0.000000
C185  C     C_R   0.090933 0.665408 0.904071 0.000000
C186  C     C_R   0.048081 0.699789 0.908481 0.000000
N34   N     N_R   0.999463 0.707523 0.938078 0.000000
C187  C     C_2   0.191160 0.629086 0.868717 0.000000
O33   O     O_2   0.235330 0.627818 0.841103 0.000000
O34   O     O_2   0.188449 0.598315 0.895306 0.000000
H177  H     H_    0.927589 0.820770 0.921314 0.000000
H178  H     H_    0.883622 0.820936 0.971072 0.000000
H179  H     H_    0.978990 0.811276 0.961158 0.000000
H180  H     H_    0.890821 0.746139 0.970923 0.000000
H181  H     H_    0.858432 0.765523 0.885408 0.000000
H182  H     H_    0.830200 0.718795 0.909189 0.000000
H183  H     H_    0.792043 0.768077 0.926138 0.000000
H184  H     H_    0.113472 0.756478 0.831836 0.000000
H185  H     H_    0.191194 0.698327 0.824480 0.000000
H186  H     H_    0.083570 0.639340 0.923559 0.000000
H187  H     H_    0.222053 0.575797 0.892621 0.000000
C188  C     C_3   0.095076 0.413875 0.201469 0.000000
C189  C     C_3   0.063660 0.400797 0.164406 0.000000
C190  C     C_3   0.106189 0.421940 0.130871 0.000000
C191  C     C_R   0.051150 0.354483 0.165792 0.000000
N35   N     N_R   0.086604 0.324763 0.141745 0.000000
C192  C     C_R   0.059270 0.288428 0.157391 0.000000
C193  C     C_R   0.083647 0.248954 0.149918 0.000000
C194  C     C_R   0.042199 0.214508 0.164518 0.000000
C195  C     C_R   0.974360 0.220738 0.182639 0.000000
C196  C     C_R   0.956022 0.261659 0.193589 0.000000
C197  C     C_R   0.005950 0.295339 0.185768 0.000000
N36   N     N_R   0.003178 0.337761 0.195126 0.000000
C198  C     C_2   0.921493 0.184151 0.188831 0.000000
O35   O     O_2   0.940825 0.148017 0.183391 0.000000
O36   O     O_2   0.850640 0.190250 0.198851 0.000000
H188  H     H_    0.118963 0.387793 0.216258 0.000000
H189  H     H_    0.132189 0.441738 0.197253 0.000000
H190  H     H_    0.044504 0.420583 0.216638 0.000000
H191  H     H_    0.009612 0.413643 0.167346 0.000000
H192  H     H_    0.161013 0.410346 0.124525 0.000000
H193  H     H_    0.072819 0.416993 0.105134 0.000000
H194  H     H_    0.111988 0.456893 0.136412 0.000000
H195  H     H_    0.133340 0.245401 0.132730 0.000000
H196  H     H_    0.059433 0.182762 0.158209 0.000000
H197  H     H_    0.901568 0.266477 0.204599 0.000000
H198  H     H_    0.815799 0.166091 0.202173 0.000000
C199  C     C_3   0.225902 0.337112 0.212686 0.000000
C200  C     C_3   0.247300 0.367957 0.180387 0.000000
C201  C     C_3   0.267532 0.412764 0.192126 0.000000
C202  C     C_R   0.302042 0.350691 0.153718 0.000000
N37   N     N_R   0.372292 0.340975 0.165446 0.000000
C203  C     C_R   0.379988 0.303922 0.144952 0.000000
C204  C     C_R   0.438703 0.278749 0.142914 0.000000
C205  C     C_R   0.427385 0.236969 0.129641 0.000000
C206  C     C_R   0.357155 0.221132 0.119469 0.000000
C207  C     C_R   0.301250 0.248830 0.117066 0.000000
C208  C     C_R   0.317075 0.291503 0.125793 0.000000
N38   N     N_R   0.271174 0.323659 0.125515 0.000000
C209  C     C_2   0.342071 0.175326 0.111567 0.000000
O37   O     O_2   0.392084 0.151277 0.111596 0.000000
O38   O     O_2   0.272576 0.159449 0.105425 0.000000
H199  H     H_    0.264882 0.311655 0.212986 0.000000
H200  H     H_    0.219124 0.353742 0.241446 0.000000
H201  H     H_    0.172049 0.320647 0.205908 0.000000
H202  H     H_    0.198810 0.367572 0.162749 0.000000
H203  H     H_    0.246162 0.433909 0.170472 0.000000
H204  H     H_    0.245816 0.420993 0.221889 0.000000
H205  H     H_    0.327112 0.416346 0.189240 0.000000
H206  H     H_    0.489802 0.289240 0.155483 0.000000
H207  H     H_    0.472275 0.216139 0.130768 0.000000
H208  H     H_    0.246723 0.236974 0.109172 0.000000
H209  H     H_    0.262497 0.129158 0.101460 0.000000
C210  C     C_3   0.015730 0.220099 0.020538 0.000000
C211  C     C_3   0.071001 0.224869 0.052732 0.000000
C212  C     C_3   0.079449 0.182667 0.071927 0.000000
C213  C     C_R   0.144509 0.239434 0.036847 0.000000
N39   N     N_R   0.187728 0.213502 0.012955 0.000000
C214  C     C_R   0.255612 0.231337 0.019311 0.000000
C215  C     C_R   0.321472 0.212668 0.015250 0.000000
C216  C     C_R   0.385677 0.237224 0.022730 0.000000
C217  C     C_R   0.382462 0.279951 0.033619 0.000000
C218  C     C_R   0.314309 0.296545 0.041432 0.000000
C219  C     C_R   0.251839 0.269707 0.038213 0.000000
N40   N     N_R   0.182908 0.274713 0.053301 0.000000
C220  C     C_2   0.450912 0.305893 0.041162 0.000000
O39   O     O_2   0.510418 0.292664 0.031091 0.000000
O40   O     O_2   0.448541 0.343713 0.060591 0.000000
H210  H     H_    0.036816 0.197525 0.998778 0.000000
H211  H     H_    0.961073 0.208290 0.032471 0.000000
H212  H     H_    0.011134 0.250659 0.006162 0.000000
H213  H     H_    0.051695 0.248666 0.074614 0.000000
H214  H     H_    0.105501 0.160432 0.050989 0.000000
H215  H     H_    0.118895 0.186627 0.096076 0.000000
H216  H     H_    0.025261 0.169079 0.082960 0.000000
H217  H     H_    0.323834 0.179379 0.008438 0.000000
H218  H     H_    0.438028 0.222807 0.019508 0.000000
H219  H     H_    0.310836 0.328240 0.053043 0.000000
H220  H     H_    0.493708 0.360430 0.066143 0.000000
C221  C     C_3   0.967890 0.330415 0.055386 0.000000
C222  C     C_3   0.032245 0.342158 0.028080 0.000000
C223  C     C_3   0.006242 0.344853 0.987230 0.000000
C224  C     C_R   0.077154 0.382004 0.039212 0.000000
N41   N     N_R   0.073616 0.420830 0.019574 0.000000
C225  C     C_R   0.145345 0.434727 0.020110 0.000000
C226  C     C_R   0.177198 0.466069 0.997766 0.000000
C227  C     C_R   0.252958 0.469368 0.993218 0.000000
C228  C     C_R   0.296063 0.442538 0.012911 0.000000
C229  C     C_R   0.263107 0.413409 0.038927 0.000000
C230  C     C_R   0.187194 0.408835 0.040938 0.000000
N42   N     N_R   0.144756 0.376333 0.056162 0.000000
C231  C     C_2   0.376103 0.444583 0.005024 0.000000
O41   O     O_2   0.404597 0.471333 0.983353 0.000000
O42   O     O_2   0.418371 0.416538 0.020977 0.000000
H221  H     H_    0.923601 0.352551 0.052814 0.000000
H222  H     H_    0.944191 0.298188 0.047143 0.000000
H223  H     H_    0.988160 0.329615 0.085630 0.000000
H224  H     H_    0.069930 0.316102 0.028207 0.000000
H225  H     H_    0.054439 0.351662 0.967510 0.000000
H226  H     H_    0.976102 0.314739 0.977665 0.000000
H227  H     H_    0.969998 0.371326 0.988025 0.000000
H228  H     H_    0.143130 0.486300 0.982889 0.000000
H229  H     H_    0.277876 0.492627 0.973455 0.000000
H230  H     H_    0.295983 0.394077 0.055938 0.000000
H231  H     H_    0.470874 0.417959 0.015363 0.000000
C232  C     C_3   0.891590 0.427167 0.330084 0.000000
C233  C     C_3   0.817457 0.404032 0.331321 0.000000
C234  C     C_3   0.756568 0.432779 0.323491 0.000000
C235  C     C_R   0.810736 0.361833 0.309111 0.000000
N43   N     N_R   0.867426 0.346339 0.285018 0.000000
C236  C     C_R   0.852078 0.303854 0.286686 0.000000
C237  C     C_R   0.898095 0.271955 0.277222 0.000000
C238  C     C_R   0.872640 0.230260 0.282105 0.000000
C239  C     C_R   0.801606 0.220769 0.296390 0.000000
C240  C     C_R   0.758027 0.253604 0.308512 0.000000
C241  C     C_R   0.785997 0.294909 0.305133 0.000000
N44   N     N_R   0.757654 0.330466 0.320791 0.000000
C242  C     C_2   0.776171 0.176234 0.302428 0.000000
O43   O     O_2   0.813035 0.147518 0.289785 0.000000
O44   O     O_2   0.713700 0.166832 0.323337 0.000000
H232  H     H_    0.916079 0.421972 0.300839 0.000000
H233  H     H_    0.888606 0.461422 0.337919 0.000000
H234  H     H_    0.923947 0.414905 0.353615 0.000000
H235  H     H_    0.816045 0.396547 0.361796 0.000000
H236  H     H_    0.707510 0.423433 0.341100 0.000000
H237  H     H_    0.771119 0.466025 0.333220 0.000000
H238  H     H_    0.743702 0.430124 0.291969 0.000000
H239  H     H_    0.954165 0.278851 0.267224 0.000000
H240  H     H_    0.909378 0.205278 0.275079 0.000000
H241  H     H_    0.706527 0.247014 0.323231 0.000000
H242  H     H_    0.698926 0.137497 0.328424 0.000000
C243  C     C_3   0.428239 0.351899 0.376629 0.000000
C244  C     C_3   0.479002 0.362020 0.410815 0.000000
C245  C     C_3   0.493001 0.323536 0.433517 0.000000
C246  C     C_R   0.547049 0.388724 0.402090 0.000000
N45   N     N_R   0.611251 0.371558 0.386755 0.000000
C247  C     C_R   0.661939 0.395323 0.406741 0.000000
C248  C     C_R   0.730104 0.383537 0.413505 0.000000
C249  C     C_R   0.776806 0.409801 0.436250 0.000000
C250  C     C_R   0.752648 0.447789 0.451802 0.000000
C251  C     C_R   0.679248 0.456673 0.447782 0.000000
C252  C     C_R   0.633360 0.428542 0.426878 0.000000
N46   N     N_R   0.558953 0.426016 0.425013 0.000000
C253  C     C_2   0.804660 0.477614 0.472818 0.000000
O45   O     O_2   0.867666 0.468088 0.477925 0.000000
O46   O     O_2   0.783713 0.515808 0.486067 0.000000
H243  H     H_    0.457052 0.335087 0.352386 0.000000
H244  H     H_    0.379226 0.331786 0.386342 0.000000
H245  H     H_    0.408172 0.381941 0.366410 0.000000
H246  H     H_    0.451771 0.381226 0.432806 0.000000
H247  H     H_    0.483678 0.331483 0.465135 0.000000
H248  H     H_    0.452730 0.297443 0.425153 0.000000
H249  H     H_    0.550011 0.314568 0.428505 0.000000
H250  H     H_    0.746763 0.355150 0.398567 0.000000
H251  H     H_    0.832900 0.401306 0.439904 0.000000
H252  H     H_    0.658602 0.484830 0.460076 0.000000
H253  H     H_    0.818218 0.535265 0.499817 0.000000
C254  C     C_3   0.829478 0.243926 0.392632 0.000000
C255  C     C_3   0.774708 0.255495 0.424690 0.000000
C256  C     C_3   0.796733 0.298855 0.442181 0.000000
C257  C     C_R   0.695018 0.245635 0.414631 0.000000
N47   N     N_R   0.654133 0.266759 0.387386 0.000000
C258  C     C_R   0.588783 0.244448 0.389746 0.000000
C259  C     C_R   0.526000 0.252922 0.370996 0.000000
C260  C     C_R   0.463056 0.227011 0.376254 0.000000
C261  C     C_R   0.461020 0.196306 0.404359 0.000000
C262  C     C_R   0.523025 0.192027 0.426814 0.000000
C263  C     C_R   0.588332 0.213754 0.416886 0.000000
N48   N     N_R   0.654867 0.212554 0.433849 0.000000
C264  C     C_2   0.391416 0.171153 0.411805 0.000000
O47   O     O_2   0.339609 0.173559 0.390024 0.000000
O48   O     O_2   0.383616 0.145987 0.442951 0.000000
H254  H     H_    0.835398 0.269029 0.370932 0.000000
H255  H     H_    0.884286 0.242584 0.405849 0.000000
H256  H     H_    0.812452 0.212512 0.379060 0.000000
H257  H     H_    0.781495 0.234537 0.448705 0.000000
H258  H     H_    0.833859 0.294715 0.466957 0.000000
H259  H     H_    0.829853 0.317929 0.420581 0.000000
H260  H     H_    0.747583 0.314503 0.453470 0.000000
H261  H     H_    0.524931 0.280037 0.353344 0.000000
H262  H     H_    0.414340 0.233218 0.360304 0.000000
H263  H     H_    0.520908 0.171778 0.451058 0.000000
H264  H     H_    0.337420 0.129801 0.447653 0.000000
C265  C     C_3   0.614299 0.415057 0.251987 0.000000
C266  C     C_3   0.585584 0.390419 0.286605 0.000000
C267  C     C_3   0.525721 0.413503 0.307298 0.000000
C268  C     C_R   0.561244 0.346280 0.275625 0.000000
N49   N     N_R   0.515792 0.333487 0.244271 0.000000
C269  C     C_R   0.512733 0.290305 0.247808 0.000000
C270  C     C_R   0.466187 0.259634 0.229835 0.000000
C271  C     C_R   0.471446 0.217381 0.237734 0.000000
C272  C     C_R   0.520762 0.205468 0.264936 0.000000
C273  C     C_R   0.563419 0.236473 0.285282 0.000000
C274  C     C_R   0.556595 0.278848 0.277482 0.000000
N50   N     N_R   0.585566 0.313750 0.297342 0.000000
C275  C     C_2   0.522747 0.160389 0.274313 0.000000
O49   O     O_2   0.489851 0.133089 0.254019 0.000000
O50   O     O_2   0.558874 0.148955 0.305971 0.000000
H265  H     H_    0.569917 0.417003 0.230950 0.000000
H266  H     H_    0.630506 0.447424 0.262972 0.000000
H267  H     H_    0.662727 0.400261 0.238368 0.000000
H268  H     H_    0.629737 0.387489 0.307349 0.000000
H269  H     H_    0.505985 0.436320 0.287462 0.000000
H270  H     H_    0.480029 0.390568 0.314037 0.000000
H271  H     H_    0.547122 0.430903 0.333899 0.000000
H272  H     H_    0.421079 0.267306 0.212657 0.000000
H273  H     H_    0.434024 0.193956 0.223520 0.000000
H274  H     H_    0.598438 0.227110 0.307783 0.000000
H275  H     H_    0.558934 0.119292 0.312290 0.000000
C276  C     C_3   0.591973 0.712425 0.263661 0.000000
C277  C     C_3   0.621323 0.743939 0.292783 0.000000
C278  C     C_3   0.703637 0.740448 0.292834 0.000000
C279  C     C_R   0.599872 0.786907 0.283092 0.000000
N51   N     N_R   0.558948 0.796362 0.250045 0.000000
C280  C     C_R   0.574763 0.839108 0.249358 0.000000
C281  C     C_R   0.570495 0.864883 0.217690 0.000000
C282  C     C_R   0.593963 0.907396 0.222019 0.000000
C283  C     C_R   0.625075 0.923442 0.256936 0.000000
C284  C     C_R   0.635027 0.896391 0.287502 0.000000
C285  C     C_R   0.611382 0.854189 0.282667 0.000000
N52   N     N_R   0.628620 0.821772 0.305051 0.000000
C286  C     C_2   0.651475 0.968435 0.260430 0.000000
O51   O     O_2   0.642675 0.992280 0.233648 0.000000
O52   O     O_2   0.685858 0.983603 0.293117 0.000000
H276  H     H_    0.628023 0.717449 0.237745 0.000000
H277  H     H_    0.593697 0.680473 0.275793 0.000000
H278  H     H_    0.535405 0.718129 0.256545 0.000000
H279  H     H_    0.602235 0.736346 0.322189 0.000000
H280  H     H_    0.729762 0.748568 0.264221 0.000000
H281  H     H_    0.726339 0.761101 0.316579 0.000000
H282  H     H_    0.715322 0.707403 0.299254 0.000000
H283  H     H_    0.548809 0.852624 0.190063 0.000000
H284  H     H_    0.588806 0.927805 0.197427 0.000000
H285  H     H_    0.664857 0.907342 0.313375 0.000000
H286  H     H_    0.703229 0.013196 0.295266 0.000000
C287  C     C_3   0.518063 0.811938 0.372370 0.000000
C288  C     C_3   0.530504 0.794928 0.411716 0.000000
C289  C     C_3   0.457590 0.781888 0.430147 0.000000
C290  C     C_R   0.582450 0.759822 0.409249 0.000000
N53   N     N_R   0.571889 0.721011 0.428526 0.000000
C291  C     C_R   0.638595 0.705772 0.422930 0.000000
C292  C     C_R   0.665403 0.675518 0.444689 0.000000
C293  C     C_R   0.736668 0.664726 0.437487 0.000000
C294  C     C_R   0.779778 0.684920 0.408857 0.000000
C295  C     C_R   0.754413 0.719237 0.389701 0.000000
C296  C     C_R   0.683240 0.730118 0.398429 0.000000
N54   N     N_R   0.649981 0.765622 0.389215 0.000000
C297  C     C_2   0.854494 0.671533 0.402454 0.000000
O53   O     O_2   0.867293 0.634701 0.407694 0.000000
O54   O     O_2   0.909186 0.699424 0.390816 0.000000
H287  H     H_    0.557934 0.838879 0.367546 0.000000
H288  H     H_    0.529213 0.786770 0.351002 0.000000
H289  H     H_    0.461202 0.822409 0.370473 0.000000
H290  H     H_    0.556126 0.821712 0.428574 0.000000
H291  H     H_    0.468948 0.763237 0.455584 0.000000
H292  H     H_    0.428430 0.810724 0.438529 0.000000
H293  H     H_    0.422320 0.763020 0.409555 0.000000
H294  H     H_    0.631413 0.662272 0.467823 0.000000
H295  H     H_    0.760013 0.641469 0.455255 0.000000
H296  H     H_    0.790105 0.737328 0.369771 0.000000
H297  H     H_    0.958424 0.690136 0.386276 0.000000
C298  C     C_3   0.858311 0.886452 0.264779 0.000000
C299  C     C_3   0.805075 0.849453 0.274103 0.000000
C300  C     C_3   0.775522 0.828078 0.238002 0.000000
C301  C     C_R   0.835651 0.819015 0.300610 0.000000
N55   N     N_R   0.905275 0.802034 0.296538 0.000000
C302  C     C_R   0.920756 0.798409 0.335245 0.000000
C303  C     C_R   0.975403 0.778765 0.352941 0.000000
C304  C     C_R   0.996106 0.793021 0.389832 0.000000
C305  C     C_R   0.959110 0.824951 0.408678 0.000000
C306  C     C_R   0.893631 0.836420 0.393080 0.000000
C307  C     C_R   0.868774 0.814987 0.359254 0.000000
N56   N     N_R   0.808235 0.821336 0.338760 0.000000
C308  C     C_2   0.987008 0.843348 0.446036 0.000000
O55   O     O_2   0.046968 0.834339 0.457510 0.000000
O56   O     O_2   0.945369 0.868321 0.468902 0.000000
H298  H     H_    0.886877 0.879852 0.236452 0.000000
H299  H     H_    0.826936 0.915190 0.261730 0.000000
H300  H     H_    0.897349 0.892208 0.289227 0.000000
H301  H     H_    0.759878 0.863187 0.291069 0.000000
H302  H     H_    0.717110 0.818143 0.241748 0.000000
H303  H     H_    0.781301 0.849896 0.213082 0.000000
H304  H     H_    0.805711 0.799119 0.234395 0.000000
H305  H     H_    0.997909 0.750651 0.341171 0.000000
H306  H     H_    0.043600 0.780525 0.402500 0.000000
H307  H     H_    0.866632 0.863465 0.405291 0.000000
H308  H     H_    0.961977 0.877050 0.494880 0.000000
C309  C     C_3   0.527198 0.918959 0.421312 0.000000
C310  C     C_3   0.598356 0.923322 0.397196 0.000000
C311  C     C_3   0.615898 0.969054 0.386691 0.000000
C312  C     C_R   0.660078 0.905023 0.418125 0.000000
N57   N     N_R   0.683786 0.918541 0.455840 0.000000
C313  C     C_R   0.730603 0.888314 0.463310 0.000000
C314  C     C_R   0.765387 0.882497 0.497721 0.000000
C315  C     C_R   0.797619 0.845502 0.504084 0.000000
C316  C     C_R   0.795802 0.813691 0.475753 0.000000
C317  C     C_R   0.763491 0.820149 0.440034 0.000000
C318  C     C_R   0.732180 0.858238 0.433993 0.000000
N58   N     N_R   0.690792 0.867969 0.403528 0.000000
C319  C     C_2   0.825488 0.773467 0.485558 0.000000
O57   O     O_2   0.823186 0.762350 0.519633 0.000000
O58   O     O_2   0.859890 0.750022 0.458099 0.000000
H309  H     H_    0.538978 0.923865 0.452928 0.000000
H310  H     H_    0.488779 0.942197 0.411594 0.000000
H311  H     H_    0.500506 0.886750 0.416920 0.000000
H312  H     H_    0.589874 0.905656 0.369025 0.000000
H313  H     H_    0.673185 0.972715 0.374660 0.000000
H314  H     H_    0.577467 0.977806 0.363876 0.000000
H315  H     H_    0.608581 0.989974 0.412960 0.000000
H316  H     H_    0.755689 0.901286 0.523173 0.000000
H317  H     H_    0.819505 0.840817 0.532727 0.000000
H318  H     H_    0.765165 0.796513 0.417177 0.000000
H319  H     H_    0.881100 0.724506 0.466226 0.000000
C320  C     C_3   0.402966 0.729978 0.090539 0.000000
C321  C     C_3   0.336338 0.738861 0.115765 0.000000
C322  C     C_3   0.301971 0.698936 0.132672 0.000000
C323  C     C_R   0.343394 0.777801 0.142262 0.000000
N59   N     N_R   0.394832 0.788697 0.172728 0.000000
C324  C     C_R   0.372153 0.828029 0.183868 0.000000
C325  C     C_R   0.397357 0.855654 0.213516 0.000000
C326  C     C_R   0.366489 0.894221 0.220064 0.000000
C327  C     C_R   0.309453 0.905530 0.197287 0.000000
C328  C     C_R   0.280889 0.876757 0.169173 0.000000
C329  C     C_R   0.312882 0.838649 0.162926 0.000000
N60   N     N_R   0.292554 0.808210 0.135991 0.000000
C330  C     C_2   0.281681 0.948181 0.202236 0.000000
O59   O     O_2   0.300410 0.971234 0.230261 0.000000
O60   O     O_2   0.238171 0.962850 0.174964 0.000000
H320  H     H_    0.445854 0.717824 0.108708 0.000000
H321  H     H_    0.387582 0.705438 0.067502 0.000000
H322  H     H_    0.421191 0.759537 0.075678 0.000000
H323  H     H_    0.294419 0.747363 0.095591 0.000000
H324  H     H_    0.250328 0.690284 0.117043 0.000000
H325  H     H_    0.337245 0.673046 0.123877 0.000000
H326  H     H_    0.291424 0.702980 0.164791 0.000000
H327  H     H_    0.439936 0.848774 0.232117 0.000000
H328  H     H_    0.388935 0.915790 0.242783 0.000000
H329  H     H_    0.237373 0.884689 0.150722 0.000000
H330  H     H_    0.221475 0.991318 0.177899 0.000000
C331  C     C_3   0.129601 0.724827 0.148680 0.000000
C332  C     C_3   0.108141 0.750683 0.184298 0.000000
C333  C     C_3   0.175501 0.758933 0.207850 0.000000
C334  C     C_R   0.080836 0.792991 0.177277 0.000000
N61   N     N_R   0.111622 0.821539 0.149957 0.000000
C335  C     C_R   0.086195 0.858697 0.164489 0.000000
C336  C     C_R   0.098923 0.898890 0.150257 0.000000
C337  C     C_R   0.073343 0.932995 0.172096 0.000000
C338  C     C_R   0.040207 0.927199 0.209030 0.000000
C339  C     C_R   0.027513 0.886393 0.222865 0.000000
C340  C     C_R   0.046157 0.852688 0.198850 0.000000
N62   N     N_R   0.038130 0.811102 0.206882 0.000000
C341  C     C_2   0.019952 0.964324 0.233375 0.000000
O61   O     O_2   0.030136 0.000048 0.220768 0.000000
O62   O     O_2   0.990519 0.959246 0.269811 0.000000
H331  H     H_    0.171449 0.743463 0.131567 0.000000
H332  H     H_    0.152983 0.695630 0.158704 0.000000
H333  H     H_    0.081687 0.714395 0.131480 0.000000
H334  H     H_    0.065655 0.732184 0.201516 0.000000
H335  H     H_    0.165269 0.784212 0.230260 0.000000
H336  H     H_    0.190181 0.729176 0.220717 0.000000
H337  H     H_    0.221566 0.770383 0.188927 0.000000
H338  H     H_    0.128748 0.904544 0.123114 0.000000
H339  H     H_    0.083141 0.964545 0.160771 0.000000
H340  H     H_    0.006002 0.880896 0.252172 0.000000
H341  H     H_    0.977434 0.983767 0.285717 0.000000
C342  C     C_3   0.111692 0.836041 0.013869 0.000000
C343  C     C_3   0.095309 0.879866 0.025118 0.000000
C344  C     C_3   0.034159 0.884412 0.055820 0.000000
C345  C     C_R   0.164817 0.896801 0.040119 0.000000
N63   N     N_R   0.206003 0.876725 0.067773 0.000000
C346  C     C_R   0.266084 0.904749 0.069321 0.000000
C347  C     C_R   0.333341 0.898954 0.085105 0.000000
C348  C     C_R   0.388225 0.931334 0.083194 0.000000
C349  C     C_R   0.378323 0.967663 0.062405 0.000000
C350  C     C_R   0.313534 0.970848 0.042198 0.000000
C351  C     C_R   0.258740 0.938865 0.045627 0.000000
N64   N     N_R   0.198495 0.932369 0.023221 0.000000
C352  C     C_2   0.439717 0.000011 0.058326 0.000000
O63   O     O_2   0.494619 0.998468 0.078027 0.000000
O64   O     O_2   0.436682 0.030895 0.032143 0.000000
H342  H     H_    0.118434 0.822142 0.041359 0.000000
H343  H     H_    0.068969 0.820634 0.996186 0.000000
H344  H     H_    0.166043 0.834627 0.999055 0.000000
H345  H     H_    0.081288 0.897495 0.999628 0.000000
H346  H     H_    0.035513 0.918103 0.066276 0.000000
H347  H     H_    0.979909 0.875795 0.042598 0.000000
H348  H     H_    0.042078 0.865195 0.081561 0.000000
H349  H     H_    0.345971 0.868973 0.096103 0.000000
H350  H     H_    0.440666 0.926792 0.096239 0.000000
H351  H     H_    0.307578 0.996070 0.022255 0.000000
H352  H     H_    0.477536 0.051837 0.029298 0.000000
C353  C     C_3   0.973028 0.771396 0.032015 0.000000
C354  C     C_3   0.019886 0.766835 0.067015 0.000000
C355  C     C_3   0.970508 0.750648 0.098038 0.000000
C356  C     C_R   0.084670 0.741939 0.056811 0.000000
N65   N     N_R   0.082224 0.708632 0.028284 0.000000
C357  C     C_R   0.153963 0.708637 0.017179 0.000000
C358  C     C_R   0.182844 0.684527 0.987311 0.000000
C359  C     C_R   0.256060 0.692088 0.976507 0.000000
C360  C     C_R   0.298186 0.725520 0.994111 0.000000
C361  C     C_R   0.267194 0.750949 0.023629 0.000000
C362  C     C_R   0.196160 0.739968 0.036681 0.000000
N66   N     N_R   0.155173 0.760740 0.064040 0.000000
C363  C     C_2   0.375394 0.733401 0.981240 0.000000
O65   O     O_2   0.403995 0.708431 0.958263 0.000000
O66   O     O_2   0.415075 0.768249 0.994334 0.000000
H353  H     H_    0.922371 0.750821 0.034303 0.000000
H354  H     H_    0.956325 0.804436 0.031255 0.000000
H355  H     H_    0.003277 0.761945 0.004965 0.000000
H356  H     H_    0.038660 0.797845 0.079451 0.000000
H357  H     H_    0.994142 0.755099 0.127185 0.000000
H358  H     H_    0.924726 0.771208 0.095001 0.000000
H359  H     H_    0.953975 0.718023 0.092409 0.000000
H360  H     H_    0.149552 0.659388 0.973550 0.000000
H361  H     H_    0.279264 0.672263 0.953361 0.000000
H362  H     H_    0.297869 0.778362 0.036330 0.000000
H363  H     H_    0.465124 0.773374 0.984560 0.000000
C364  C     C_3   0.913515 0.313604 0.738818 0.000000
C365  C     C_3   0.874474 0.338120 0.770521 0.000000
C366  C     C_3   0.819612 0.366226 0.754182 0.000000
C367  C     C_R   0.838964 0.308898 0.798976 0.000000
N67   N     N_R   0.763607 0.296006 0.797891 0.000000
C368  C     C_R   0.751873 0.284246 0.835984 0.000000
C369  C     C_R   0.689409 0.266004 0.853885 0.000000
C370  C     C_R   0.685234 0.263229 0.894302 0.000000
C371  C     C_R   0.747203 0.272343 0.916516 0.000000
C372  C     C_R   0.813816 0.282213 0.897350 0.000000
C373  C     C_R   0.814958 0.289652 0.857357 0.000000
N68   N     N_R   0.873591 0.303085 0.834544 0.000000
C374  C     C_2   0.743487 0.266257 0.959307 0.000000
O67   O     O_2   0.683778 0.261011 0.976290 0.000000
O68   O     O_2   0.805775 0.265149 0.979813 0.000000
H364  H     H_    0.875587 0.287240 0.728268 0.000000
H365  H     H_    0.935257 0.335348 0.715709 0.000000
H366  H     H_    0.960120 0.299034 0.750929 0.000000
H367  H     H_    0.913668 0.358901 0.786983 0.000000
H368  H     H_    0.795378 0.384985 0.778929 0.000000
H369  H     H_    0.847752 0.388503 0.733222 0.000000
H370  H     H_    0.776206 0.346216 0.739047 0.000000
H371  H     H_    0.645869 0.250800 0.837935 0.000000
H372  H     H_    0.634510 0.250438 0.907913 0.000000
H373  H     H_    0.864394 0.284521 0.913457 0.000000
H374  H     H_    0.802972 0.260714 0.007837 0.000000
C375  C     C_3   0.126359 0.226643 0.817063 0.000000
C376  C     C_3   0.079193 0.240702 0.785185 0.000000
C377  C     C_3   0.000026 0.231393 0.799230 0.000000
C378  C     C_R   0.091911 0.287039 0.777110 0.000000
N69   N     N_R   0.056948 0.316725 0.800613 0.000000
C379  C     C_R   0.068827 0.352403 0.779333 0.000000
C380  C     C_R   0.041812 0.391835 0.786689 0.000000
C381  C     C_R   0.058189 0.423458 0.760111 0.000000
C382  C     C_R   0.100376 0.415634 0.726224 0.000000
C383  C     C_R   0.125912 0.375416 0.718668 0.000000
C384  C     C_R   0.109590 0.344564 0.745709 0.000000
N70   N     N_R   0.125450 0.303438 0.742610 0.000000
C385  C     C_2   0.117019 0.450067 0.698648 0.000000
O69   O     O_2   0.093223 0.484988 0.705293 0.000000
O70   O     O_2   0.159208 0.443580 0.666153 0.000000
H375  H     H_    0.098429 0.201120 0.834492 0.000000
H376  H     H_    0.176504 0.214221 0.803848 0.000000
H377  H     H_    0.138544 0.253861 0.836462 0.000000
H378  H     H_    0.094425 0.221596 0.759210 0.000000
H379  H     H_    0.957631 0.237447 0.778040 0.000000
H380  H     H_    0.994047 0.198293 0.807686 0.000000
H381  H     H_    0.987039 0.250458 0.825168 0.000000
H382  H     H_    0.007420 0.398381 0.812206 0.000000
H383  H     H_    0.037047 0.454375 0.766138 0.000000
H384  H     H_    0.157922 0.368176 0.692508 0.000000
H385  H     H_    0.170994 0.466662 0.648602 0.000000
C386  C     C_3   0.845261 0.369557 0.948212 0.000000
C387  C     C_3   0.886518 0.378520 0.909935 0.000000
C388  C     C_3   0.849301 0.407303 0.882646 0.000000
C389  C     C_R   0.966241 0.389409 0.913060 0.000000
N71   N     N_R   0.997301 0.426052 0.931501 0.000000
C390  C     C_R   0.059401 0.433313 0.909738 0.000000
C391  C     C_R   0.105214 0.469611 0.910172 0.000000
C392  C     C_R   0.167249 0.471331 0.885872 0.000000
C393  C     C_R   0.181802 0.437215 0.860557 0.000000
C394  C     C_R   0.132342 0.401822 0.859131 0.000000
C395  C     C_R   0.069476 0.400760 0.883198 0.000000
N72   N     N_R   0.011477 0.371061 0.885103 0.000000
C396  C     C_2   0.248910 0.437714 0.835043 0.000000
O71   O     O_2   0.270827 0.404162 0.821908 0.000000
O72   O     O_2   0.286011 0.474440 0.825079 0.000000
H386  H     H_    0.864961 0.392390 0.970592 0.000000
H387  H     H_    0.784734 0.369897 0.944924 0.000000
H388  H     H_    0.858393 0.338284 0.958621 0.000000
H389  H     H_    0.887879 0.349179 0.893326 0.000000
H390  H     H_    0.860649 0.396455 0.851824 0.000000
H391  H     H_    0.788717 0.405300 0.887745 0.000000
H392  H     H_    0.872080 0.440376 0.885608 0.000000
H393  H     H_    0.092125 0.497140 0.927741 0.000000
H394  H     H_    0.204489 0.499315 0.887647 0.000000
H395  H     H_    0.144020 0.375954 0.839220 0.000000
H396  H     H_    0.268171 0.502058 0.831626 0.000000
C397  C     C_3   0.152139 0.317612 0.893049 0.000000
C398  C     C_3   0.159073 0.275390 0.909701 0.000000
C399  C     C_3   0.188069 0.283441 0.949832 0.000000
C400  C     C_R   0.088189 0.248694 0.911704 0.000000
N73   N     N_R   0.085929 0.209812 0.930614 0.000000
C401  C     C_R   0.017989 0.193996 0.922836 0.000000
C402  C     C_R   0.989217 0.155371 0.934243 0.000000
C403  C     C_R   0.918430 0.142943 0.925871 0.000000
C404  C     C_R   0.877988 0.168730 0.904417 0.000000
C405  C     C_R   0.910248 0.206637 0.889343 0.000000
C406  C     C_R   0.980574 0.220669 0.900673 0.000000
N74   N     N_R   0.023157 0.257142 0.892177 0.000000
C407  C     C_2   0.799761 0.155785 0.901963 0.000000
O73   O     O_2   0.780545 0.118066 0.898777 0.000000
O74   O     O_2   0.750009 0.183375 0.913845 0.000000
H397  H     H_    0.129535 0.338433 0.916429 0.000000
H398  H     H_    0.207819 0.330862 0.883960 0.000000
H399  H     H_    0.116235 0.314445 0.867568 0.000000
H400  H     H_    0.200378 0.258111 0.892155 0.000000
H401  H     H_    0.216531 0.254860 0.954918 0.000000
H402  H     H_    0.228551 0.311334 0.950598 0.000000
H403  H     H_    0.141985 0.288259 0.971127 0.000000
H404  H     H_    0.021218 0.135095 0.949926 0.000000
H405  H     H_    0.894416 0.113428 0.937254 0.000000
H406  H     H_    0.882117 0.223151 0.868159 0.000000
H407  H     H_    0.699948 0.173472 0.920471 0.000000
C408  C     C_3   0.414990 0.789670 0.291591 0.000000
C409  C     C_3   0.348954 0.759946 0.293775 0.000000
C410  C     C_3   0.291678 0.780359 0.272013 0.000000
C411  C     C_R   0.362467 0.718790 0.273072 0.000000
N75   N     N_R   0.408002 0.716046 0.239972 0.000000
C412  C     C_R   0.387282 0.677288 0.224981 0.000000
C413  C     C_R   0.406173 0.661433 0.188719 0.000000
C414  C     C_R   0.373133 0.623306 0.175706 0.000000
C415  C     C_R   0.316354 0.603780 0.197328 0.000000
C416  C     C_R   0.299103 0.619197 0.235008 0.000000
C417  C     C_R   0.334691 0.657007 0.248143 0.000000
N76   N     N_R   0.317968 0.682301 0.279736 0.000000
C418  C     C_2   0.269433 0.570927 0.177141 0.000000
O75   O     O_2   0.289051 0.556195 0.145260 0.000000
O76   O     O_2   0.201347 0.560335 0.190946 0.000000
H408  H     H_    0.426287 0.793404 0.260489 0.000000
H409  H     H_    0.405214 0.820553 0.306828 0.000000
H410  H     H_    0.461565 0.774830 0.302883 0.000000
H411  H     H_    0.331601 0.754928 0.324640 0.000000
H412  H     H_    0.245404 0.757072 0.271440 0.000000
H413  H     H_    0.277879 0.811052 0.286305 0.000000
H414  H     H_    0.309955 0.784995 0.241318 0.000000
H415  H     H_    0.441724 0.679812 0.169204 0.000000
H416  H     H_    0.386324 0.611792 0.146200 0.000000
H417  H     H_    0.256409 0.602888 0.252074 0.000000
H418  H     H_    0.170936 0.539725 0.175935 0.000000
C419  C     C_3   0.546426 0.613491 0.162576 0.000000
C420  C     C_3   0.575464 0.647880 0.191401 0.000000
C421  C     C_3   0.636198 0.631058 0.213283 0.000000
C422  C     C_R   0.600110 0.687695 0.170609 0.000000
N77   N     N_R   0.647430 0.685685 0.137983 0.000000
C423  C     C_R   0.621522 0.716541 0.116305 0.000000
C424  C     C_R   0.609422 0.714902 0.076634 0.000000
C425  C     C_R   0.579128 0.749668 0.060742 0.000000
C426  C     C_R   0.559879 0.783923 0.084912 0.000000
C427  C     C_R   0.552894 0.778286 0.124906 0.000000
C428  C     C_R   0.577702 0.741711 0.138707 0.000000
N78   N     N_R   0.558707 0.723869 0.172870 0.000000
C429  C     C_2   0.536002 0.822746 0.068037 0.000000
O77   O     O_2   0.514847 0.851562 0.089459 0.000000
O78   O     O_2   0.538041 0.826884 0.028800 0.000000
H419  H     H_    0.516347 0.627611 0.138812 0.000000
H420  H     H_    0.592163 0.596765 0.148991 0.000000
H421  H     H_    0.510338 0.589767 0.178527 0.000000
H422  H     H_    0.532436 0.654685 0.213543 0.000000
H423  H     H_    0.674712 0.658223 0.220438 0.000000
H424  H     H_    0.612138 0.616498 0.240215 0.000000
H425  H     H_    0.664760 0.606834 0.195786 0.000000
H426  H     H_    0.624758 0.688248 0.058058 0.000000
H427  H     H_    0.572170 0.750230 0.029284 0.000000
H428  H     H_    0.525500 0.800314 0.144153 0.000000
H429  H     H_    0.521340 0.852163 0.017637 0.000000
C430  C     C_3   0.324029 0.833379 0.779915 0.000000
C431  C     C_3   0.275305 0.868267 0.791897 0.000000
C432  C     C_3   0.289062 0.882134 0.833413 0.000000
C433  C     C_R   0.287693 0.905362 0.766297 0.000000
N79   N     N_R   0.248544 0.908072 0.732078 0.000000
C434  C     C_R   0.266686 0.947889 0.721841 0.000000
C435  C     C_R   0.244448 0.967528 0.689784 0.000000
C436  C     C_R   0.246171 0.010796 0.691763 0.000000
C437  C     C_R   0.248997 0.029569 0.728829 0.000000
C438  C     C_R   0.285684 0.010901 0.757812 0.000000
C439  C     C_R   0.303259 0.969825 0.751061 0.000000
N80   N     N_R   0.323500 0.943637 0.778778 0.000000
C440  C     C_2   0.185880 0.052620 0.741448 0.000000
O79   O     O_2   0.146895 0.038252 0.768102 0.000000
O80   O     O_2   0.162235 0.083559 0.719674 0.000000
H430  H     H_    0.380235 0.840726 0.789313 0.000000
H431  H     H_    0.302148 0.802835 0.792260 0.000000
H432  H     H_    0.326293 0.832042 0.747904 0.000000
H433  H     H_    0.217839 0.855527 0.789723 0.000000
H434  H     H_    0.244337 0.901870 0.843660 0.000000
H435  H     H_    0.293059 0.853930 0.851619 0.000000
H436  H     H_    0.339912 0.902013 0.834506 0.000000
H437  H     H_    0.213220 0.950650 0.667632 0.000000
H438  H     H_    0.222087 0.026715 0.668256 0.000000
H439  H     H_    0.286501 0.024979 0.787050 0.000000
H440  H     H_    0.118515 0.097563 0.727687 0.000000
C441  C     C_3   0.220982 0.835181 0.578503 0.000000
C442  C     C_3   0.278700 0.862274 0.601141 0.000000
C443  C     C_3   0.251379 0.905885 0.606797 0.000000
C444  C     C_R   0.299715 0.841611 0.638575 0.000000
N81   N     N_R   0.248746 0.832669 0.669450 0.000000
C445  C     C_R   0.274913 0.797283 0.683690 0.000000
C446  C     C_R   0.249117 0.774257 0.715276 0.000000
C447  C     C_R   0.279042 0.736254 0.722340 0.000000
C448  C     C_R   0.332825 0.721127 0.696923 0.000000
C449  C     C_R   0.362699 0.747072 0.667545 0.000000
C450  C     C_R   0.337311 0.786602 0.663882 0.000000
N82   N     N_R   0.360339 0.816089 0.637590 0.000000
C451  C     C_2   0.356934 0.677970 0.701451 0.000000
O81   O     O_2   0.331905 0.656459 0.728426 0.000000
O82   O     O_2   0.405630 0.661532 0.675639 0.000000
H441  H     H_    0.169102 0.851466 0.577295 0.000000
H442  H     H_    0.239678 0.831395 0.547508 0.000000
H443  H     H_    0.210862 0.803705 0.591869 0.000000
H444  H     H_    0.328220 0.865837 0.582097 0.000000
H445  H     H_    0.289281 0.924421 0.626058 0.000000
H446  H     H_    0.250772 0.921158 0.577864 0.000000
H447  H     H_    0.195182 0.904089 0.619652 0.000000
H448  H     H_    0.211643 0.787088 0.736453 0.000000
H449  H     H_    0.258035 0.718078 0.747087 0.000000
H450  H     H_    0.397288 0.735407 0.644740 0.000000
H451  H     H_    0.420659 0.632986 0.678691 0.000000
C452  C     C_3   0.079049 0.998851 0.660088 0.000000
C453  C     C_3   0.064628 0.964672 0.690512 0.000000
C454  C     C_3   0.996114 0.963202 0.716246 0.000000
C455  C     C_R   0.048153 0.928534 0.666173 0.000000
N83   N     N_R   0.987360 0.928174 0.642142 0.000000
C456  C     C_R   0.991904 0.889499 0.623967 0.000000
C457  C     C_R   0.947330 0.870759 0.595356 0.000000
C458  C     C_R   0.959622 0.829587 0.582534 0.000000
C459  C     C_R   0.015789 0.807762 0.598026 0.000000
C460  C     C_R   0.061789 0.827657 0.625850 0.000000
C461  C     C_R   0.049380 0.868375 0.638321 0.000000
N84   N     N_R   0.087066 0.892256 0.665861 0.000000
C462  C     C_2   0.026359 0.763641 0.584949 0.000000
O83   O     O_2   0.984289 0.745506 0.561552 0.000000
O84   O     O_2   0.081394 0.742599 0.599452 0.000000
H452  H     H_    0.029327 0.003327 0.643990 0.000000
H453  H     H_    0.102015 0.029532 0.672142 0.000000
H454  H     H_    0.119316 0.987314 0.637754 0.000000
H455  H     H_    0.112528 0.962239 0.708319 0.000000
H456  H     H_    0.979331 0.929326 0.720702 0.000000
H457  H     H_    0.004631 0.979699 0.745154 0.000000
H458  H     H_    0.952052 0.976257 0.700267 0.000000
H459  H     H_    0.903101 0.886905 0.583287 0.000000
H460  H     H_    0.924430 0.814435 0.560416 0.000000
H461  H     H_    0.108729 0.812704 0.635965 0.000000
H462  H     H_    0.087641 0.713385 0.591171 0.000000
C463  C     C_3   0.170742 0.500428 0.257701 0.000000
C464  C     C_3   0.094176 0.484448 0.271621 0.000000
C465  C     C_3   0.037673 0.495730 0.242653 0.000000
C466  C     C_R   0.092626 0.440023 0.287852 0.000000
N85   N     N_R   0.037927 0.406365 0.282597 0.000000
C467  C     C_R   0.042834 0.386718 0.317278 0.000000
C468  C     C_R   0.004335 0.351108 0.329986 0.000000
C469  C     C_R   0.997052 0.344613 0.369908 0.000000
C470  C     C_R   0.029857 0.374147 0.396200 0.000000
C471  C     C_R   0.079414 0.405533 0.382024 0.000000
C472  C     C_R   0.090351 0.408155 0.341764 0.000000
N86   N     N_R   0.131689 0.437443 0.321921 0.000000
C473  C     C_2   0.015301 0.371101 0.438735 0.000000
O85   O     O_2   0.973301 0.342770 0.451392 0.000000
O86   O     O_2   0.048270 0.399655 0.464019 0.000000
H463  H     H_    0.183913 0.492350 0.226847 0.000000
H464  H     H_    0.174691 0.535505 0.261186 0.000000
H465  H     H_    0.213051 0.486815 0.274847 0.000000
H466  H     H_    0.081218 0.504618 0.297780 0.000000
H467  H     H_    0.015175 0.526308 0.252571 0.000000
H468  H     H_    0.063655 0.499544 0.213129 0.000000
H469  H     H_    0.992714 0.471287 0.240827 0.000000
H470  H     H_    0.983269 0.328295 0.309389 0.000000
H471  H     H_    0.963638 0.317391 0.380133 0.000000
H472  H     H_    0.110039 0.425833 0.402567 0.000000
H473  H     H_    0.039031 0.397359 0.491976 0.000000
C474  C     C_3   0.856407 0.332609 0.138280 0.000000
C475  C     C_3   0.814987 0.357604 0.169524 0.000000
C476  C     C_3   0.805131 0.332385 0.205695 0.000000
C477  C     C_R   0.839622 0.402826 0.179950 0.000000
N87   N     N_R   0.877137 0.414445 0.214457 0.000000
C478  C     C_R   0.842242 0.450037 0.226583 0.000000
C479  C     C_R   0.853254 0.478994 0.257616 0.000000
C480  C     C_R   0.800025 0.507611 0.266314 0.000000
C481  C     C_R   0.737669 0.508178 0.243915 0.000000
C482  C     C_R   0.733873 0.484458 0.209527 0.000000
C483  C     C_R   0.788094 0.457233 0.201451 0.000000
N88   N     N_R   0.792715 0.432989 0.168966 0.000000
C484  C     C_2   0.672304 0.529088 0.258045 0.000000
O87   O     O_2   0.625813 0.537213 0.234726 0.000000
O88   O     O_2   0.656349 0.531429 0.296876 0.000000
H474  H     H_    0.844845 0.298039 0.142194 0.000000
H475  H     H_    0.836789 0.339346 0.108687 0.000000
H476  H     H_    0.915565 0.339888 0.140396 0.000000
H477  H     H_    0.761362 0.360801 0.157495 0.000000
H478  H     H_    0.772409 0.349991 0.228034 0.000000
H479  H     H_    0.777200 0.300654 0.199497 0.000000
H480  H     H_    0.861100 0.328556 0.215236 0.000000
H481  H     H_    0.899964 0.480909 0.275901 0.000000
H482  H     H_    0.805180 0.526893 0.292825 0.000000
H483  H     H_    0.687096 0.484665 0.190578 0.000000
H484  H     H_    0.609296 0.541306 0.305729 0.000000
C485  C     C_3   0.555047 0.148776 0.767564 0.000000
C486  C     C_3   0.547249 0.186930 0.745306 0.000000
C487  C     C_3   0.475914 0.187511 0.725067 0.000000
C488  C     C_R   0.540780 0.218992 0.775787 0.000000
N89   N     N_R   0.479582 0.218083 0.801100 0.000000
C489  C     C_R   0.488947 0.257378 0.818489 0.000000
C490  C     C_R   0.441356 0.276872 0.843257 0.000000
C491  C     C_R   0.456246 0.319303 0.854239 0.000000
C492  C     C_R   0.518261 0.341993 0.839128 0.000000
C493  C     C_R   0.565632 0.321889 0.813066 0.000000
C494  C     C_R   0.548776 0.279937 0.803007 0.000000
N90   N     N_R   0.585792 0.255779 0.777077 0.000000
C495  C     C_2   0.531574 0.387455 0.849114 0.000000
O89   O     O_2   0.490481 0.405211 0.872386 0.000000
O90   O     O_2   0.588078 0.410056 0.831740 0.000000
H485  H     H_    0.504955 0.142394 0.783036 0.000000
H486  H     H_    0.575845 0.121849 0.749707 0.000000
H487  H     H_    0.587181 0.160137 0.792664 0.000000
H488  H     H_    0.594710 0.192201 0.725069 0.000000
H489  H     H_    0.459228 0.220282 0.725236 0.000000
H490  H     H_    0.482099 0.174792 0.694683 0.000000
H491  H     H_    0.432668 0.171157 0.742586 0.000000
H492  H     H_    0.391771 0.259363 0.851548 0.000000
H493  H     H_    0.417433 0.334908 0.873584 0.000000
H494  H     H_    0.614000 0.338358 0.800502 0.000000
H495  H     H_    0.595404 0.440259 0.837336 0.000000
C496  C     C_3   0.840467 0.308806 0.657125 0.000000
C497  C     C_3   0.778458 0.275005 0.653663 0.000000
C498  C     C_3   0.783479 0.255970 0.613570 0.000000
C499  C     C_R   0.778837 0.239820 0.682362 0.000000
N91   N     N_R   0.798617 0.199166 0.671556 0.000000
C500  C     C_R   0.762093 0.175489 0.699838 0.000000
C501  C     C_R   0.748135 0.131877 0.703262 0.000000
C502  C     C_R   0.726618 0.116454 0.739505 0.000000
C503  C     C_R   0.718479 0.144084 0.771552 0.000000
C504  C     C_R   0.719426 0.187273 0.765675 0.000000
C505  C     C_R   0.736427 0.201159 0.728715 0.000000
N92   N     N_R   0.738325 0.241036 0.717226 0.000000
C506  C     C_2   0.696675 0.127527 0.810077 0.000000
O91   O     O_2   0.675037 0.090411 0.812582 0.000000
O92   O     O_2   0.685198 0.154605 0.840631 0.000000
H496  H     H_    0.892083 0.293859 0.662914 0.000000
H497  H     H_    0.848140 0.326479 0.629595 0.000000
H498  H     H_    0.825782 0.332441 0.679971 0.000000
H499  H     H_    0.726690 0.290811 0.656215 0.000000
H500  H     H_    0.737068 0.232513 0.608669 0.000000
H501  H     H_    0.784839 0.281534 0.592146 0.000000
H502  H     H_    0.834603 0.239868 0.612096 0.000000
H503  H     H_    0.761531 0.108500 0.681288 0.000000
H504  H     H_    0.720911 0.082452 0.742817 0.000000
H505  H     H_    0.706636 0.209497 0.789136 0.000000
H506  H     H_    0.658419 0.144055 0.863523 0.000000
C507  C     C_3   0.633131 0.998417 0.768551 0.000000
C508  C     C_3   0.616936 0.970690 0.803650 0.000000
C509  C     C_3   0.596446 0.997169 0.839375 0.000000
C510  C     C_R   0.563322 0.933181 0.796416 0.000000
N93   N     N_R   0.589820 0.894087 0.784379 0.000000
C511  C     C_R   0.537171 0.866275 0.798460 0.000000
C512  C     C_R   0.542184 0.822774 0.799534 0.000000
C513  C     C_R   0.498681 0.800224 0.826325 0.000000
C514  C     C_R   0.455536 0.821718 0.853560 0.000000
C515  C     C_R   0.451160 0.865422 0.851579 0.000000
C516  C     C_R   0.486599 0.886850 0.820854 0.000000
N94   N     N_R   0.495060 0.929547 0.816258 0.000000
C517  C     C_2   0.415404 0.798244 0.884780 0.000000
O93   O     O_2   0.415758 0.759586 0.885153 0.000000
O94   O     O_2   0.377772 0.819200 0.913101 0.000000
H507  H     H_    0.596641 0.025155 0.769403 0.000000
H508  H     H_    0.690291 0.012410 0.770615 0.000000
H509  H     H_    0.628281 0.979610 0.740616 0.000000
H510  H     H_    0.668159 0.957765 0.811996 0.000000
H511  H     H_    0.599572 0.977626 0.865463 0.000000
H512  H     H_    0.637735 0.024077 0.843355 0.000000
H513  H     H_    0.541344 0.008870 0.836131 0.000000
H514  H     H_    0.585077 0.806869 0.783881 0.000000
H515  H     H_    0.504235 0.766396 0.828086 0.000000
H516  H     H_    0.420874 0.881752 0.874086 0.000000
H517  H     H_    0.351092 0.803535 0.933420 0.000000
C518  C     C_3   0.447621 0.864617 0.714827 0.000000
C519  C     C_3   0.515909 0.872014 0.689590 0.000000
C520  C     C_3   0.557188 0.913563 0.698587 0.000000
C521  C     C_R   0.561020 0.834969 0.688732 0.000000
N95   N     N_R   0.613986 0.825914 0.715576 0.000000
C522  C     C_R   0.632497 0.787681 0.702518 0.000000
C523  C     C_R   0.669838 0.759441 0.722333 0.000000
C524  C     C_R   0.694681 0.724718 0.701313 0.000000
C525  C     C_R   0.687522 0.722502 0.660751 0.000000
C526  C     C_R   0.641378 0.749352 0.643047 0.000000
C527  C     C_R   0.603707 0.777816 0.666660 0.000000
N96   N     N_R   0.552045 0.805793 0.657980 0.000000
C528  C     C_2   0.728543 0.691801 0.636782 0.000000
O95   O     O_2   0.764262 0.666021 0.652667 0.000000
O96   O     O_2   0.728906 0.692798 0.597166 0.000000
H518  H     H_    0.441502 0.830209 0.720814 0.000000
H519  H     H_    0.449647 0.883523 0.742625 0.000000
H520  H     H_    0.399519 0.874159 0.698688 0.000000
H521  H     H_    0.497764 0.872838 0.659331 0.000000
H522  H     H_    0.560258 0.931095 0.671217 0.000000
H523  H     H_    0.526609 0.932060 0.720457 0.000000
H524  H     H_    0.612689 0.909036 0.709158 0.000000
H525  H     H_    0.679630 0.764651 0.753326 0.000000
H526  H     H_    0.726416 0.702390 0.716047 0.000000
H527  H     H_    0.635780 0.746992 0.611799 0.000000
H528  H     H_    0.756716 0.672898 0.581541 0.000000
C529  C     C_3   0.817664 0.841263 0.657125 0.000000
C530  C     C_3   0.780890 0.881810 0.650357 0.000000
C531  C     C_3   0.706609 0.869887 0.634142 0.000000
C532  C     C_R   0.779281 0.911034 0.686174 0.000000
N97   N     N_R   0.746502 0.901094 0.722565 0.000000
C533  C     C_R   0.776898 0.931608 0.745788 0.000000
C534  C     C_R   0.782379 0.929646 0.785269 0.000000
C535  C     C_R   0.825423 0.959871 0.804301 0.000000
C536  C     C_R   0.843701 0.996943 0.786087 0.000000
C537  C     C_R   0.836347 0.998837 0.745516 0.000000
C538  C     C_R   0.815323 0.961669 0.725309 0.000000
N98   N     N_R   0.821276 0.949340 0.686693 0.000000
C539  C     C_2   0.854018 0.033809 0.812480 0.000000
O97   O     O_2   0.886655 0.031086 0.843060 0.000000
O98   O     O_2   0.811945 0.066400 0.808646 0.000000
H529  H     H_    0.786934 0.823307 0.680330 0.000000
H530  H     H_    0.818212 0.821374 0.629529 0.000000
H531  H     H_    0.875246 0.849422 0.665286 0.000000
H532  H     H_    0.812783 0.899147 0.627367 0.000000
H533  H     H_    0.708095 0.878968 0.603079 0.000000
H534  H     H_    0.695830 0.835272 0.635126 0.000000
H535  H     H_    0.663841 0.885828 0.651068 0.000000
H536  H     H_    0.750463 0.907479 0.802097 0.000000
H537  H     H_    0.830793 0.958220 0.835214 0.000000
H538  H     H_    0.836346 0.028573 0.731659 0.000000
H539  H     H_    0.810735 0.087096 0.830168 0.000000
C540  C     C_3   0.134267 0.647413 0.249489 0.000000
C541  C     C_3   0.070548 0.669610 0.268096 0.000000
C542  C     C_3   0.029214 0.639501 0.295675 0.000000
C543  C     C_R   0.097255 0.709619 0.288617 0.000000
N99   N     N_R   0.154734 0.712171 0.315271 0.000000
C544  C     C_R   0.156437 0.753855 0.326585 0.000000
C545  C     C_R   0.200495 0.775295 0.354039 0.000000
C546  C     C_R   0.196370 0.818881 0.358978 0.000000
C547  C     C_R   0.150034 0.840809 0.336013 0.000000
C548  C     C_R   0.106197 0.818781 0.308267 0.000000
C549  C     C_R   0.109611 0.775315 0.304605 0.000000
N100  N     N_R   0.067457 0.748292 0.281469 0.000000
C550  C     C_2   0.147192 0.887125 0.341432 0.000000
O99   O     O_2   0.185399 0.906472 0.365939 0.000000
O100  O     O_2   0.102436 0.908534 0.319403 0.000000
H540  H     H_    0.118402 0.613518 0.242910 0.000000
H541  H     H_    0.154311 0.662339 0.222050 0.000000
H542  H     H_    0.178620 0.649499 0.270697 0.000000
H543  H     H_    0.032143 0.678785 0.246021 0.000000
H544  H     H_    0.981478 0.623708 0.280230 0.000000
H545  H     H_    0.064270 0.613972 0.302826 0.000000
H546  H     H_    0.011538 0.656888 0.322835 0.000000
H547  H     H_    0.238445 0.759358 0.371136 0.000000
H548  H     H_    0.230960 0.835704 0.380575 0.000000
H549  H     H_    0.068567 0.834726 0.290716 0.000000
H550  H     H_    0.100885 0.939002 0.323107 0.000000
C551  C     C_3   0.758535 0.769907 0.165985 0.000000
C552  C     C_3   0.840100 0.764647 0.160890 0.000000
C553  C     C_3   0.884330 0.807594 0.166076 0.000000
C554  C     C_R   0.861903 0.729792 0.186232 0.000000
N101  N     N_R   0.905563 0.735776 0.219341 0.000000
C555  C     C_R   0.881382 0.703248 0.240939 0.000000
C556  C     C_R   0.898242 0.699045 0.279092 0.000000
C557  C     C_R   0.863855 0.666773 0.299287 0.000000
C558  C     C_R   0.813960 0.638800 0.281393 0.000000
C559  C     C_R   0.800705 0.641657 0.241425 0.000000
C560  C     C_R   0.831522 0.676754 0.221719 0.000000
N102  N     N_R   0.820054 0.691513 0.185000 0.000000
C561  C     C_2   0.771340 0.610193 0.307516 0.000000
O101  O     O_2   0.803064 0.591824 0.332471 0.000000
O102  O     O_2   0.697969 0.612877 0.311106 0.000000
H551  H     H_    0.735408 0.756328 0.193611 0.000000
H552  H     H_    0.743146 0.802929 0.162347 0.000000
H553  H     H_    0.734836 0.751435 0.141578 0.000000
H554  H     H_    0.841507 0.751918 0.130699 0.000000
H555  H     H_    0.937062 0.809157 0.149750 0.000000
H556  H     H_    0.853590 0.833706 0.154769 0.000000
H557  H     H_    0.898321 0.814599 0.196991 0.000000
H558  H     H_    0.936289 0.720933 0.293378 0.000000
H559  H     H_    0.876467 0.663010 0.329267 0.000000
H560  H     H_    0.767556 0.616774 0.227294 0.000000
H561  H     H_    0.673670 0.632827 0.295966 0.000000
C562  C     C_3   0.623177 0.805979 0.563539 0.000000
C563  C     C_3   0.618245 0.844165 0.539368 0.000000
C564  C     C_3   0.598109 0.829773 0.498639 0.000000
C565  C     C_R   0.570307 0.877850 0.553809 0.000000
N103  N     N_R   0.512717 0.869902 0.580850 0.000000
C566  C     C_R   0.487781 0.909301 0.586026 0.000000
C567  C     C_R   0.435483 0.922365 0.612670 0.000000
C568  C     C_R   0.420358 0.964680 0.614504 0.000000
C569  C     C_R   0.457284 0.993248 0.589863 0.000000
C570  C     C_R   0.514508 0.980630 0.565687 0.000000
C571  C     C_R   0.527437 0.938417 0.563370 0.000000
N104  N     N_R   0.581772 0.920512 0.542417 0.000000
C572  C     C_2   0.437840 0.037237 0.590857 0.000000
O103  O     O_2   0.388813 0.048774 0.613007 0.000000
O104  O     O_2   0.477452 0.065865 0.569530 0.000000
H562  H     H_    0.608487 0.776581 0.546069 0.000000
H563  H     H_    0.681618 0.804273 0.571603 0.000000
H564  H     H_    0.589047 0.808739 0.590021 0.000000
H565  H     H_    0.672305 0.858496 0.541904 0.000000
H566  H     H_    0.586781 0.858046 0.482032 0.000000
H567  H     H_    0.642273 0.811507 0.484959 0.000000
H568  H     H_    0.548638 0.807967 0.499657 0.000000
H569  H     H_    0.407232 0.900778 0.632370 0.000000
H570  H     H_    0.379876 0.975400 0.635793 0.000000
H571  H     H_    0.549445 0.003291 0.550006 0.000000
H572  H     H_    0.469774 0.095445 0.574578 0.000000
C573  C     C_3   0.748380 0.032219 0.431201 0.000000
C574  C     C_3   0.753545 0.056800 0.470183 0.000000
C575  C     C_3   0.796606 0.097083 0.462597 0.000000
C576  C     C_R   0.677773 0.063341 0.486422 0.000000
N105  N     N_R   0.639479 0.099168 0.476168 0.000000
C577  C     C_R   0.573685 0.078658 0.466791 0.000000
C578  C     C_R   0.526852 0.089407 0.438209 0.000000
C579  C     C_R   0.464205 0.063329 0.430782 0.000000
C580  C     C_R   0.450749 0.025658 0.450476 0.000000
C581  C     C_R   0.505621 0.011256 0.473187 0.000000
C582  C     C_R   0.568381 0.037268 0.478865 0.000000
N106  N     N_R   0.633599 0.025639 0.491456 0.000000
C583  C     C_2   0.381906 0.999464 0.444329 0.000000
O105  O     O_2   0.335473 0.011104 0.422473 0.000000
O106  O     O_2   0.369157 0.962762 0.463257 0.000000
H573  H     H_    0.713288 0.048622 0.411053 0.000000
H574  H     H_    0.803976 0.029718 0.417378 0.000000
H575  H     H_    0.724648 0.999803 0.436332 0.000000
H576  H     H_    0.783529 0.039272 0.491425 0.000000
H577  H     H_    0.808153 0.109954 0.491949 0.000000
H578  H     H_    0.849848 0.090900 0.447415 0.000000
H579  H     H_    0.764767 0.117904 0.444723 0.000000
H580  H     H_    0.542890 0.114247 0.418438 0.000000
H581  H     H_    0.426860 0.072206 0.408656 0.000000
H582  H     H_    0.500230 0.980175 0.485422 0.000000
H583  H     H_    0.323692 0.945701 0.459266 0.000000
C584  C     C_3   0.659927 0.967055 0.625213 0.000000
C585  C     C_3   0.711666 0.997424 0.604176 0.000000
C586  C     C_3   0.745999 0.027984 0.634391 0.000000
C587  C     C_R   0.767484 0.975223 0.579172 0.000000
N107  N     N_R   0.839426 0.970099 0.590304 0.000000
C588  C     C_R   0.875508 0.966178 0.555321 0.000000
C589  C     C_R   0.949525 0.961736 0.548530 0.000000
C590  C     C_R   0.976592 0.962543 0.510117 0.000000
C591  C     C_R   0.928976 0.965145 0.478976 0.000000
C592  C     C_R   0.853754 0.966834 0.486470 0.000000
C593  C     C_R   0.828541 0.968673 0.525082 0.000000
N108  N     N_R   0.758232 0.971488 0.539005 0.000000
C594  C     C_2   0.958111 0.965131 0.438192 0.000000
O107  O     O_2   0.024275 0.963967 0.431553 0.000000
O108  O     O_2   0.911991 0.966327 0.407891 0.000000
H584  H     H_    0.649692 0.938597 0.606300 0.000000
H585  H     H_    0.683505 0.959551 0.653557 0.000000
H586  H     H_    0.607446 0.982093 0.631115 0.000000
H587  H     H_    0.678838 0.015688 0.584378 0.000000
H588  H     H_    0.772701 0.054887 0.618907 0.000000
H589  H     H_    0.702580 0.039569 0.654768 0.000000
H590  H     H_    0.786209 0.012751 0.651893 0.000000
H591  H     H_    0.986543 0.958767 0.572358 0.000000
H592  H     H_    0.035153 0.960283 0.504716 0.000000
H593  H     H_    0.816077 0.967003 0.462713 0.000000
H594  H     H_    0.931381 0.966244 0.381126 0.000000
C595  C     C_3   0.464672 0.504957 0.257292 0.000000
C596  C     C_3   0.385539 0.490345 0.247858 0.000000
C597  C     C_3   0.378886 0.494913 0.204649 0.000000
C598  C     C_R   0.365332 0.446282 0.262229 0.000000
N109  N     N_R   0.393617 0.408857 0.246097 0.000000
C599  C     C_R   0.359466 0.379695 0.269131 0.000000
C600  C     C_R   0.362322 0.336871 0.264425 0.000000
C601  C     C_R   0.321907 0.310174 0.288869 0.000000
C602  C     C_R   0.270027 0.326856 0.313995 0.000000
C603  C     C_R   0.264414 0.370704 0.316573 0.000000
C604  C     C_R   0.312618 0.396758 0.295469 0.000000
N110  N     N_R   0.312840 0.439291 0.292642 0.000000
C605  C     C_2   0.214114 0.297079 0.331061 0.000000
O109  O     O_2   0.231303 0.262517 0.341598 0.000000
O110  O     O_2   0.142487 0.304900 0.329356 0.000000
H595  H     H_    0.502915 0.485162 0.239963 0.000000
H596  H     H_    0.476450 0.538448 0.248933 0.000000
H597  H     H_    0.474700 0.502776 0.289070 0.000000
H598  H     H_    0.344512 0.511093 0.260678 0.000000
H599  H     H_    0.320526 0.491489 0.196250 0.000000
H600  H     H_    0.402121 0.526656 0.195909 0.000000
H601  H     H_    0.412641 0.470942 0.191362 0.000000
H602  H     H_    0.385695 0.324294 0.238244 0.000000
H603  H     H_    0.322330 0.276168 0.283537 0.000000
H604  H     H_    0.221008 0.384470 0.332319 0.000000
H605  H     H_    0.105167 0.282941 0.336071 0.000000
C606  C     C_3   0.660780 0.352687 0.100285 0.000000
C607  C     C_3   0.612954 0.354058 0.137890 0.000000
C608  C     C_3   0.637436 0.325755 0.169650 0.000000
C609  C     C_R   0.600241 0.398510 0.152549 0.000000
N111  N     N_R   0.631210 0.431810 0.130370 0.000000
C610  C     C_R   0.571632 0.452639 0.122048 0.000000
C611  C     C_R   0.567831 0.483305 0.095058 0.000000
C612  C     C_R   0.499094 0.495114 0.084739 0.000000
C613  C     C_R   0.435798 0.475452 0.101172 0.000000
C614  C     C_R   0.441501 0.442614 0.126743 0.000000
C615  C     C_R   0.510089 0.434854 0.139933 0.000000
N112  N     N_R   0.527675 0.404162 0.164097 0.000000
C616  C     C_2   0.363356 0.490133 0.092115 0.000000
O111  O     O_2   0.358717 0.519956 0.070536 0.000000
O112  O     O_2   0.301728 0.471796 0.108658 0.000000
H606  H     H_    0.711656 0.373811 0.102194 0.000000
H607  H     H_    0.675539 0.319652 0.093096 0.000000
H608  H     H_    0.628252 0.362879 0.075547 0.000000
H609  H     H_    0.558470 0.340465 0.128619 0.000000
H610  H     H_    0.590829 0.306227 0.181617 0.000000
H611  H     H_    0.677365 0.303355 0.157417 0.000000
H612  H     H_    0.659862 0.345518 0.194399 0.000000
H613  H     H_    0.617264 0.496468 0.081286 0.000000
H614  H     H_    0.495105 0.518924 0.062889 0.000000
H615  H     H_    0.393444 0.424190 0.136599 0.000000
H616  H     H_    0.254091 0.481844 0.102975 0.000000
C617  C     C_3   0.448412 0.199092 0.903772 0.000000
C618  C     C_3   0.372576 0.209641 0.919139 0.000000
C619  C     C_3   0.365153 0.257326 0.925975 0.000000
C620  C     C_R   0.310298 0.189137 0.895484 0.000000
N113  N     N_R   0.315321 0.176396 0.855534 0.000000
C621  C     C_R   0.248390 0.156119 0.850629 0.000000
C622  C     C_R   0.220029 0.136062 0.817503 0.000000
C623  C     C_R   0.148791 0.117833 0.819459 0.000000
C624  C     C_R   0.113824 0.111632 0.855405 0.000000
C625  C     C_R   0.142968 0.132280 0.887877 0.000000
C626  C     C_R   0.207533 0.156355 0.884270 0.000000
N114  N     N_R   0.242752 0.177170 0.913768 0.000000
C627  C     C_2   0.056145 0.077395 0.860317 0.000000
O113  O     O_2   0.020847 0.074358 0.891170 0.000000
O114  O     O_2   0.050237 0.045495 0.833180 0.000000
H617  H     H_    0.449486 0.195808 0.871525 0.000000
H618  H     H_    0.491637 0.223237 0.913645 0.000000
H619  H     H_    0.461231 0.168589 0.916388 0.000000
H620  H     H_    0.369059 0.194822 0.947706 0.000000
H621  H     H_    0.340246 0.263916 0.955035 0.000000
H622  H     H_    0.419384 0.275437 0.925224 0.000000
H623  H     H_    0.327757 0.269451 0.904435 0.000000
H624  H     H_    0.251383 0.133903 0.790915 0.000000
H625  H     H_    0.122102 0.105799 0.793457 0.000000
H626  H     H_    0.118810 0.126779 0.915787 0.000000
H627  H     H_    0.018134 0.020548 0.837917 0.000000
C628  C     C_3   0.308088 0.105936 0.952806 0.000000
C629  C     C_3   0.270278 0.072056 0.976765 0.000000
C630  C     C_3   0.282414 0.083667 0.020051 0.000000
C631  C     C_R   0.189326 0.068158 0.970501 0.000000
N115  N     N_R   0.146224 0.103552 0.978026 0.000000
C632  C     C_R   0.087414 0.083847 0.997797 0.000000
C633  C     C_R   0.026057 0.100812 0.015319 0.000000
C634  C     C_R   0.974210 0.074766 0.034863 0.000000
C635  C     C_R   0.982437 0.031517 0.037065 0.000000
C636  C     C_R   0.043850 0.014162 0.019514 0.000000
C637  C     C_R   0.094281 0.040708 0.999618 0.000000
N116  N     N_R   0.154147 0.028637 0.979098 0.000000
C638  C     C_2   0.924680 0.004503 0.056678 0.000000
O115  O     O_2   0.874599 0.020595 0.075196 0.000000
O116  O     O_2   0.925335 0.961882 0.053431 0.000000
H628  H     H_    0.286124 0.135709 0.963459 0.000000
H629  H     H_    0.368240 0.107555 0.957736 0.000000
H630  H     H_    0.296323 0.099681 0.921387 0.000000
H631  H     H_    0.294177 0.041341 0.968950 0.000000
H632  H     H_    0.257730 0.114134 0.028033 0.000000
H633  H     H_    0.255397 0.058888 0.038840 0.000000
H634  H     H_    0.342199 0.087231 0.025879 0.000000
H635  H     H_    0.015646 0.133460 0.013834 0.000000
H636  H     H_    0.926227 0.088816 0.047942 0.000000
H637  H     H_    0.051636 0.980501 0.020263 0.000000
H638  H     H_    0.886791 0.944291 0.066094 0.000000
C639  C     C_3   0.993260 0.642601 0.105457 0.000000
C640  C     C_3   0.942428 0.628057 0.073146 0.000000
C641  C     C_3   0.907470 0.583918 0.075125 0.000000
C642  C     C_R   0.889327 0.658592 0.061175 0.000000
N117  N     N_R   0.826289 0.673907 0.080677 0.000000
C643  C     C_R   0.797396 0.694016 0.050594 0.000000
C644  C     C_R   0.757208 0.729058 0.051209 0.000000
C645  C     C_R   0.729150 0.739682 0.015447 0.000000
C646  C     C_R   0.737144 0.712372 0.982888 0.000000
C647  C     C_R   0.796721 0.687123 0.981842 0.000000
C648  C     C_R   0.833909 0.686228 0.016259 0.000000
N118  N     N_R   0.898516 0.670365 0.023013 0.000000
C649  C     C_2   0.686505 0.712358 0.949825 0.000000
O117  O     O_2   0.691373 0.686429 0.922538 0.000000
O118  O     O_2   0.633031 0.740077 0.950074 0.000000
H639  H     H_    0.038300 0.662629 0.091849 0.000000
H640  H     H_    0.964395 0.661594 0.128075 0.000000
H641  H     H_    0.019969 0.615303 0.116916 0.000000
H642  H     H_    0.981162 0.626322 0.048118 0.000000
H643  H     H_    0.911880 0.567919 0.045700 0.000000
H644  H     H_    0.934785 0.565766 0.096822 0.000000
H645  H     H_    0.849039 0.586271 0.082033 0.000000
H646  H     H_    0.747871 0.747802 0.077613 0.000000
H647  H     H_    0.695495 0.766543 0.014073 0.000000
H648  H     H_    0.813342 0.669319 0.955839 0.000000
H649  H     H_    0.599256 0.739638 0.928523 0.000000
C650  C     C_3   0.114321 0.555608 0.057655 0.000000
C651  C     C_3   0.112088 0.578499 0.019563 0.000000
C652  C     C_3   0.181019 0.571135 0.994672 0.000000
C653  C     C_R   0.043165 0.569933 0.995905 0.000000
N119  N     N_R   0.012562 0.529883 0.981275 0.000000
C654  C     C_R   0.967194 0.543709 0.953954 0.000000
C655  C     C_R   0.929809 0.519767 0.925956 0.000000
C656  C     C_R   0.888338 0.539304 0.899151 0.000000
C657  C     C_R   0.883563 0.583018 0.900883 0.000000
C658  C     C_R   0.922219 0.607198 0.929242 0.000000
C659  C     C_R   0.965238 0.586848 0.954504 0.000000
N120  N     N_R   0.011163 0.605249 0.981122 0.000000
C660  C     C_2   0.839750 0.603351 0.871958 0.000000
O119  O     O_2   0.803644 0.581660 0.848081 0.000000
O120  O     O_2   0.839997 0.646007 0.871181 0.000000
H650  H     H_    0.122713 0.521768 0.051424 0.000000
H651  H     H_    0.161494 0.569466 0.074968 0.000000
H652  H     H_    0.063286 0.560255 0.075102 0.000000
H653  H     H_    0.114584 0.612795 0.027979 0.000000
H654  H     H_    0.166062 0.555523 0.966039 0.000000
H655  H     H_    0.211895 0.601651 0.988975 0.000000
H656  H     H_    0.218467 0.552044 0.010899 0.000000
H657  H     H_    0.933668 0.486511 0.924127 0.000000
H658  H     H_    0.860071 0.519913 0.876694 0.000000
H659  H     H_    0.920283 0.641125 0.930810 0.000000
H660  H     H_    0.811473 0.659197 0.851898 0.000000
C661  C     C_3   0.471107 0.708391 0.344590 0.000000
C662  C     C_3   0.436884 0.668891 0.357818 0.000000
C663  C     C_3   0.497969 0.643454 0.373071 0.000000
C664  C     C_R   0.377818 0.681058 0.387013 0.000000
N121  N     N_R   0.389991 0.684596 0.427068 0.000000
C665  C     C_R   0.321239 0.689499 0.441796 0.000000
C666  C     C_R   0.297728 0.686123 0.479976 0.000000
C667  C     C_R   0.224139 0.689180 0.489360 0.000000
C668  C     C_R   0.174741 0.696038 0.460299 0.000000
C669  C     C_R   0.197894 0.695761 0.420996 0.000000
C670  C     C_R   0.271845 0.692164 0.412576 0.000000
N122  N     N_R   0.304841 0.686398 0.376923 0.000000
C671  C     C_2   0.099039 0.704656 0.471842 0.000000
O121  O     O_2   0.076403 0.698577 0.505403 0.000000
O122  O     O_2   0.054739 0.720607 0.445865 0.000000
H661  H     H_    0.522037 0.712835 0.360145 0.000000
H662  H     H_    0.480501 0.704348 0.312878 0.000000
H663  H     H_    0.433621 0.733367 0.352261 0.000000
H664  H     H_    0.417403 0.654012 0.330451 0.000000
H665  H     H_    0.516791 0.655729 0.401569 0.000000
H666  H     H_    0.480998 0.610205 0.377243 0.000000
H667  H     H_    0.545066 0.643878 0.351536 0.000000
H668  H     H_    0.335818 0.682917 0.502457 0.000000
H669  H     H_    0.206463 0.688073 0.519962 0.000000
H670  H     H_    0.159592 0.698986 0.397741 0.000000
H671  H     H_    0.005768 0.727667 0.454193 0.000000
C672  C     C_3   0.322695 0.757649 0.548132 0.000000
C673  C     C_3   0.385882 0.770357 0.520271 0.000000
C674  C     C_3   0.395319 0.818393 0.520698 0.000000
C675  C     C_R   0.452692 0.750502 0.534250 0.000000
N123  N     N_R   0.472513 0.757510 0.573110 0.000000
C676  C     C_R   0.503877 0.720875 0.580513 0.000000
C677  C     C_R   0.514400 0.703248 0.616274 0.000000
C678  C     C_R   0.546434 0.664880 0.617291 0.000000
C679  C     C_R   0.569385 0.644728 0.582827 0.000000
C680  C     C_R   0.553314 0.661170 0.546899 0.000000
C681  C     C_R   0.514869 0.697579 0.546695 0.000000
N124  N     N_R   0.481081 0.714136 0.516201 0.000000
C682  C     C_2   0.609617 0.605987 0.585032 0.000000
O123  O     O_2   0.626838 0.593550 0.616921 0.000000
O124  O     O_2   0.629345 0.584481 0.552050 0.000000
H672  H     H_    0.327153 0.776700 0.575647 0.000000
H673  H     H_    0.269565 0.762147 0.534087 0.000000
H674  H     H_    0.325185 0.724175 0.556064 0.000000
H675  H     H_    0.370394 0.758601 0.490712 0.000000
H676  H     H_    0.440303 0.830298 0.501058 0.000000
H677  H     H_    0.344127 0.831516 0.510796 0.000000
H678  H     H_    0.407672 0.829650 0.550778 0.000000
H679  H     H_    0.503718 0.719401 0.643844 0.000000
H680  H     H_    0.556965 0.652208 0.645635 0.000000
H681  H     H_    0.568352 0.644877 0.520127 0.000000
H682  H     H_    0.657489 0.559694 0.553902 0.000000
C683  C     C_3   0.656322 0.571812 0.460191 0.000000
C684  C     C_3   0.596730 0.575108 0.430184 0.000000
C685  C     C_3   0.607720 0.542891 0.396749 0.000000
C686  C     C_R   0.523317 0.571334 0.451713 0.000000
N125  N     N_R   0.496077 0.532503 0.468821 0.000000
C687  C     C_R   0.457224 0.548538 0.499555 0.000000
C688  C     C_R   0.426819 0.526110 0.530127 0.000000
C689  C     C_R   0.386125 0.546308 0.558996 0.000000
C690  C     C_R   0.376507 0.589257 0.556964 0.000000
C691  C     C_R   0.410029 0.611989 0.526404 0.000000
C692  C     C_R   0.451740 0.591564 0.498091 0.000000
N126  N     N_R   0.492638 0.608810 0.467834 0.000000
C693  C     C_2   0.333314 0.610557 0.588084 0.000000
O125  O     O_2   0.303959 0.590096 0.614685 0.000000
O126  O     O_2   0.325677 0.652676 0.587522 0.000000
H683  H     H_    0.640863 0.546024 0.480040 0.000000
H684  H     H_    0.710603 0.567419 0.445506 0.000000
H685  H     H_    0.660363 0.599937 0.480096 0.000000
H686  H     H_    0.603423 0.606424 0.416898 0.000000
H687  H     H_    0.574013 0.550324 0.371604 0.000000
H688  H     H_    0.666051 0.545301 0.386148 0.000000
H689  H     H_    0.594336 0.510331 0.406501 0.000000
H690  H     H_    0.436806 0.493658 0.532062 0.000000
H691  H     H_    0.362766 0.528326 0.583305 0.000000
H692  H     H_    0.407265 0.645266 0.526457 0.000000
H693  H     H_    0.296980 0.666400 0.608043 0.000000
C694  C     C_3   0.336999 0.522251 0.439268 0.000000
C695  C     C_3   0.361044 0.502202 0.399574 0.000000
C696  C     C_3   0.440228 0.508647 0.387056 0.000000
C697  C     C_R   0.345783 0.458741 0.403712 0.000000
N127  N     N_R   0.375480 0.439264 0.434412 0.000000
C698  C     C_R   0.324981 0.406440 0.439405 0.000000
C699  C     C_R   0.324128 0.376181 0.467223 0.000000
C700  C     C_R   0.261932 0.349777 0.471372 0.000000
C701  C     C_R   0.212384 0.344648 0.441674 0.000000
C702  C     C_R   0.219842 0.371193 0.410166 0.000000
C703  C     C_R   0.271222 0.405725 0.411715 0.000000
N128  N     N_R   0.282384 0.439915 0.388120 0.000000
C704  C     C_2   0.153400 0.310598 0.443992 0.000000
O127  O     O_2   0.136576 0.294908 0.475523 0.000000
O128  O     O_2   0.118036 0.296041 0.411536 0.000000
H694  H     H_    0.352267 0.504535 0.464758 0.000000
H695  H     H_    0.358874 0.555366 0.443364 0.000000
H696  H     H_    0.275811 0.521261 0.440881 0.000000
H697  H     H_    0.325749 0.509236 0.375641 0.000000
H698  H     H_    0.447849 0.495005 0.356906 0.000000
H699  H     H_    0.455239 0.542754 0.387751 0.000000
H700  H     H_    0.475063 0.491305 0.405801 0.000000
H701  H     H_    0.367997 0.374754 0.487341 0.000000
H702  H     H_    0.253278 0.332282 0.497371 0.000000
H703  H     H_    0.184502 0.363932 0.386398 0.000000
H704  H     H_    0.079540 0.273545 0.413431 0.000000

loop_
_geom_bond_atom_site_label_1
_geom_bond_atom_site_label_2
_geom_bond_distance
_geom_bond_site_symmetry_2
_ccdc_geom_bond_type
Zn1   N1    2.082 1_565  S
Zn1   N8    2.042 .      S
Zn1   N80   2.150 .      S
Zn1   N94   2.173 .      S
Zn2   N4    2.175 .      S
Zn2   N76   2.086 .      S
Zn2   N99   2.157 .      S
Zn2   N122  2.114 .      S
Zn3   N3    2.184 .      S
Zn3   N86   2.118 .      S
Zn3   N110  2.130 .      S
Zn3   N128  2.167 .      S
Zn4   N2    2.296 .      S
Zn4   N5    2.195 .      S
Zn4   N89   2.220 .      S
Zn4   N113  2.128 .      S
Zn5   N7    2.095 .      S
Zn5   N31   2.221 .      S
Zn5   N64   2.184 1_556  S
Zn5   N116  2.214 1_565  S
Zn6   N10   2.179 1_556  S
Zn6   N41   2.280 1_656  S
Zn6   N71   2.117 .      S
Zn6   N119  2.270 1_655  S
Zn7   N11   2.233 .      S
Zn7   N13   2.125 .      S
Zn7   N16   2.144 .      S
Zn7   N91   2.129 .      S
Zn8   N9    2.132 .      S
Zn8   N17   2.159 .      S
Zn8   N88   2.111 .      S
Zn8   N111  2.112 .      S
Zn9   N18   2.038 .      S
Zn9   N77   2.209 .      S
Zn9   N102  2.161 .      S
Zn9   N117  2.185 .      S
Zn10  N15   2.213 1_565  S
Zn10  N83   2.246 .      S
Zn10  N98   2.131 .      S
Zn10  N107  2.065 .      S
Zn11  N20   2.173 .      S
Zn11  N22   2.181 .      S
Zn11  N24   2.307 .      S
Zn11  N26   2.125 .      S
Zn12  N28   2.127 1_655  S
Zn12  N30   2.276 .      S
Zn12  N32   2.213 1_655  S
Zn12  N33   2.250 .      S
Zn13  N35   2.169 .      S
Zn13  N38   2.150 .      S
Zn13  N40   2.113 .      S
Zn13  N42   2.176 .      S
Zn14  N44   2.128 .      S
Zn14  N45   2.170 .      S
Zn14  N47   2.177 .      S
Zn14  N50   2.160 .      S
Zn15  N52   2.179 .      S
Zn15  N54   2.152 .      S
Zn15  N56   2.168 .      S
Zn15  N58   2.115 .      S
Zn16  N60   2.207 .      S
Zn16  N61   2.151 .      S
Zn16  N63   2.270 .      S
Zn16  N66   2.231 .      S
Zn17  N68   2.233 .      S
Zn17  N69   2.150 1_655  S
Zn17  N72   2.145 1_655  S
Zn17  N74   2.302 1_655  S
Zn18  N51   2.288 .      S
Zn18  N59   2.294 .      S
Zn18  N75   2.103 .      S
Zn18  N78   2.144 .      S
Zn19  N27   2.152 .      S
Zn19  N79   2.087 .      S
Zn19  N81   2.146 .      S
Zn19  N84   2.181 .      S
Zn20  N36   2.275 1_655  S
Zn20  N43   2.190 .      S
Zn20  N85   2.239 1_655  S
Zn20  N87   2.127 .      S
Zn21  N19   2.159 .      S
Zn21  N67   2.239 .      S
Zn21  N90   2.077 .      S
Zn21  N92   1.988 .      S
Zn22  N29   2.278 .      S
Zn22  N93   2.104 .      S
Zn22  N95   2.096 .      S
Zn22  N97   2.073 .      S
Zn23  N55   2.195 .      S
Zn23  N62   2.117 1_655  S
Zn23  N100  2.174 1_655  S
Zn23  N101  2.078 .      S
Zn24  N57   2.162 .      S
Zn24  N104  2.223 .      S
Zn24  N106  2.234 1_565  S
Zn24  N108  2.111 .      S
Zn25  N37   2.175 .      S
Zn25  N49   2.219 .      S
Zn25  N109  2.127 .      S
Zn25  N112  2.127 .      S
Zn26  N39   2.137 1_556  S
Zn26  N73   2.189 .      S
Zn26  N114  2.113 .      S
Zn26  N115  2.325 .      S
Zn27  N34   2.174 .      S
Zn27  N65   2.194 1_656  S
Zn27  N118  2.083 1_556  S
Zn27  N120  2.171 1_655  S
Zn28  N53   2.211 .      S
Zn28  N121  2.105 .      S
Zn28  N124  2.143 .      S
Zn28  N126  2.319 .      S
Zn29  N25   2.151 .      S
Zn29  N46   2.163 .      S
Zn29  N125  2.329 .      S
Zn29  N127  2.182 .      S
Zn30  N6    2.026 .      S
Zn30  N12   2.112 .      S
Zn30  N21   2.186 .      S
Zn30  N70   2.133 .      S
Zn31  N14   2.133 .      S
Zn31  N23   2.258 .      S
Zn31  N48   2.197 .      S
Zn31  N105  2.381 .      S
Zn32  N82   2.203 .      S
Zn32  N96   2.187 .      S
Zn32  N103  2.194 .      S
Zn32  N123  2.139 .      S
C1    C2    1.514 .      S
C1    H1    1.098 .      S
C1    H2    1.108 .      S
C1    H3    1.097 .      S
C2    C3    1.514 .      S
C2    C4    1.505 .      S
C2    H4    1.101 .      S
C3    H5    1.108 .      S
C3    H6    1.105 .      S
C3    H7    1.100 .      S
N1    Zn1   2.082 1_545  S
C6    H8    1.070 1_545  S
C7    H9    1.074 1_545  S
C8    C11   1.462 .      S
C9    H10   1.033 .      S
C11   O2    1.343 .      S
O2    H11   0.961 .      S
H8    C6    1.070 1_565  S
H9    C7    1.074 1_565  S
C12   C13   1.511 .      S
C12   H12   1.079 .      S
C12   H13   1.089 .      S
C12   H14   1.080 .      S
C13   C14   1.485 .      S
C13   C15   1.422 .      S
C13   H15   1.080 .      S
C14   H16   1.104 .      S
C14   H17   1.096 .      S
C14   H18   1.095 .      S
C17   H19   1.062 .      S
C18   H20   1.080 .      S
C19   C22   1.463 .      S
C20   H21   1.077 .      S
C22   O4    1.346 1_455  S
O4    C22   1.346 1_655  S
O4    H22   0.966 .      S
C23   C24   1.506 .      S
C23   H23   1.104 .      S
C23   H24   1.102 .      S
C23   H25   1.100 .      S
C24   C25   1.480 .      S
C24   C26   1.493 .      S
C24   H26   1.098 .      S
C25   H27   1.090 .      S
C25   H28   1.109 .      S
C25   H29   1.074 .      S
C28   H30   1.054 .      S
C29   H31   1.073 .      S
C30   C33   1.475 .      S
C31   H32   1.077 .      S
C33   O6    1.341 .      S
O6    H33   0.964 .      S
C34   C35   1.471 .      S
C34   H34   1.098 .      S
C34   H35   1.099 .      S
C34   H36   1.093 .      S
C35   C36   1.496 1_565  S
C35   C37   1.482 .      S
C35   H37   1.097 .      S
C36   C35   1.496 1_545  S
C36   H38   1.102 .      S
C36   H39   1.088 .      S
C36   H40   1.097 .      S
C39   H41   1.064 .      S
C40   H42   1.078 1_556  S
C41   C44   1.464 .      S
C42   H43   1.065 .      S
C44   O8    1.343 .      S
O8    H44   0.965 .      S
H42   C40   1.078 1_554  S
C45   C46   1.499 .      S
C45   H45   1.096 1_655  S
C45   H46   1.102 .      S
C45   H47   1.091 .      S
C46   C47   1.450 .      S
C46   C48   1.440 .      S
C46   H48   1.077 .      S
C47   H49   1.091 .      S
C47   H50   1.089 .      S
C47   H51   1.092 .      S
C50   H52   1.072 .      S
C51   H53   1.080 .      S
C52   C55   1.468 .      S
C53   H54   1.060 .      S
N10   Zn6   2.179 1_554  S
C55   O10   1.346 .      S
O10   H55   0.966 .      S
H45   C45   1.096 1_455  S
C56   C57   1.466 1_655  S
C56   H56   1.095 .      S
C56   H57   1.094 .      S
C56   H58   1.102 1_655  S
C57   C56   1.466 1_455  S
C57   C58   1.489 .      S
C57   C59   1.413 .      S
C57   H59   1.092 .      S
C58   H60   1.082 .      S
C58   H61   1.084 .      S
C58   H62   1.096 .      S
C61   H63   1.068 .      S
C62   H64   1.081 .      S
C63   C66   1.465 .      S
C64   H65   1.075 .      S
C66   O12   1.345 .      S
O12   H66   0.966 .      S
H58   C56   1.102 1_455  S
C67   C68   1.462 .      S
C67   H67   1.096 .      S
C67   H68   1.105 .      S
C67   H69   1.089 .      S
C68   C69   1.482 .      S
C68   C70   1.497 .      S
C68   H70   1.108 .      S
C69   H71   1.102 .      S
C69   H72   1.067 .      S
C69   H73   1.105 .      S
C72   H74   1.074 .      S
C73   H75   1.081 1_655  S
C74   C77   1.471 .      S
C75   H76   1.074 .      S
C77   O14   1.346 .      S
O14   H77   0.966 .      S
H75   C73   1.081 1_455  S
C78   C79   1.507 1_455  S
C78   H78   1.090 .      S
C78   H79   1.109 .      S
C78   H80   1.105 .      S
C79   C78   1.507 1_655  S
C79   C80   1.503 .      S
C79   C81   1.492 .      S
C79   H81   1.101 .      S
C80   H82   1.099 .      S
C80   H83   1.098 .      S
C80   H84   1.106 .      S
N15   Zn10  2.213 1_545  S
C83   H85   1.034 1_655  S
C84   H86   1.067 1_655  S
C85   C88   1.455 .      S
C86   H87   1.046 .      S
C88   O16   1.342 .      S
O16   H88   0.960 .      S
H85   C83   1.034 1_455  S
H86   C84   1.067 1_455  S
C89   C90   1.512 .      S
C89   H89   1.104 .      S
C89   H90   1.101 .      S
C89   H91   1.109 .      S
C90   C91   1.512 .      S
C90   C92   1.517 .      S
C90   H92   1.105 .      S
C91   H93   1.103 .      S
C91   H94   1.109 .      S
C91   H95   1.093 .      S
C94   H96   1.049 .      S
C95   H97   1.076 .      S
C96   C99   1.448 .      S
C97   H98   1.053 .      S
C99   O18   1.337 1_655  S
O18   C99   1.337 1_455  S
O18   H99   0.962 .      S
C100  C101  1.505 .      S
C100  H100  1.087 .      S
C100  H101  1.070 .      S
C100  H102  1.100 .      S
C101  C102  1.493 .      S
C101  C103  1.466 .      S
C101  H103  1.073 .      S
C102  H104  1.098 .      S
C102  H105  1.106 .      S
C102  H106  1.100 .      S
C105  H107  1.074 .      S
C106  H108  1.081 .      S
C107  C110  1.468 .      S
C108  H109  1.073 .      S
C110  O20   1.346 .      S
O20   H110  0.965 .      S
C111  C112  1.506 .      S
C111  H111  1.092 .      S
C111  H112  1.110 .      S
C111  H113  1.101 .      S
C112  C113  1.513 .      S
C112  C114  1.510 .      S
C112  H114  1.097 .      S
C113  H115  1.106 .      S
C113  H116  1.105 .      S
C113  H117  1.109 .      S
C116  H118  1.049 .      S
C117  H119  1.080 .      S
C118  C121  1.461 .      S
C119  H120  1.077 .      S
C121  O22   1.340 .      S
O22   H121  0.959 .      S
C122  C123  1.482 .      S
C122  H122  1.089 .      S
C122  H123  1.107 .      S
C122  H124  1.085 .      S
C123  C124  1.504 .      S
C123  C125  1.474 .      S
C123  H125  1.102 .      S
C124  H126  1.104 .      S
C124  H127  1.100 .      S
C124  H128  1.108 .      S
C127  H129  1.056 .      S
C128  H130  1.080 .      S
C129  C132  1.451 .      S
C130  H131  1.070 .      S
C132  O24   1.331 .      S
O24   H132  0.965 .      S
C133  C134  1.516 .      S
C133  H133  1.105 .      S
C133  H134  1.107 .      S
C133  H135  1.096 .      S
C134  C135  1.524 .      S
C134  C136  1.519 .      S
C134  H136  1.094 .      S
C135  H137  1.100 .      S
C135  H138  1.107 .      S
C135  H139  1.105 .      S
C138  H140  1.074 .      S
C139  H141  1.078 .      S
C140  C143  1.468 .      S
C141  H142  1.071 .      S
C143  O26   1.345 .      S
O26   H143  0.966 .      S
C144  C145  1.482 .      S
C144  H144  1.090 .      S
C144  H145  1.102 .      S
C144  H146  1.094 .      S
C145  C146  1.512 1_455  S
C145  C147  1.505 .      S
C145  H147  1.090 .      S
C146  C145  1.512 1_655  S
C146  H148  1.100 .      S
C146  H149  1.107 .      S
C146  H150  1.093 .      S
C149  H151  1.067 .      S
C150  H152  1.081 .      S
C151  C154  1.469 1_455  S
C152  H153  1.079 1_455  S
N28   Zn12  2.127 1_455  S
C154  C151  1.469 1_655  S
C154  O28   1.346 .      S
O28   H154  0.966 .      S
H153  C152  1.079 1_655  S
C155  C156  1.495 .      S
C155  H155  1.096 .      S
C155  H156  1.104 .      S
C155  H157  1.107 .      S
C156  C157  1.496 .      S
C156  C158  1.461 .      S
C156  H158  1.065 .      S
C157  H159  1.090 .      S
C157  H160  1.108 .      S
C157  H161  1.093 .      S
C160  H162  1.027 .      S
C161  H163  1.081 .      S
C162  C165  1.468 .      S
C163  H164  1.046 .      S
C165  O30   1.346 .      S
O30   H165  0.966 1_556  S
H165  O30   0.966 1_554  S
C166  C167  1.487 .      S
C166  H166  1.082 .      S
C166  H167  1.082 .      S
C166  H168  1.109 .      S
C167  C168  1.497 .      S
C167  C169  1.495 .      S
C167  H169  1.098 .      S
C168  H170  1.096 .      S
C168  H171  1.106 .      S
C168  H172  1.095 .      S
C171  H173  1.051 1_565  S
C172  H174  1.081 1_565  S
C173  C176  1.468 .      S
C174  H175  1.064 .      S
N32   Zn12  2.213 1_455  S
C176  O32   1.343 .      S
O32   H176  0.964 .      S
H173  C171  1.051 1_545  S
H174  C172  1.081 1_545  S
C177  C178  1.483 .      S
C177  H177  1.084 .      S
C177  H178  1.106 .      S
C177  H179  1.084 .      S
C178  C179  1.508 .      S
C178  C180  1.441 .      S
C178  H180  1.084 .      S
C179  H181  1.098 .      S
C179  H182  1.101 .      S
C179  H183  1.102 .      S
C182  H184  1.066 .      S
C183  H185  1.081 .      S
C184  C187  1.467 .      S
C185  H186  1.072 .      S
C187  O34   1.345 .      S
O34   H187  0.965 .      S
C188  C189  1.432 .      S
C188  H188  1.096 .      S
C188  H189  1.083 .      S
C188  H190  1.070 .      S
C189  C190  1.509 .      S
C189  C191  1.464 .      S
C189  H191  1.086 .      S
C190  H192  1.096 .      S
C190  H193  1.077 .      S
C190  H194  1.110 .      S
C193  H195  1.072 .      S
C194  H196  1.080 .      S
C195  C198  1.469 .      S
C196  H197  1.066 .      S
N36   Zn20  2.275 1_455  S
C198  O36   1.346 .      S
O36   H198  0.966 .      S
C199  C200  1.517 .      S
C199  H199  1.103 .      S
C199  H200  1.100 .      S
C199  H201  1.103 .      S
C200  C201  1.480 .      S
C200  C202  1.446 .      S
C200  H202  1.077 .      S
C201  H203  1.103 .      S
C201  H204  1.104 .      S
C201  H205  1.083 .      S
C204  H206  1.060 .      S
C205  H207  1.081 .      S
C206  C209  1.468 .      S
C207  H208  1.073 .      S
C209  O38   1.346 .      S
O38   H209  0.966 .      S
C210  C211  1.500 .      S
C210  H210  1.087 1_554  S
C210  H211  1.109 1_455  S
C210  H212  1.103 .      S
C211  C212  1.519 .      S
C211  C213  1.478 .      S
C211  H213  1.104 .      S
C212  H214  1.100 .      S
C212  H215  1.101 .      S
C212  H216  1.109 .      S
N39   Zn26  2.137 1_554  S
C215  H217  1.069 .      S
C216  H218  1.081 .      S
C217  C220  1.467 .      S
C218  H219  1.066 .      S
C220  O40   1.345 .      S
O40   H220  0.965 .      S
H210  C210  1.087 1_556  S
H211  C210  1.109 1_655  S
C221  C222  1.508 1_655  S
C221  H221  1.104 .      S
C221  H222  1.107 .      S
C221  H223  1.101 .      S
C222  C221  1.508 1_455  S
C222  C223  1.483 1_554  S
C222  C224  1.496 .      S
C222  H224  1.102 .      S
C223  C222  1.483 1_556  S
C223  H225  1.103 .      S
C223  H226  1.108 1_455  S
C223  H227  1.094 1_455  S
N41   Zn6   2.280 1_454  S
C226  H228  1.064 .      S
C227  H229  1.081 .      S
C228  C231  1.469 .      S
C229  H230  1.072 .      S
C231  O42   1.343 .      S
O42   H231  0.966 .      S
H226  C223  1.108 1_655  S
H227  C223  1.094 1_655  S
C232  C233  1.490 .      S
C232  H232  1.089 .      S
C232  H233  1.107 .      S
C232  H234  1.099 .      S
C233  C234  1.507 .      S
C233  C235  1.505 .      S
C233  H235  1.068 .      S
C234  H236  1.090 .      S
C234  H237  1.105 .      S
C234  H238  1.101 .      S
C237  H239  1.076 .      S
C238  H240  1.080 .      S
C239  C242  1.468 .      S
C240  H241  1.061 .      S
C242  O44   1.345 .      S
O44   H242  0.966 .      S
C243  C244  1.514 .      S
C243  H243  1.102 .      S
C243  H244  1.109 .      S
C243  H245  1.105 .      S
C244  C245  1.497 .      S
C244  C246  1.479 .      S
C244  H246  1.075 .      S
C245  H247  1.105 .      S
C245  H248  1.100 .      S
C245  H249  1.098 .      S
C248  H250  1.070 .      S
C249  H251  1.081 .      S
C250  C253  1.470 .      S
C251  H252  1.054 .      S
C253  O46   1.344 .      S
O46   H253  0.966 .      S
C254  C255  1.506 .      S
C254  H254  1.098 .      S
C254  H255  1.106 .      S
C254  H256  1.107 .      S
C255  C256  1.505 .      S
C255  C257  1.506 .      S
C255  H257  1.081 .      S
C256  H258  1.108 .      S
C256  H259  1.105 .      S
C256  H260  1.101 .      S
C259  H261  1.062 .      S
C260  H262  1.081 .      S
C261  C264  1.469 .      S
C262  H263  1.057 .      S
C264  O48   1.342 .      S
O48   H264  0.966 .      S
C265  C266  1.495 .      S
C265  H265  1.097 .      S
C265  H266  1.099 .      S
C265  H267  1.105 .      S
C266  C267  1.493 .      S
C266  C268  1.471 .      S
C266  H268  1.091 .      S
C267  H269  1.085 .      S
C267  H270  1.090 .      S
C267  H271  1.106 .      S
C270  H272  1.063 .      S
C271  H273  1.081 .      S
C272  C275  1.469 .      S
C273  H274  1.067 .      S
C275  O50   1.345 .      S
O50   H275  0.966 .      S
C276  C277  1.463 .      S
C276  H276  1.093 .      S
C276  H277  1.103 .      S
C276  H278  1.089 .      S
C277  C278  1.506 .      S
C277  C279  1.482 .      S
C277  H279  1.078 .      S
C278  H280  1.101 .      S
C278  H281  1.091 .      S
C278  H282  1.106 .      S
C281  H283  1.077 .      S
C282  H284  1.081 .      S
C283  C286  1.469 .      S
C284  H285  1.079 .      S
C286  O52   1.346 .      S
O52   H286  0.966 1_565  S
H286  O52   0.966 1_545  S
C287  C288  1.484 .      S
C287  H287  1.094 .      S
C287  H288  1.081 .      S
C287  H289  1.108 .      S
C288  C289  1.489 .      S
C288  C290  1.497 .      S
C288  H290  1.089 .      S
C289  H291  1.092 .      S
C289  H292  1.106 .      S
C289  H293  1.095 .      S
C292  H294  1.066 .      S
C293  H295  1.079 .      S
C294  C297  1.455 .      S
C295  H296  1.077 .      S
C297  O54   1.344 .      S
O54   H297  0.965 .      S
C298  C299  1.503 .      S
C298  H298  1.101 .      S
C298  H299  1.109 .      S
C298  H300  1.108 .      S
C299  C300  1.475 .      S
C299  C301  1.480 .      S
C299  H301  1.094 .      S
C300  H302  1.092 .      S
C300  H303  1.107 .      S
C300  H304  1.096 .      S
C303  H305  1.060 .      S
C304  H306  1.076 1_655  S
C305  C308  1.465 .      S
C306  H307  1.075 .      S
C308  O56   1.340 .      S
O56   H308  0.965 .      S
H306  C304  1.076 1_455  S
C309  C310  1.513 .      S
C309  H309  1.104 .      S
C309  H310  1.107 .      S
C309  H311  1.103 .      S
C310  C311  1.508 .      S
C310  C312  1.498 .      S
C310  H312  1.099 .      S
C311  H313  1.108 .      S
C311  H314  1.109 .      S
C311  H315  1.101 .      S
C314  H316  1.048 .      S
C315  H317  1.078 .      S
C316  C319  1.460 .      S
C317  H318  1.058 .      S
C319  O58   1.337 .      S
O58   H319  0.965 .      S
C320  C321  1.499 .      S
C320  H320  1.101 .      S
C320  H321  1.109 .      S
C320  H322  1.103 .      S
C321  C322  1.494 .      S
C321  C323  1.497 .      S
C321  H323  1.089 .      S
C322  H324  1.104 .      S
C322  H325  1.098 .      S
C322  H326  1.107 .      S
C325  H327  1.049 .      S
C326  H328  1.081 .      S
C327  C330  1.468 .      S
C328  H329  1.068 .      S
C330  O60   1.345 .      S
O60   H330  0.966 .      S
C331  C332  1.492 .      S
C331  H331  1.097 .      S
C331  H332  1.105 .      S
C331  H333  1.087 .      S
C332  C333  1.483 .      S
C332  C334  1.480 .      S
C332  H334  1.104 .      S
C333  H335  1.103 .      S
C333  H336  1.098 .      S
C333  H337  1.092 .      S
C336  H338  1.071 .      S
C337  H339  1.081 .      S
C338  C341  1.469 .      S
C339  H340  1.075 .      S
N62   Zn23  2.117 1_455  S
C341  O62   1.345 1_455  S
O62   C341  1.345 1_655  S
O62   H341  0.966 .      S
C342  C343  1.467 .      S
C342  H342  1.058 .      S
C342  H343  1.074 1_554  S
C342  H344  1.099 1_554  S
C343  C344  1.513 .      S
C343  C345  1.437 .      S
C343  H345  1.088 1_554  S
C344  H346  1.107 .      S
C344  H347  1.107 1_455  S
C344  H348  1.098 .      S
C347  H349  1.068 .      S
C348  H350  1.080 .      S
C349  C352  1.469 1_565  S
C350  H351  1.074 .      S
N64   Zn5   2.184 1_554  S
C352  C349  1.469 1_545  S
C352  O64   1.345 .      S
O64   H352  0.966 .      S
H343  C342  1.074 1_556  S
H344  C342  1.099 1_556  S
H345  C343  1.088 1_556  S
H347  C344  1.107 1_655  S
C353  C354  1.495 1_655  S
C353  H353  1.094 .      S
C353  H354  1.104 .      S
C353  H355  1.100 1_655  S
C354  C353  1.495 1_455  S
C354  C355  1.450 1_455  S
C354  C356  1.482 .      S
C354  H356  1.089 .      S
C355  C354  1.450 1_655  S
C355  H357  1.090 .      S
C355  H358  1.095 .      S
C355  H359  1.065 .      S
N65   Zn27  2.194 1_454  S
C358  H360  1.067 .      S
C359  H361  1.081 .      S
C360  C363  1.466 .      S
C361  H362  1.081 .      S
C363  O66   1.343 .      S
O66   H363  0.965 .      S
H355  C353  1.100 1_455  S
C364  C365  1.494 .      S
C364  H364  1.101 .      S
C364  H365  1.108 .      S
C364  H366  1.085 .      S
C365  C366  1.503 .      S
C365  C367  1.466 .      S
C365  H367  1.088 .      S
C366  H368  1.108 .      S
C366  H369  1.109 .      S
C366  H370  1.104 .      S
C369  H371  1.051 .      S
C370  H372  1.081 .      S
C371  C374  1.471 .      S
C372  H373  1.078 .      S
C374  O68   1.346 .      S
O68   H374  0.966 1_556  S
H374  O68   0.966 1_554  S
C375  C376  1.493 .      S
C375  H375  1.104 .      S
C375  H376  1.093 .      S
C375  H377  1.078 .      S
C376  C377  1.517 .      S
C376  C378  1.497 .      S
C376  H378  1.090 .      S
C377  H379  1.097 1_455  S
C377  H380  1.089 1_455  S
C377  H381  1.078 1_455  S
N69   Zn17  2.150 1_455  S
C380  H382  1.077 .      S
C381  H383  1.081 .      S
C382  C385  1.469 .      S
C383  H384  1.075 .      S
C385  O70   1.344 .      S
O70   H385  0.966 .      S
H379  C377  1.097 1_655  S
H380  C377  1.089 1_655  S
H381  C377  1.078 1_655  S
C386  C387  1.509 .      S
C386  H386  1.080 .      S
C386  H387  1.108 .      S
C386  H388  1.100 .      S
C387  C388  1.518 .      S
C387  C389  1.472 .      S
C387  H389  1.067 .      S
C388  H390  1.108 .      S
C388  H391  1.107 .      S
C388  H392  1.099 .      S
C391  H393  1.071 .      S
C392  H394  1.077 .      S
C393  C396  1.476 .      S
C394  H395  1.069 .      S
N72   Zn17  2.145 1_455  S
C396  O72   1.350 .      S
O72   H396  0.965 .      S
C397  C398  1.477 .      S
C397  H397  1.100 .      S
C397  H398  1.109 .      S
C397  H399  1.095 .      S
C398  C399  1.481 .      S
C398  C400  1.493 .      S
C398  H400  1.105 .      S
C399  H401  1.087 .      S
C399  H402  1.109 .      S
C399  H403  1.106 .      S
C402  H404  1.056 1_655  S
C403  H405  1.081 .      S
C404  C407  1.456 .      S
C405  H406  1.062 .      S
N74   Zn17  2.302 1_455  S
C407  O74   1.338 .      S
O74   H407  0.966 .      S
H404  C402  1.056 1_455  S
C408  C409  1.476 .      S
C408  H408  1.079 .      S
C408  H409  1.108 .      S
C408  H410  1.077 .      S
C409  C410  1.483 .      S
C409  C411  1.485 .      S
C409  H411  1.100 .      S
C410  H412  1.080 .      S
C410  H413  1.107 .      S
C410  H414  1.097 .      S
C413  H415  1.071 .      S
C414  H416  1.080 .      S
C415  C418  1.462 .      S
C416  H417  1.071 .      S
C418  O76   1.337 .      S
O76   H418  0.966 .      S
C419  C420  1.514 .      S
C419  H419  1.107 .      S
C419  H420  1.095 .      S
C419  H421  1.108 .      S
C420  C421  1.481 .      S
C420  C422  1.498 .      S
C420  H422  1.096 .      S
C421  H423  1.095 .      S
C421  H424  1.105 .      S
C421  H425  1.099 .      S
C424  H426  1.079 .      S
C425  H427  1.080 .      S
C426  C429  1.463 .      S
C427  H428  1.073 .      S
C429  O78   1.342 .      S
O78   H429  0.963 .      S
C430  C431  1.494 .      S
C430  H430  1.086 .      S
C430  H431  1.109 .      S
C430  H432  1.086 .      S
C431  C432  1.484 .      S
C431  C433  1.482 .      S
C431  H433  1.097 .      S
C432  H434  1.096 .      S
C432  H435  1.107 .      S
C432  H436  1.083 .      S
C435  H437  1.061 .      S
C436  H438  1.074 .      S
C437  C440  1.443 .      S
C438  H439  1.073 .      S
C440  O80   1.342 .      S
O80   H440  0.961 .      S
C441  C442  1.517 .      S
C441  H441  1.103 .      S
C441  H442  1.102 .      S
C441  H443  1.107 .      S
C442  C443  1.495 .      S
C442  C444  1.516 .      S
C442  H444  1.096 .      S
C443  H445  1.090 .      S
C443  H446  1.109 .      S
C443  H447  1.098 .      S
C446  H448  1.064 .      S
C447  H449  1.081 .      S
C448  C451  1.469 .      S
C449  H450  1.055 .      S
C451  O82   1.344 .      S
O82   H451  0.966 .      S
C452  C453  1.524 .      S
C452  H452  1.087 1_565  S
C452  H453  1.098 1_565  S
C452  H454  1.108 .      S
C453  C454  1.501 1_455  S
C453  C455  1.405 .      S
C453  H455  1.080 .      S
C454  C453  1.501 1_655  S
C454  H456  1.105 .      S
C454  H457  1.105 1_655  S
C454  H458  1.088 .      S
C457  H459  1.075 .      S
C458  H460  1.078 .      S
C459  C462  1.467 .      S
C460  H461  1.069 .      S
C462  O84   1.346 .      S
O84   H462  0.966 .      S
H452  C452  1.087 1_545  S
H453  C452  1.098 1_545  S
H457  C454  1.105 1_455  S
C463  C464  1.517 .      S
C463  H463  1.094 .      S
C463  H464  1.105 .      S
C463  H465  1.093 .      S
C464  C465  1.506 .      S
C464  C466  1.520 .      S
C464  H466  1.103 .      S
C465  H467  1.109 .      S
C465  H468  1.104 .      S
C465  H469  1.087 1_455  S
N85   Zn20  2.239 1_455  S
C468  H470  1.047 1_455  S
C469  H471  1.080 .      S
C470  C473  1.467 .      S
C471  H472  1.072 .      S
C473  O86   1.345 .      S
O86   H473  0.964 .      S
H469  C465  1.087 1_655  S
H470  C468  1.047 1_655  S
C474  C475  1.513 .      S
C474  H474  1.108 .      S
C474  H475  1.106 .      S
C474  H476  1.088 .      S
C475  C476  1.486 .      S
C475  C477  1.499 .      S
C475  H477  1.077 .      S
C476  H478  1.107 .      S
C476  H479  1.108 .      S
C476  H480  1.090 .      S
C479  H481  1.061 .      S
C480  H482  1.071 .      S
C481  C484  1.456 .      S
C482  H483  1.079 .      S
C484  O88   1.343 .      S
O88   H484  0.965 .      S
C485  C486  1.458 .      S
C485  H485  1.050 .      S
C485  H486  1.106 .      S
C485  H487  1.083 .      S
C486  C487  1.483 .      S
C486  C488  1.429 .      S
C486  H488  1.096 .      S
C487  H489  1.094 .      S
C487  H490  1.099 .      S
C487  H491  1.087 .      S
C490  H492  1.062 .      S
C491  H493  1.081 .      S
C492  C495  1.467 .      S
C493  H494  1.077 .      S
C495  O90   1.346 .      S
O90   H495  0.965 .      S
C496  C497  1.504 .      S
C496  H496  1.100 .      S
C496  H497  1.105 .      S
C496  H498  1.096 .      S
C497  C498  1.472 .      S
C497  C499  1.501 .      S
C497  H499  1.092 .      S
C498  H500  1.097 .      S
C498  H501  1.102 .      S
C498  H502  1.085 .      S
C501  H503  1.065 .      S
C502  H504  1.079 .      S
C503  C506  1.461 .      S
C504  H505  1.073 .      S
C506  O92   1.341 .      S
O92   H506  0.964 .      S
C507  C508  1.513 .      S
C507  H507  1.104 1_565  S
C507  H508  1.104 1_565  S
C507  H509  1.103 .      S
C508  C509  1.501 .      S
C508  C510  1.500 .      S
C508  H510  1.087 .      S
C509  H511  1.101 .      S
C509  H512  1.102 1_565  S
C509  H513  1.097 1_565  S
C512  H514  1.072 .      S
C513  H515  1.081 .      S
C514  C517  1.465 .      S
C515  H516  1.067 .      S
C517  O94   1.344 .      S
O94   H517  0.964 .      S
H507  C507  1.104 1_545  S
H508  C507  1.104 1_545  S
H512  C509  1.102 1_545  S
H513  C509  1.097 1_545  S
C518  C519  1.499 .      S
C518  H518  1.108 .      S
C518  H519  1.099 .      S
C518  H520  1.106 .      S
C519  C520  1.493 .      S
C519  C521  1.467 .      S
C519  H521  1.089 .      S
C520  H522  1.096 .      S
C520  H523  1.091 .      S
C520  H524  1.098 .      S
C523  H525  1.077 .      S
C524  H526  1.081 .      S
C525  C528  1.469 .      S
C526  H527  1.068 .      S
C528  O96   1.346 .      S
O96   H528  0.966 .      S
C529  C530  1.506 .      S
C529  H529  1.104 .      S
C529  H530  1.109 .      S
C529  H531  1.101 .      S
C530  C531  1.491 .      S
C530  C532  1.501 .      S
C530  H532  1.099 .      S
C531  H533  1.101 .      S
C531  H534  1.097 .      S
C531  H535  1.092 .      S
C534  H536  1.053 .      S
C535  H537  1.060 .      S
C536  C539  1.448 1_565  S
C537  H538  1.063 1_565  S
C539  C536  1.448 1_545  S
C539  O98   1.330 .      S
O98   H539  0.963 .      S
H538  C537  1.063 1_545  S
C540  C541  1.504 .      S
C540  H540  1.105 .      S
C540  H541  1.101 .      S
C540  H542  1.092 .      S
C541  C542  1.508 .      S
C541  C543  1.479 .      S
C541  H543  1.095 .      S
C542  H544  1.107 1_455  S
C542  H545  1.094 .      S
C542  H546  1.107 .      S
C545  H547  1.072 .      S
C546  H548  1.081 .      S
C547  C550  1.468 .      S
C548  H549  1.077 .      S
N100  Zn23  2.174 1_455  S
C550  O100  1.346 .      S
O100  H550  0.966 .      S
H544  C542  1.107 1_655  S
C551  C552  1.506 .      S
C551  H551  1.106 .      S
C551  H552  1.106 .      S
C551  H553  1.079 .      S
C552  C553  1.536 .      S
C552  C554  1.497 .      S
C552  H554  1.088 .      S
C553  H555  1.093 .      S
C553  H556  1.108 .      S
C553  H557  1.098 .      S
C556  H558  1.059 .      S
C557  H559  1.061 .      S
C558  C561  1.459 .      S
C559  H560  1.066 .      S
C561  O102  1.342 .      S
O102  H561  0.961 .      S
C562  C563  1.488 .      S
C562  H562  1.104 .      S
C562  H563  1.108 .      S
C562  H564  1.083 .      S
C563  C564  1.488 .      S
C563  C565  1.478 .      S
C563  H565  1.058 .      S
C564  H566  1.103 .      S
C564  H567  1.100 .      S
C564  H568  1.096 .      S
C567  H569  1.069 .      S
C568  H570  1.079 .      S
C569  C572  1.451 1_565  S
C570  H571  1.071 1_565  S
C572  C569  1.451 1_545  S
C572  O104  1.338 .      S
O104  H572  0.960 .      S
H571  C570  1.071 1_545  S
C573  C574  1.512 .      S
C573  H573  1.109 .      S
C573  H574  1.108 .      S
C573  H575  1.101 1_545  S
C574  C575  1.474 .      S
C574  C576  1.493 .      S
C574  H576  1.099 .      S
C575  H577  1.083 .      S
C575  H578  1.109 .      S
C575  H579  1.107 .      S
C578  H580  1.070 .      S
C579  H581  1.080 .      S
C580  C583  1.469 1_545  S
C581  H582  1.074 1_545  S
N106  Zn24  2.234 1_545  S
C583  C580  1.469 1_565  S
C583  O106  1.346 .      S
O106  H583  0.966 .      S
H575  C573  1.101 1_565  S
H582  C581  1.074 1_565  S
C584  C585  1.485 .      S
C584  H584  1.094 .      S
C584  H585  1.102 .      S
C584  H586  1.102 .      S
C585  C586  1.502 1_565  S
C585  C587  1.497 .      S
C585  H587  1.109 1_565  S
C586  C585  1.502 1_545  S
C586  H588  1.093 .      S
C586  H589  1.107 .      S
C586  H590  1.097 .      S
C589  H591  1.075 .      S
C590  H592  1.081 1_655  S
C591  C594  1.469 .      S
C592  H593  1.071 .      S
C594  O108  1.346 .      S
O108  H594  0.966 .      S
H587  C585  1.109 1_545  S
H592  C590  1.081 1_455  S
C595  C596  1.519 .      S
C595  H595  1.107 .      S
C595  H596  1.108 .      S
C595  H597  1.104 .      S
C596  C597  1.488 .      S
C596  C598  1.507 .      S
C596  H598  1.094 .      S
C597  H599  1.102 .      S
C597  H600  1.107 .      S
C597  H601  1.082 .      S
C600  H602  1.051 .      S
C601  H603  1.081 .      S
C602  C605  1.460 .      S
C603  H604  1.049 .      S
C605  O110  1.342 .      S
O110  H605  0.966 .      S
C606  C607  1.526 .      S
C606  H606  1.106 .      S
C606  H607  1.109 .      S
C606  H608  1.107 .      S
C607  C608  1.515 .      S
C607  C609  1.500 .      S
C607  H609  1.102 .      S
C608  H610  1.092 .      S
C608  H611  1.107 .      S
C608  H612  1.100 .      S
C611  H613  1.068 .      S
C612  H614  1.080 .      S
C613  C616  1.465 .      S
C614  H615  1.070 .      S
C616  O112  1.345 .      S
O112  H616  0.966 .      S
C617  C618  1.513 .      S
C617  H617  1.096 .      S
C617  H618  1.108 .      S
C617  H619  1.106 .      S
C618  C619  1.526 .      S
C618  C620  1.503 .      S
C618  H620  1.089 .      S
C619  H621  1.094 .      S
C619  H622  1.106 .      S
C619  H623  1.104 .      S
C622  H624  1.057 .      S
C623  H625  1.065 .      S
C624  C627  1.465 .      S
C625  H626  1.049 .      S
C627  O114  1.341 .      S
O114  H627  0.964 .      S
C628  C629  1.486 .      S
C628  H628  1.089 .      S
C628  H629  1.107 .      S
C628  H630  1.102 .      S
C629  C630  1.520 1_556  S
C629  C631  1.487 .      S
C629  H631  1.107 .      S
C630  C629  1.520 1_554  S
C630  H632  1.107 .      S
C630  H633  1.107 .      S
C630  H634  1.106 .      S
C633  H635  1.061 .      S
C634  H636  1.081 .      S
C635  C638  1.468 .      S
C636  H637  1.080 1_545  S
N116  Zn5   2.214 1_545  S
C638  O116  1.344 1_545  S
O116  C638  1.344 1_565  S
O116  H638  0.966 .      S
H637  C636  1.080 1_565  S
C639  C640  1.493 .      S
C639  H639  1.102 1_655  S
C639  H640  1.100 .      S
C639  H641  1.101 1_655  S
C640  C641  1.494 .      S
C640  C642  1.478 .      S
C640  H642  1.091 .      S
C641  H643  1.107 .      S
C641  H644  1.095 .      S
C641  H645  1.087 .      S
C644  H646  1.072 .      S
C645  H647  1.078 .      S
C646  C649  1.469 .      S
C647  H648  1.077 .      S
N118  Zn27  2.083 1_554  S
C649  O118  1.346 .      S
O118  H649  0.966 .      S
H639  C639  1.102 1_455  S
H641  C639  1.101 1_455  S
C650  C651  1.505 .      S
C650  H650  1.099 .      S
C650  H651  1.109 .      S
C650  H652  1.102 .      S
C651  C652  1.518 1_554  S
C651  C653  1.509 1_554  S
C651  H653  1.107 .      S
C652  C651  1.518 1_556  S
C652  H654  1.107 .      S
C652  H655  1.102 .      S
C652  H656  1.105 1_556  S
C653  C651  1.509 1_556  S
N119  Zn6   2.270 1_455  S
C655  H657  1.054 .      S
C656  H658  1.080 .      S
C657  C660  1.468 .      S
C658  H659  1.071 .      S
N120  Zn27  2.171 1_455  S
C660  O120  1.345 .      S
O120  H660  0.966 .      S
H656  C652  1.105 1_554  S
C661  C662  1.436 .      S
C661  H661  1.076 .      S
C661  H662  1.090 .      S
C661  H663  1.093 .      S
C662  C663  1.521 .      S
C662  C664  1.500 .      S
C662  H664  1.084 .      S
C663  H665  1.085 .      S
C663  H666  1.086 .      S
C663  H667  1.110 .      S
C666  H668  1.055 .      S
C667  H669  1.081 .      S
C668  C671  1.459 .      S
C669  H670  1.077 .      S
C671  O122  1.340 .      S
O122  H671  0.963 .      S
C672  C673  1.511 .      S
C672  H672  1.095 .      S
C672  H673  1.106 .      S
C672  H674  1.101 .      S
C673  C674  1.512 .      S
C673  C675  1.495 .      S
C673  H675  1.095 .      S
C674  H676  1.097 .      S
C674  H677  1.106 .      S
C674  H678  1.094 .      S
C677  H679  1.069 .      S
C678  H680  1.081 .      S
C679  C682  1.467 .      S
C680  H681  1.066 .      S
C682  O124  1.341 .      S
O124  H682  0.965 .      S
C683  C684  1.516 .      S
C683  H683  1.092 .      S
C683  H684  1.107 .      S
C683  H685  1.096 .      S
C684  C685  1.514 .      S
C684  C686  1.503 .      S
C684  H686  1.097 .      S
C685  H687  1.103 .      S
C685  H688  1.109 .      S
C685  H689  1.099 .      S
C688  H690  1.054 .      S
C689  H691  1.079 .      S
C690  C693  1.469 .      S
C691  H692  1.053 .      S
C693  O126  1.344 .      S
O126  H693  0.966 .      S
C694  C695  1.534 .      S
C694  H694  1.097 .      S
C694  H695  1.098 .      S
C694  H696  1.109 .      S
C695  C696  1.492 .      S
C695  C697  1.391 .      S
C695  H697  1.085 .      S
C696  H698  1.105 .      S
C696  H699  1.091 .      S
C696  H700  1.092 .      S
C699  H701  1.067 .      S
C700  H702  1.060 .      S
C701  C704  1.469 .      S
C702  H703  1.054 .      S
C704  O128  1.342 .      S
O128  H704  0.966 .      S
C4    N1    1.396 .      A
C4    N2    1.396 .      A
N1    C5    1.323 .      A
C5    C6    1.370 .      A
C5    C10   1.350 .      A
C6    C7    1.373 .      A
C7    C8    1.368 .      A
C8    C9    1.371 .      A
C9    C10   1.383 .      A
C10   N2    1.389 .      A
C15   N3    1.396 .      A
C15   N4    1.374 .      A
N3    C16   1.344 .      A
C16   C17   1.357 .      A
C16   C21   1.368 .      A
C17   C18   1.372 .      A
C18   C19   1.386 .      A
C19   C20   1.396 .      A
C20   C21   1.380 .      A
C21   N4    1.354 .      A
C26   N5    1.399 .      A
C26   N6    1.379 .      A
N5    C27   1.356 .      A
C27   C28   1.344 .      A
C27   C32   1.350 .      A
C28   C29   1.373 .      A
C29   C30   1.376 .      A
C30   C31   1.394 .      A
C31   C32   1.377 .      A
C32   N6    1.333 .      A
C37   N7    1.388 .      A
C37   N8    1.370 .      A
N7    C38   1.356 .      A
C38   C39   1.368 .      A
C38   C43   1.351 .      A
C39   C40   1.376 .      A
C40   C41   1.382 .      A
C41   C42   1.383 .      A
C42   C43   1.371 .      A
C43   N8    1.340 .      A
C48   N9    1.397 .      A
C48   N10   1.362 .      A
N9    C49   1.341 .      A
C49   C50   1.368 .      A
C49   C54   1.368 .      A
C50   C51   1.379 1_554  A
C51   C50   1.379 1_556  A
C51   C52   1.389 .      A
C52   C53   1.389 .      A
C53   C54   1.376 1_556  A
C54   C53   1.376 1_554  A
C54   N10   1.364 .      A
C59   N11   1.394 1_455  A
C59   N12   1.364 .      A
N11   C59   1.394 1_655  A
N11   C60   1.368 .      A
C60   C61   1.383 .      A
C60   C65   1.373 1_655  A
C61   C62   1.383 .      A
C62   C63   1.386 1_655  A
C63   C62   1.386 1_455  A
C63   C64   1.382 .      A
C64   C65   1.375 .      A
C65   C60   1.373 1_455  A
C65   N12   1.345 .      A
C70   N13   1.388 .      A
C70   N14   1.387 .      A
N13   C71   1.344 .      A
C71   C72   1.376 .      A
C71   C76   1.367 .      A
C72   C73   1.376 .      A
C73   C74   1.385 .      A
C74   C75   1.390 .      A
C75   C76   1.386 .      A
C76   N14   1.367 .      A
C81   N15   1.399 .      A
C81   N16   1.385 .      A
N15   C82   1.353 .      A
C82   C83   1.379 .      A
C82   C87   1.344 .      A
C83   C84   1.359 .      A
C84   C85   1.350 .      A
C85   C86   1.363 .      A
C86   C87   1.379 .      A
C87   N16   1.355 .      A
C92   N17   1.406 .      A
C92   N18   1.382 .      A
N17   C93   1.337 .      A
C93   C94   1.342 .      A
C93   C98   1.335 .      A
C94   C95   1.367 .      A
C95   C96   1.369 .      A
C96   C97   1.375 .      A
C97   C98   1.364 .      A
C98   N18   1.334 .      A
C103  N19   1.400 .      A
C103  N20   1.379 .      A
N19   C104  1.347 .      A
C104  C105  1.373 .      A
C104  C109  1.377 .      A
C105  C106  1.382 .      A
C106  C107  1.390 .      A
C107  C108  1.387 .      A
C108  C109  1.378 .      A
C109  N20   1.362 .      A
C114  N21   1.396 .      A
C114  N22   1.410 .      A
N21   C115  1.362 .      A
C115  C116  1.372 .      A
C115  C120  1.361 .      A
C116  C117  1.379 .      A
C117  C118  1.379 .      A
C118  C119  1.375 .      A
C119  C120  1.371 .      A
C120  N22   1.333 .      A
C125  N23   1.413 .      A
C125  N24   1.403 .      A
N23   C126  1.337 .      A
C126  C127  1.357 .      A
C126  C131  1.375 .      A
C127  C128  1.355 .      A
C128  C129  1.368 .      A
C129  C130  1.397 .      A
C130  C131  1.386 .      A
C131  N24   1.373 .      A
C136  N25   1.394 .      A
C136  N26   1.398 .      A
N25   C137  1.341 .      A
C137  C138  1.362 .      A
C137  C142  1.356 .      A
C138  C139  1.381 .      A
C139  C140  1.387 .      A
C140  C141  1.387 .      A
C141  C142  1.376 .      A
C142  N26   1.349 .      A
C147  N27   1.406 .      A
C147  N28   1.377 .      A
N27   C148  1.355 .      A
C148  C149  1.375 .      A
C148  C153  1.359 .      A
C149  C150  1.382 .      A
C150  C151  1.388 .      A
C151  C152  1.385 .      A
C152  C153  1.383 .      A
C153  N28   1.355 .      A
C158  N29   1.407 .      A
C158  N30   1.400 .      A
N29   C159  1.366 .      A
C159  C160  1.373 .      A
C159  C164  1.370 .      A
C160  C161  1.372 .      A
C161  C162  1.368 .      A
C162  C163  1.374 .      A
C163  C164  1.386 .      A
C164  N30   1.361 .      A
C169  N31   1.407 .      A
C169  N32   1.397 .      A
N31   C170  1.349 .      A
C170  C171  1.364 .      A
C170  C175  1.364 1_455  A
C171  C172  1.368 1_455  A
C172  C171  1.368 1_655  A
C172  C173  1.375 .      A
C173  C174  1.393 .      A
C174  C175  1.381 .      A
C175  C170  1.364 1_655  A
C175  N32   1.362 1_655  A
N32   C175  1.362 1_455  A
C180  N33   1.389 .      A
C180  N34   1.392 .      A
N33   C181  1.368 1_655  A
C181  N33   1.368 1_455  A
C181  C182  1.382 .      A
C181  C186  1.375 .      A
C182  C183  1.380 .      A
C183  C184  1.384 .      A
C184  C185  1.383 .      A
C185  C186  1.375 .      A
C186  N34   1.347 1_455  A
N34   C186  1.347 1_655  A
C191  N35   1.398 .      A
C191  N36   1.400 .      A
N35   C192  1.340 .      A
C192  C193  1.360 .      A
C192  C197  1.370 .      A
C193  C194  1.380 .      A
C194  C195  1.385 1_455  A
C195  C194  1.385 1_655  A
C195  C196  1.388 .      A
C196  C197  1.379 1_655  A
C197  C196  1.379 1_455  A
C197  N36   1.367 .      A
C202  N37   1.401 .      A
C202  N38   1.367 .      A
N37   C203  1.351 .      A
C203  C204  1.368 .      A
C203  C208  1.358 .      A
C204  C205  1.381 .      A
C205  C206  1.387 .      A
C206  C207  1.386 .      A
C207  C208  1.380 .      A
C208  N38   1.353 .      A
C213  N39   1.394 .      A
C213  N40   1.383 .      A
N39   C214  1.341 .      A
C214  C215  1.368 .      A
C214  C219  1.354 .      A
C215  C216  1.382 .      A
C216  C217  1.388 .      A
C217  C218  1.390 .      A
C218  C219  1.375 .      A
C219  N40   1.357 .      A
C224  N41   1.419 .      A
C224  N42   1.393 .      A
N41   C225  1.348 .      A
C225  C226  1.357 1_554  A
C225  C230  1.374 .      A
C226  C225  1.357 1_556  A
C226  C227  1.378 .      A
C227  C228  1.387 1_556  A
C228  C227  1.387 1_554  A
C228  C229  1.392 .      A
C229  C230  1.377 .      A
C230  N42   1.351 .      A
C235  N43   1.400 .      A
C235  N44   1.396 .      A
N43   C236  1.352 .      A
C236  C237  1.372 .      A
C236  C241  1.357 .      A
C237  C238  1.378 .      A
C238  C239  1.384 .      A
C239  C240  1.387 .      A
C240  C241  1.374 .      A
C241  N44   1.349 .      A
C246  N45   1.397 .      A
C246  N46   1.395 .      A
N45   C247  1.333 .      A
C247  C248  1.342 .      A
C247  C252  1.354 .      A
C248  C249  1.379 .      A
C249  C250  1.384 .      A
C250  C251  1.390 .      A
C251  C252  1.370 .      A
C252  N46   1.351 .      A
C257  N47   1.411 .      A
C257  N48   1.403 .      A
N47   C258  1.342 .      A
C258  C259  1.365 .      A
C258  C263  1.358 .      A
C259  C260  1.373 .      A
C260  C261  1.380 .      A
C261  C262  1.392 .      A
C262  C263  1.371 .      A
C263  N48   1.355 .      A
C268  N49   1.397 .      A
C268  N50   1.384 .      A
N49   C269  1.367 .      A
C269  C270  1.379 .      A
C269  C274  1.372 .      A
C270  C271  1.377 .      A
C271  C272  1.380 .      A
C272  C273  1.384 .      A
C273  C274  1.384 .      A
C274  N50   1.354 .      A
C279  N51   1.412 .      A
C279  N52   1.388 .      A
N51   C280  1.360 .      A
C280  C281  1.376 .      A
C280  C285  1.382 .      A
C281  C282  1.383 .      A
C282  C283  1.392 .      A
C283  C284  1.388 .      A
C284  C285  1.377 .      A
C285  N52   1.351 .      A
C290  N53   1.407 .      A
C290  N54   1.391 .      A
N53   C291  1.338 .      A
C291  C292  1.348 .      A
C291  C296  1.366 .      A
C292  C293  1.372 .      A
C293  C294  1.379 .      A
C294  C295  1.390 .      A
C295  C296  1.380 .      A
C296  N54   1.354 .      A
C301  N55   1.405 .      A
C301  N56   1.377 .      A
N55   C302  1.361 .      A
C302  C303  1.365 .      A
C302  C307  1.350 .      A
C303  C304  1.370 .      A
C304  C305  1.376 .      A
C305  C306  1.387 .      A
C306  C307  1.383 .      A
C307  N56   1.345 .      A
C312  N57   1.405 .      A
C312  N58   1.396 .      A
N57   C313  1.351 .      A
C313  C314  1.366 .      A
C313  C318  1.352 .      A
C314  C315  1.363 .      A
C315  C316  1.365 .      A
C316  C317  1.388 .      A
C317  C318  1.384 .      A
C318  N58   1.349 .      A
C323  N59   1.430 .      A
C323  N60   1.397 .      A
N59   C324  1.369 .      A
C324  C325  1.376 .      A
C324  C329  1.370 .      A
C325  C326  1.379 .      A
C326  C327  1.380 .      A
C327  C328  1.381 .      A
C328  C329  1.374 .      A
C329  N60   1.343 .      A
C334  N61   1.396 .      A
C334  N62   1.383 .      A
N61   C335  1.358 .      A
C335  C336  1.374 .      A
C335  C340  1.371 .      A
C336  C337  1.382 .      A
C337  C338  1.389 .      A
C338  C339  1.387 .      A
C339  C340  1.371 .      A
C340  N62   1.345 .      A
C345  N63   1.406 .      A
C345  N64   1.377 .      A
N63   C346  1.360 .      A
C346  C347  1.371 .      A
C346  C351  1.380 .      A
C347  C348  1.382 .      A
C348  C349  1.389 .      A
C349  C350  1.388 .      A
C350  C351  1.376 .      A
C351  N64   1.349 .      A
C356  N65   1.403 .      A
C356  N66   1.400 .      A
N65   C357  1.347 .      A
C357  C358  1.360 1_554  A
C357  C362  1.373 .      A
C358  C357  1.360 1_556  A
C358  C359  1.378 .      A
C359  C360  1.389 .      A
C360  C361  1.391 1_556  A
C361  C360  1.391 1_554  A
C361  C362  1.380 .      A
C362  N66   1.353 .      A
C367  N67   1.403 .      A
C367  N68   1.399 .      A
N67   C368  1.365 .      A
C368  C369  1.375 .      A
C368  C373  1.370 .      A
C369  C370  1.378 .      A
C370  C371  1.380 .      A
C371  C372  1.381 .      A
C372  C373  1.385 .      A
C373  N68   1.355 .      A
C378  N69   1.383 .      A
C378  N70   1.405 .      A
N69   C379  1.360 .      A
C379  C380  1.377 .      A
C379  C384  1.368 .      A
C380  C381  1.380 .      A
C381  C382  1.389 .      A
C382  C383  1.390 .      A
C383  C384  1.373 .      A
C384  N70   1.345 .      A
C389  N71   1.389 .      A
C389  N72   1.376 1_655  A
N71   C390  1.344 1_655  A
C390  N71   1.344 1_455  A
C390  C391  1.370 .      A
C390  C395  1.360 .      A
C391  C392  1.378 .      A
C392  C393  1.387 .      A
C393  C394  1.387 .      A
C394  C395  1.386 .      A
C395  N72   1.365 .      A
N72   C389  1.376 1_455  A
C400  N73   1.400 .      A
C400  N74   1.413 .      A
N73   C401  1.330 .      A
C401  C402  1.358 1_455  A
C401  C406  1.370 1_455  A
C402  C401  1.358 1_655  A
C402  C403  1.354 .      A
C403  C404  1.369 .      A
C404  C405  1.403 .      A
C405  C406  1.384 .      A
C406  C401  1.370 1_655  A
C406  N74   1.378 1_655  A
N74   C406  1.378 1_455  A
C411  N75   1.381 .      A
C411  N76   1.384 .      A
N75   C412  1.342 .      A
C412  C413  1.357 .      A
C412  C417  1.362 .      A
C413  C414  1.372 .      A
C414  C415  1.375 .      A
C415  C416  1.388 .      A
C416  C417  1.384 .      A
C417  N76   1.354 .      A
C422  N77   1.386 .      A
C422  N78   1.404 .      A
N77   C423  1.354 .      A
C423  C424  1.369 .      A
C423  C428  1.359 .      A
C424  C425  1.388 .      A
C425  C426  1.390 .      A
C426  C427  1.377 .      A
C427  C428  1.365 .      A
C428  N78   1.334 .      A
C433  N79   1.386 .      A
C433  N80   1.391 .      A
N79   C434  1.332 .      A
C434  C435  1.353 .      A
C434  C439  1.353 .      A
C435  C436  1.361 1_565  A
C436  C435  1.361 1_545  A
C436  C437  1.373 .      A
C437  C438  1.372 .      A
C438  C439  1.363 1_545  A
C439  C438  1.363 1_565  A
C439  N80   1.346 .      A
C444  N81   1.404 .      A
C444  N82   1.403 .      A
N81   C445  1.349 .      A
C445  C446  1.371 .      A
C445  C450  1.357 .      A
C446  C447  1.377 .      A
C447  C448  1.383 .      A
C448  C449  1.389 .      A
C449  C450  1.366 .      A
C450  N82   1.350 .      A
C455  N83   1.389 1_455  A
C455  N84   1.381 .      A
N83   C455  1.389 1_655  A
N83   C456  1.353 .      A
C456  C457  1.374 .      A
C456  C461  1.381 1_655  A
C457  C458  1.384 .      A
C458  C459  1.390 1_655  A
C459  C458  1.390 1_455  A
C459  C460  1.384 .      A
C460  C461  1.368 .      A
C461  C456  1.381 1_455  A
C461  N84   1.352 .      A
C466  N85   1.416 .      A
C466  N86   1.380 .      A
N85   C467  1.356 .      A
C467  C468  1.361 .      A
C467  C472  1.348 .      A
C468  C469  1.379 1_455  A
C469  C468  1.379 1_655  A
C469  C470  1.385 1_655  A
C470  C469  1.385 1_455  A
C470  C471  1.384 .      A
C471  C472  1.381 .      A
C472  N86   1.340 .      A
C477  N87   1.397 .      A
C477  N88   1.382 .      A
N87   C478  1.369 .      A
C478  C479  1.380 .      A
C478  C483  1.353 .      A
C479  C480  1.383 .      A
C480  C481  1.382 .      A
C481  C482  1.365 .      A
C482  C483  1.363 .      A
C483  N88   1.324 .      A
C488  N89   1.386 .      A
C488  N90   1.375 .      A
N89   C489  1.356 .      A
C489  C490  1.351 .      A
C489  C494  1.364 .      A
C490  C491  1.387 .      A
C491  C492  1.391 .      A
C492  C493  1.384 .      A
C493  C494  1.371 .      A
C494  N90   1.340 .      A
C499  N91   1.387 .      A
C499  N92   1.378 .      A
N91   C500  1.368 .      A
C500  C501  1.389 .      A
C500  C505  1.343 .      A
C501  C502  1.377 .      A
C502  C503  1.381 .      A
C503  C504  1.381 .      A
C504  C505  1.364 .      A
C505  N92   1.326 .      A
C510  N93   1.395 .      A
C510  N94   1.395 .      A
N93   C511  1.345 .      A
C511  C512  1.381 .      A
C511  C516  1.359 .      A
C512  C513  1.375 .      A
C513  C514  1.384 .      A
C514  C515  1.388 .      A
C515  C516  1.384 .      A
C516  N94   1.358 .      A
C521  N95   1.391 .      A
C521  N96   1.373 .      A
N95   C522  1.329 .      A
C522  C523  1.358 .      A
C522  C527  1.356 .      A
C523  C524  1.379 .      A
C524  C525  1.386 .      A
C525  C526  1.389 .      A
C526  C527  1.384 .      A
C527  N96   1.372 .      A
C532  N97   1.394 .      A
C532  N98   1.386 .      A
N97   C533  1.324 .      A
C533  C534  1.351 .      A
C533  C538  1.343 .      A
C534  C535  1.351 .      A
C535  C536  1.359 .      A
C536  C537  1.391 .      A
C537  C538  1.374 .      A
C538  N98   1.358 .      A
C543  N99   1.396 .      A
C543  N100  1.395 .      A
N99   C544  1.354 .      A
C544  C545  1.375 .      A
C544  C549  1.370 .      A
C545  C546  1.384 .      A
C546  C547  1.392 .      A
C547  C548  1.388 .      A
C548  C549  1.376 .      A
C549  N100  1.353 .      A
C554  N101  1.393 .      A
C554  N102  1.384 .      A
N101  C555  1.326 .      A
C555  C556  1.352 .      A
C555  C560  1.356 .      A
C556  C557  1.356 .      A
C557  C558  1.363 .      A
C558  C559  1.391 .      A
C559  C560  1.391 .      A
C560  N102  1.371 .      A
C565  N103  1.390 .      A
C565  N104  1.413 .      A
N103  C566  1.352 .      A
C566  C567  1.367 .      A
C566  C571  1.374 .      A
C567  C568  1.377 .      A
C568  C569  1.380 .      A
C569  C570  1.377 .      A
C570  C571  1.364 .      A
C571  N104  1.343 .      A
C576  N105  1.421 .      A
C576  N106  1.403 .      A
N105  C577  1.361 .      A
C577  C578  1.372 .      A
C577  C582  1.377 .      A
C578  C579  1.383 .      A
C579  C580  1.387 .      A
C580  C581  1.384 .      A
C581  C582  1.374 .      A
C582  N106  1.346 .      A
C587  N107  1.390 .      A
C587  N108  1.378 .      A
N107  C588  1.347 .      A
C588  C589  1.373 .      A
C588  C593  1.359 .      A
C589  C590  1.382 .      A
C590  C591  1.391 .      A
C591  C592  1.387 .      A
C592  C593  1.378 .      A
C593  N108  1.357 .      A
C598  N109  1.404 .      A
C598  N110  1.400 .      A
N109  C599  1.339 .      A
C599  C600  1.357 .      A
C599  C604  1.341 .      A
C600  C601  1.368 .      A
C601  C602  1.372 .      A
C602  C603  1.391 .      A
C603  C604  1.367 .      A
C604  N110  1.346 .      A
C609  N111  1.393 .      A
C609  N112  1.386 .      A
N111  C610  1.341 .      A
C610  C611  1.360 .      A
C610  C615  1.356 .      A
C611  C612  1.382 .      A
C612  C613  1.384 .      A
C613  C614  1.384 .      A
C614  C615  1.373 .      A
C615  N112  1.348 .      A
C620  N113  1.404 .      A
C620  N114  1.396 .      A
N113  C621  1.348 .      A
C621  C622  1.367 .      A
C621  C626  1.346 .      A
C622  C623  1.382 .      A
C623  C624  1.375 .      A
C624  C625  1.362 .      A
C625  C626  1.360 .      A
C626  N114  1.333 .      A
C631  N115  1.415 .      A
C631  N116  1.399 .      A
N115  C632  1.372 .      A
C632  C633  1.379 1_556  A
C632  C637  1.376 .      A
C633  C632  1.379 1_554  A
C633  C634  1.381 1_455  A
C634  C633  1.381 1_655  A
C634  C635  1.385 .      A
C635  C636  1.385 1_655  A
C636  C635  1.385 1_455  A
C636  C637  1.380 1_554  A
C637  C636  1.380 1_556  A
C637  N116  1.344 .      A
C642  N117  1.411 .      A
C642  N118  1.363 .      A
N117  C643  1.354 .      A
C643  C644  1.361 .      A
C643  C648  1.349 .      A
C644  C645  1.388 .      A
C645  C646  1.388 1_554  A
C646  C645  1.388 1_556  A
C646  C647  1.382 .      A
C647  C648  1.367 1_556  A
C648  C647  1.367 1_554  A
C648  N118  1.332 .      A
C653  N119  1.425 .      A
C653  N120  1.401 .      A
N119  C654  1.357 1_455  A
C654  N119  1.357 1_655  A
C654  C655  1.361 .      A
C654  C659  1.361 .      A
C655  C656  1.381 .      A
C656  C657  1.385 .      A
C657  C658  1.384 .      A
C658  C659  1.376 .      A
C659  N120  1.338 1_655  A
N120  C659  1.338 1_455  A
C664  N121  1.383 .      A
C664  N122  1.399 .      A
N121  C665  1.349 .      A
C665  C666  1.360 .      A
C665  C670  1.363 .      A
C666  C667  1.374 .      A
C667  C668  1.382 .      A
C668  C669  1.389 .      A
C669  C670  1.377 .      A
C670  N122  1.348 .      A
C675  N123  1.383 .      A
C675  N124  1.402 .      A
N123  C676  1.353 .      A
C676  C677  1.375 .      A
C676  C681  1.359 .      A
C677  C678  1.376 .      A
C678  C679  1.380 .      A
C679  C680  1.387 .      A
C680  C681  1.381 .      A
C681  N124  1.353 .      A
C686  N125  1.427 .      A
C686  N126  1.424 .      A
N125  C687  1.346 .      A
C687  C688  1.361 .      A
C687  C692  1.368 .      A
C688  C689  1.375 .      A
C689  C690  1.380 .      A
C690  C691  1.387 .      A
C691  C692  1.376 .      A
C692  N126  1.360 .      A
C697  N127  1.367 .      A
C697  N128  1.371 .      A
N127  C698  1.350 .      A
C698  C699  1.364 .      A
C698  C703  1.371 .      A
C699  C700  1.366 .      A
C700  C701  1.367 .      A
C701  C702  1.379 .      A
C702  C703  1.388 .      A
C703  N128  1.366 .      A
C11   O1    1.215 .      D
C22   O3    1.214 .      D
C33   O5    1.216 .      D
C44   O7    1.219 .      D
C55   O9    1.219 .      D
C66   O11   1.219 .      D
C77   O13   1.219 1_655  D
O13   C77   1.219 1_455  D
C88   O15   1.218 .      D
C99   O17   1.213 1_655  D
O17   C99   1.213 1_455  D
C110  O19   1.219 .      D
C121  O21   1.219 .      D
C132  O23   1.219 .      D
C143  O25   1.219 .      D
C154  O27   1.219 .      D
C165  O29   1.216 .      D
C176  O31   1.219 1_565  D
O31   C176  1.219 1_545  D
C187  O33   1.219 .      D
C198  O35   1.219 .      D
C209  O37   1.219 .      D
C220  O39   1.219 .      D
C231  O41   1.219 1_554  D
O41   C231  1.219 1_556  D
C242  O43   1.219 .      D
C253  O45   1.219 .      D
C264  O47   1.219 .      D
C275  O49   1.219 .      D
C286  O51   1.219 .      D
C297  O53   1.218 .      D
C308  O55   1.219 1_655  D
O55   C308  1.219 1_455  D
C319  O57   1.219 .      D
C330  O59   1.219 .      D
C341  O61   1.219 1_565  D
O61   C341  1.219 1_545  D
C352  O63   1.219 1_545  D
O63   C352  1.219 1_565  D
C363  O65   1.219 .      D
C374  O67   1.219 .      D
C385  O69   1.219 .      D
C396  O71   1.219 .      D
C407  O73   1.219 .      D
C418  O75   1.217 .      D
C429  O77   1.219 .      D
C440  O79   1.216 .      D
C451  O81   1.219 .      D
C462  O83   1.219 1_455  D
O83   C462  1.219 1_655  D
C473  O85   1.219 1_455  D
O85   C473  1.219 1_655  D
C484  O87   1.217 .      D
C495  O89   1.219 .      D
C506  O91   1.215 .      D
C517  O93   1.219 .      D
C528  O95   1.219 .      D
C539  O97   1.217 .      D
C550  O99   1.219 .      D
C561  O101  1.219 .      D
C572  O103  1.216 .      D
C583  O105  1.219 1_565  D
O105  C583  1.219 1_545  D
C594  O107  1.219 1_655  D
O107  C594  1.219 1_455  D
C605  O109  1.219 .      D
C616  O111  1.219 .      D
C627  O113  1.217 .      D
C638  O115  1.219 .      D
C649  O117  1.219 .      D
C660  O119  1.219 .      D
C671  O121  1.218 .      D
C682  O123  1.219 .      D
C693  O125  1.219 .      D
C704  O127  1.218 .      D
