data_str_m1_o12271_ITH
_audit_creation_date              2015-10-01T06:28:06-0700
_symmetry_space_group_name_H-M    P1
_symmetry_Int_Tables_number       1
_space_group_crystal_system       triclinic
loop_
_symmetry_equiv_pos_as_xyz
  x,y,z
_cell_length_a                    24.7939905
_cell_length_b                    27.7223043
_cell_length_c                    26.6715460
_cell_angle_alpha                 94.3783042
_cell_angle_beta                  65.6719032
_cell_angle_gamma                 93.0756931
_cell_volume                      16650.9616682

loop_
_atom_site_label
_atom_site_type_symbol
_atom_site_description
_atom_site_fract_x
_atom_site_fract_y
_atom_site_fract_z
_atom_type_partial_charge
Zn1   Zn    Zn3+2 0.643029 0.647742 0.644118 0.000000
Zn2   Zn    Zn3+2 0.851263 0.385874 0.969993 0.000000
Zn3   Zn    Zn3+2 0.328413 0.504885 0.570250 0.000000
Zn4   Zn    Zn3+2 0.374077 0.330961 0.705985 0.000000
Zn5   Zn    Zn3+2 0.872304 0.329414 0.714122 0.000000
Zn6   Zn    Zn3+2 0.142808 0.388699 0.957424 0.000000
Zn7   Zn    Zn3+2 0.806113 0.392885 0.346526 0.000000
Zn8   Zn    Zn3+2 0.058831 0.516307 0.582350 0.000000
Zn9   Zn    Zn3+2 0.663745 0.401356 0.629913 0.000000
Zn10  Zn    Zn3+2 0.172655 0.894708 0.321951 0.000000
Zn11  Zn    Zn3+2 0.180112 0.119442 0.309833 0.000000
Zn12  Zn    Zn3+2 0.437586 0.883672 0.325483 0.000000
Zn13  Zn    Zn3+2 0.090597 0.696919 0.226468 0.000000
Zn14  Zn    Zn3+2 0.018325 0.906433 0.610788 0.000000
Zn15  Zn    Zn3+2 0.444553 0.121081 0.319386 0.000000
Zn16  Zn    Zn3+2 0.635590 0.696377 0.217478 0.000000
Zn17  Zn    Zn3+2 0.044475 0.126693 0.594519 0.000000
Zn18  Zn    Zn3+2 0.292442 0.896275 0.605624 0.000000
Zn19  Zn    Zn3+2 0.865509 0.704903 0.724000 0.000000
Zn20  Zn    Zn3+2 0.099671 0.321747 0.214398 0.000000
Zn21  Zn    Zn3+2 0.125834 0.630061 0.972064 0.000000
Zn22  Zn    Zn3+2 0.207067 0.517116 0.304575 0.000000
Zn23  Zn    Zn3+2 0.844368 0.634497 0.974159 0.000000
Zn24  Zn    Zn3+2 0.792461 0.639230 0.359186 0.000000
Zn25  Zn    Zn3+2 0.640669 0.311960 0.215259 0.000000
Zn26  Zn    Zn3+2 0.467679 0.499095 0.289323 0.000000
Zn27  Zn    Zn3+2 0.344875 0.703501 0.730882 0.000000
Zn28  Zn    Zn3+2 0.312254 0.123560 0.597824 0.000000
Br1   Br    Br    0.775062 0.473147 0.543299 0.000000
C1    C     C_R   0.787252 0.514310 0.594082 0.000000
C2    C     C_R   0.839559 0.515282 0.599337 0.000000
C3    C     C_R   0.844532 0.540715 0.643138 0.000000
C4    C     C_R   0.799820 0.570732 0.676091 0.000000
C5    C     C_R   0.747446 0.569815 0.669941 0.000000
C6    C     C_R   0.740959 0.540565 0.628596 0.000000
C7    C     C_R   0.682184 0.529506 0.630260 0.000000
N1    N     N_R   0.643909 0.568562 0.652428 0.000000
C8    C     C_R   0.603656 0.549413 0.698080 0.000000
C9    C     C_R   0.567081 0.574777 0.744653 0.000000
C10   C     C_R   0.536217 0.549482 0.791245 0.000000
C11   C     C_R   0.537920 0.499696 0.788913 0.000000
C12   C     C_R   0.575751 0.474774 0.741837 0.000000
C13   C     C_R   0.611752 0.500850 0.698260 0.000000
N2    N     N_R   0.657630 0.484399 0.651989 0.000000
H1    H     H_    0.876624 0.495882 0.569104 0.000000
H2    H     H_    0.884798 0.539739 0.649251 0.000000
H3    H     H_    0.805063 0.592815 0.708761 0.000000
H4    H     H_    0.710510 0.588479 0.701079 0.000000
H5    H     H_    0.567057 0.613671 0.746321 0.000000
H6    H     H_    0.510996 0.568223 0.830293 0.000000
H7    H     H_    0.512609 0.480951 0.825529 0.000000
H8    H     H_    0.578330 0.436249 0.740090 0.000000
Br2   Br    Br    0.279575 0.324265 0.624375 0.000000
C14   C     C_R   0.244094 0.375312 0.680614 0.000000
C15   C     C_R   0.184654 0.375992 0.711399 0.000000
C16   C     C_R   0.164704 0.403675 0.759950 0.000000
C17   C     C_R   0.200666 0.438777 0.770095 0.000000
C18   C     C_R   0.256915 0.444823 0.732436 0.000000
C19   C     C_R   0.277351 0.413716 0.688111 0.000000
C20   C     C_R   0.336531 0.417781 0.651043 0.000000
N3    N     N_R   0.371146 0.379239 0.646285 0.000000
C21   C     C_R   0.411341 0.382539 0.594198 0.000000
C22   C     C_R   0.430126 0.343851 0.556444 0.000000
C23   C     C_R   0.461235 0.353200 0.501818 0.000000
C24   C     C_R   0.471253 0.400162 0.485999 0.000000
C25   C     C_R   0.444502 0.437757 0.522917 0.000000
C26   C     C_R   0.407775 0.426012 0.574646 0.000000
N4    N     N_R   0.356604 0.447482 0.606415 0.000000
H9    H     H_    0.155667 0.349847 0.702359 0.000000
H10   H     H_    0.120954 0.396702 0.789900 0.000000
H11   H     H_    0.185125 0.463113 0.805544 0.000000
H12   H     H_    0.285937 0.473574 0.735898 0.000000
H13   H     H_    0.416154 0.307667 0.567509 0.000000
H14   H     H_    0.476232 0.324254 0.470666 0.000000
H15   H     H_    0.489518 0.406077 0.443211 0.000000
H16   H     H_    0.448401 0.474021 0.510344 0.000000
Br3   Br    Br    0.439379 0.275135 0.783961 0.000000
C27   C     C_R   0.502969 0.253721 0.717460 0.000000
C28   C     C_R   0.515881 0.205215 0.710347 0.000000
C29   C     C_R   0.563989 0.188024 0.665082 0.000000
C30   C     C_R   0.599565 0.219505 0.626849 0.000000
C31   C     C_R   0.585459 0.267726 0.632715 0.000000
C32   C     C_R   0.537589 0.285414 0.678079 0.000000
C33   C     C_R   0.523169 0.336822 0.681904 0.000000
N5    N     N_R   0.464162 0.351109 0.698134 0.000000
C34   C     C_R   0.472459 0.398526 0.692350 0.000000
C35   C     C_R   0.429316 0.431421 0.703817 0.000000
C36   C     C_R   0.446000 0.476565 0.683565 0.000000
C37   C     C_R   0.505045 0.487542 0.654327 0.000000
C38   C     C_R   0.546829 0.453565 0.644044 0.000000
C39   C     C_R   0.530742 0.410861 0.667680 0.000000
N6    N     N_R   0.566874 0.374351 0.662283 0.000000
H17   H     H_    0.488683 0.180711 0.741068 0.000000
H18   H     H_    0.574140 0.150054 0.659923 0.000000
H19   H     H_    0.636991 0.206061 0.590961 0.000000
H20   H     H_    0.610430 0.291487 0.600480 0.000000
H21   H     H_    0.383395 0.421777 0.726947 0.000000
H22   H     H_    0.413035 0.502308 0.688032 0.000000
H23   H     H_    0.519765 0.522096 0.637972 0.000000
H24   H     H_    0.590931 0.459471 0.615150 0.000000
Br4   Br    Br    0.851882 0.479250 0.841185 0.000000
C40   C     C_R   0.782043 0.442365 0.859304 0.000000
C41   C     C_R   0.728749 0.464174 0.873941 0.000000
C42   C     C_R   0.677580 0.436481 0.886531 0.000000
C43   C     C_R   0.679595 0.387103 0.886980 0.000000
C44   C     C_R   0.732963 0.365604 0.872598 0.000000
C45   C     C_R   0.784617 0.393365 0.858505 0.000000
C46   C     C_R   0.839734 0.368944 0.846089 0.000000
N7    N     N_R   0.851673 0.332972 0.803314 0.000000
C47   C     C_R   0.847852 0.293198 0.830590 0.000000
C48   C     C_R   0.835445 0.247057 0.815774 0.000000
C49   C     C_R   0.822565 0.212012 0.853599 0.000000
C50   C     C_R   0.825920 0.223011 0.903771 0.000000
C51   C     C_R   0.836144 0.270221 0.918960 0.000000
C52   C     C_R   0.844195 0.305105 0.882688 0.000000
N8    N     N_R   0.845167 0.353507 0.892871 0.000000
H25   H     H_    0.726955 0.503103 0.876429 0.000000
H26   H     H_    0.635609 0.453674 0.898470 0.000000
H27   H     H_    0.639333 0.365245 0.898834 0.000000
H28   H     H_    0.733565 0.326785 0.873640 0.000000
H29   H     H_    0.834478 0.238241 0.776328 0.000000
H30   H     H_    0.812003 0.175345 0.843097 0.000000
H31   H     H_    0.817789 0.194947 0.932202 0.000000
H32   H     H_    0.834557 0.279511 0.959193 0.000000
Br5   Br    Br    0.630689 0.387131 0.789418 0.000000
C53   C     C_R   0.692586 0.435069 0.760028 0.000000
C54   C     C_R   0.681174 0.481429 0.781921 0.000000
C55   C     C_R   0.727379 0.513035 0.774307 0.000000
C56   C     C_R   0.784043 0.496777 0.754756 0.000000
C57   C     C_R   0.795784 0.451311 0.730146 0.000000
C58   C     C_R   0.750393 0.423308 0.725890 0.000000
C59   C     C_R   0.761262 0.379786 0.689789 0.000000
N9    N     N_R   0.791690 0.341977 0.698577 0.000000
C60   C     C_R   0.755891 0.304415 0.696785 0.000000
C61   C     C_R   0.756511 0.259133 0.713837 0.000000
C62   C     C_R   0.707638 0.229061 0.723395 0.000000
C63   C     C_R   0.658537 0.246230 0.718923 0.000000
C64   C     C_R   0.660577 0.291199 0.698814 0.000000
C65   C     C_R   0.711606 0.318243 0.682953 0.000000
N10   N     N_R   0.717056 0.365455 0.671125 0.000000
H33   H     H_    0.636746 0.492530 0.807622 0.000000
H34   H     H_    0.718779 0.549973 0.786092 0.000000
H35   H     H_    0.819637 0.520874 0.754993 0.000000
H36   H     H_    0.840529 0.439523 0.711805 0.000000
H37   H     H_    0.792870 0.248113 0.721754 0.000000
H38   H     H_    0.705751 0.193841 0.738939 0.000000
H39   H     H_    0.617777 0.225142 0.733579 0.000000
H40   H     H_    0.621486 0.308425 0.703010 0.000000
Br6   Br    Br    0.008193 0.325654 0.580482 0.000000
C66   C     C_R   0.953117 0.355897 0.563564 0.000000
C67   C     C_R   0.934997 0.334329 0.524910 0.000000
C68   C     C_R   0.885271 0.349612 0.522107 0.000000
C69   C     C_R   0.852609 0.384067 0.560259 0.000000
C70   C     C_R   0.874449 0.408398 0.594913 0.000000
C71   C     C_R   0.927573 0.397079 0.593880 0.000000
C72   C     C_R   0.947848 0.416920 0.635737 0.000000
N11   N     N_R   0.932364 0.388170 0.680087 0.000000
C73   C     C_R   0.972612 0.401587 0.699224 0.000000
C74   C     C_R   0.985471 0.376272 0.734619 0.000000
C75   C     C_R   0.033459 0.391644 0.744802 0.000000
C76   C     C_R   0.064446 0.433323 0.722168 0.000000
C77   C     C_R   0.051051 0.457746 0.686227 0.000000
C78   C     C_R   0.007195 0.439428 0.671780 0.000000
N12   N     N_R   0.994774 0.452066 0.629460 0.000000
H41   H     H_    0.956649 0.302817 0.499974 0.000000
H42   H     H_    0.869503 0.331075 0.493967 0.000000
H43   H     H_    0.808670 0.390347 0.564921 0.000000
H44   H     H_    0.847995 0.434039 0.625356 0.000000
H45   H     H_    0.961697 0.343440 0.751036 0.000000
H46   H     H_    0.044670 0.372020 0.772345 0.000000
H47   H     H_    0.097764 0.448924 0.734122 0.000000
H48   H     H_    0.071431 0.492420 0.674034 0.000000
Br7   Br    Br    0.972411 0.306215 0.868450 0.000000
C79   C     C_R   0.974058 0.277263 0.930348 0.000000
C80   C     C_R   0.967415 0.227850 0.932012 0.000000
C81   C     C_R   0.001240 0.203263 0.950716 0.000000
C82   C     C_R   0.037934 0.229235 0.970272 0.000000
C83   C     C_R   0.031702 0.278544 0.981717 0.000000
C84   C     C_R   0.996810 0.302983 0.964067 0.000000
C85   C     C_R   0.995242 0.356105 0.969070 0.000000
N13   N     N_R   0.050492 0.381661 0.951971 0.000000
C86   C     C_R   0.040017 0.414074 0.922428 0.000000
C87   C     C_R   0.080627 0.444160 0.888130 0.000000
C88   C     C_R   0.064276 0.466414 0.852386 0.000000
C89   C     C_R   0.008974 0.457085 0.852295 0.000000
C90   C     C_R   0.966392 0.431871 0.891714 0.000000
C91   C     C_R   0.982180 0.412419 0.928143 0.000000
N14   N     N_R   0.948889 0.379490 0.961873 0.000000
H49   H     H_    0.941952 0.208237 0.912396 0.000000
H50   H     H_    0.002904 0.164245 0.945541 0.000000
H51   H     H_    0.071122 0.210662 0.976906 0.000000
H52   H     H_    0.058273 0.298750 0.999676 0.000000
H53   H     H_    0.124588 0.446838 0.886504 0.000000
H54   H     H_    0.095401 0.489399 0.822605 0.000000
H55   H     H_    0.996908 0.470642 0.822844 0.000000
H56   H     H_    0.923375 0.425261 0.891378 0.000000
Br8   Br    Br    0.265732 0.281059 0.927462 0.000000
C92   C     C_R   0.326632 0.329760 0.906777 0.000000
C93   C     C_R   0.369349 0.329075 0.927193 0.000000
C94   C     C_R   0.417982 0.359772 0.908031 0.000000
C95   C     C_R   0.424250 0.390471 0.867731 0.000000
C96   C     C_R   0.380993 0.392029 0.848037 0.000000
C97   C     C_R   0.330982 0.362696 0.868642 0.000000
C98   C     C_R   0.285399 0.362781 0.846821 0.000000
N15   N     N_R   0.298558 0.345085 0.792086 0.000000
C99   C     C_R   0.242932 0.331332 0.799356 0.000000
C100  C     C_R   0.225203 0.307499 0.763790 0.000000
C101  C     C_R   0.164995 0.297426 0.780811 0.000000
C102  C     C_R   0.127524 0.298852 0.835106 0.000000
C103  C     C_R   0.147176 0.321099 0.871266 0.000000
C104  C     C_R   0.201658 0.341769 0.850797 0.000000
N16   N     N_R   0.223851 0.365475 0.882162 0.000000
H57   H     H_    0.365517 0.303356 0.957041 0.000000
H58   H     H_    0.452079 0.358697 0.923264 0.000000
H59   H     H_    0.463560 0.412877 0.851219 0.000000
H60   H     H_    0.386124 0.416585 0.816948 0.000000
H61   H     H_    0.257675 0.299703 0.723553 0.000000
H62   H     H_    0.146642 0.287067 0.751969 0.000000
H63   H     H_    0.084596 0.281928 0.848358 0.000000
H64   H     H_    0.123151 0.320374 0.914537 0.000000
Br9   Br    Br    0.660141 0.485296 0.511672 0.000000
C105  C     C_R   0.626311 0.427670 0.500064 0.000000
C106  C     C_R   0.568983 0.416472 0.530682 0.000000
C107  C     C_R   0.555124 0.369127 0.541292 0.000000
C108  C     C_R   0.588523 0.334175 0.504733 0.000000
C109  C     C_R   0.644228 0.346065 0.469224 0.000000
C110  C     C_R   0.664392 0.392335 0.475107 0.000000
C111  C     C_R   0.717668 0.396260 0.482668 0.000000
N17   N     N_R   0.764046 0.374966 0.437613 0.000000
C112  C     C_R   0.776559 0.339097 0.462807 0.000000
C113  C     C_R   0.809032 0.298795 0.438488 0.000000
C114  C     C_R   0.797796 0.258171 0.468590 0.000000
C115  C     C_R   0.758605 0.260036 0.523490 0.000000
C116  C     C_R   0.734547 0.303374 0.549733 0.000000
C117  C     C_R   0.743541 0.342476 0.518953 0.000000
N18   N     N_R   0.710543 0.382234 0.535264 0.000000
H65   H     H_    0.538459 0.444395 0.553085 0.000000
H66   H     H_    0.517134 0.359706 0.576772 0.000000
H67   H     H_    0.573203 0.297681 0.506801 0.000000
H68   H     H_    0.673925 0.317130 0.447221 0.000000
H69   H     H_    0.841506 0.298171 0.397000 0.000000
H70   H     H_    0.819301 0.224649 0.449297 0.000000
H71   H     H_    0.748842 0.227868 0.546500 0.000000
H72   H     H_    0.703238 0.304873 0.591528 0.000000
Br10  Br    Br    0.134894 0.612907 0.660298 0.000000
C118  C     C_R   0.205174 0.615244 0.598167 0.000000
C119  C     C_R   0.242833 0.654293 0.587835 0.000000
C120  C     C_R   0.291154 0.655025 0.539102 0.000000
C121  C     C_R   0.297973 0.619355 0.499157 0.000000
C122  C     C_R   0.267601 0.577210 0.513897 0.000000
C123  C     C_R   0.219994 0.575742 0.563012 0.000000
C124  C     C_R   0.196439 0.529613 0.581603 0.000000
N19   N     N_R   0.236412 0.496894 0.580991 0.000000
C125  C     C_R   0.204351 0.456126 0.585703 0.000000
C126  C     C_R   0.218562 0.413198 0.593400 0.000000
C127  C     C_R   0.184469 0.373417 0.589993 0.000000
C128  C     C_R   0.137223 0.379092 0.578124 0.000000
C129  C     C_R   0.122341 0.424101 0.571239 0.000000
C130  C     C_R   0.153021 0.462677 0.582264 0.000000
N20   N     N_R   0.141994 0.509662 0.585166 0.000000
H73   H     H_    0.235180 0.684225 0.616656 0.000000
H74   H     H_    0.320510 0.685985 0.529633 0.000000
H75   H     H_    0.331157 0.622611 0.458132 0.000000
H76   H     H_    0.281792 0.545519 0.487539 0.000000
H77   H     H_    0.256979 0.413649 0.600578 0.000000
H78   H     H_    0.194224 0.337115 0.593876 0.000000
H79   H     H_    0.112729 0.347473 0.575528 0.000000
H80   H     H_    0.087275 0.428208 0.559101 0.000000
Br11  Br    Br    0.330522 0.058870 0.190867 0.000000
C131  C     C_R   0.274892 0.030002 0.167932 0.000000
C132  C     C_R   0.288646 0.032461 0.112506 0.000000
C133  C     C_R   0.263498 0.000512 0.086255 0.000000
C134  C     C_R   0.226237 0.964784 0.115432 0.000000
C135  C     C_R   0.211552 0.962891 0.170985 0.000000
C136  C     C_R   0.233786 0.996852 0.199897 0.000000
C137  C     C_R   0.204200 0.003298 0.262364 0.000000
N21   N     N_R   0.168778 0.962517 0.283550 0.000000
C138  C     C_R   0.117940 0.976895 0.282237 0.000000
C139  C     C_R   0.076362 0.948769 0.271129 0.000000
C140  C     C_R   0.028696 0.971051 0.269363 0.000000
C141  C     C_R   0.023056 0.020685 0.279507 0.000000
C142  C     C_R   0.067846 0.048605 0.286142 0.000000
C143  C     C_R   0.118658 0.026018 0.279763 0.000000
N22   N     N_R   0.170813 0.045413 0.277741 0.000000
H81   H     H_    0.322517 0.057885 0.088813 0.000000
H82   H     H_    0.275219 0.001960 0.042613 0.000000
H83   H     H_    0.207285 0.938336 0.095043 0.000000
H84   H     H_    0.180801 0.934278 0.190190 0.000000
H85   H     H_    0.081884 0.910423 0.262510 0.000000
H86   H     H_    0.994723 0.949531 0.262029 0.000000
H87   H     H_    0.983644 0.037652 0.282169 0.000000
H88   H     H_    0.061713 0.086605 0.298035 0.000000
Br12  Br    Br    0.358440 0.787212 0.191361 0.000000
C144  C     C_R   0.371513 0.854784 0.179636 0.000000
C145  C     C_R   0.398090 0.862537 0.124141 0.000000
C146  C     C_R   0.400624 0.907193 0.105519 0.000000
C147  C     C_R   0.373200 0.943969 0.142631 0.000000
C148  C     C_R   0.348905 0.937676 0.198828 0.000000
C149  C     C_R   0.351351 0.894223 0.219239 0.000000
C150  C     C_R   0.324375 0.889982 0.280733 0.000000
N23   N     N_R   0.266018 0.870935 0.300241 0.000000
C151  C     C_R   0.276012 0.826027 0.310677 0.000000
C152  C     C_R   0.241592 0.784656 0.313965 0.000000
C153  C     C_R   0.263966 0.741340 0.318761 0.000000
C154  C     C_R   0.317953 0.740685 0.323010 0.000000
C155  C     C_R   0.352658 0.782157 0.318547 0.000000
C156  C     C_R   0.330778 0.824447 0.312608 0.000000
N24   N     N_R   0.360147 0.867312 0.301447 0.000000
H89   H     H_    0.412866 0.831998 0.094513 0.000000
H90   H     H_    0.420008 0.912565 0.061841 0.000000
H91   H     H_    0.373712 0.978113 0.126271 0.000000
H92   H     H_    0.326845 0.966571 0.227271 0.000000
H93   H     H_    0.198498 0.785215 0.313746 0.000000
H94   H     H_    0.237911 0.708265 0.322445 0.000000
H95   H     H_    0.331684 0.708071 0.332974 0.000000
H96   H     H_    0.396139 0.780834 0.318082 0.000000
Br13  Br    Br    0.051867 0.799270 0.408410 0.000000
C157  C     C_R   0.008762 0.812506 0.367443 0.000000
C158  C     C_R   0.950064 0.824511 0.392944 0.000000
C159  C     C_R   0.921715 0.840185 0.362331 0.000000
C160  C     C_R   0.952718 0.845167 0.306892 0.000000
C161  C     C_R   0.011084 0.832413 0.281758 0.000000
C162  C     C_R   0.038595 0.814910 0.311868 0.000000
C163  C     C_R   0.100891 0.803516 0.284242 0.000000
N25   N     N_R   0.144420 0.838811 0.279407 0.000000
C164  C     C_R   0.186179 0.826216 0.229447 0.000000
C165  C     C_R   0.232932 0.854228 0.198006 0.000000
C166  C     C_R   0.265004 0.837962 0.144044 0.000000
C167  C     C_R   0.256806 0.791188 0.126208 0.000000
C168  C     C_R   0.209146 0.763449 0.158725 0.000000
C169  C     C_R   0.172259 0.783496 0.208791 0.000000
N26   N     N_R   0.118837 0.766896 0.242619 0.000000
H97   H     H_    0.927505 0.823942 0.437205 0.000000
H98   H     H_    0.876519 0.851851 0.381885 0.000000
H99   H     H_    0.931478 0.859644 0.283318 0.000000
H100  H     H_    0.035962 0.837264 0.238296 0.000000
H101  H     H_    0.241341 0.889363 0.213621 0.000000
H102  H     H_    0.297460 0.861312 0.115736 0.000000
H103  H     H_    0.286401 0.777397 0.085774 0.000000
H104  H     H_    0.200150 0.728283 0.143941 0.000000
Br14  Br    Br    0.252820 0.890367 0.412245 0.000000
C170  C     C_R   0.192362 0.843806 0.439170 0.000000
C171  C     C_R   0.206960 0.797008 0.434627 0.000000
C172  C     C_R   0.170697 0.766288 0.471525 0.000000
C173  C     C_R   0.136245 0.786447 0.521851 0.000000
C174  C     C_R   0.115148 0.830697 0.524718 0.000000
C175  C     C_R   0.140261 0.857327 0.479454 0.000000
C176  C     C_R   0.104614 0.890997 0.470401 0.000000
N27   N     N_R   0.050758 0.902699 0.514881 0.000000
C177  C     C_R   0.021387 0.918839 0.487181 0.000000
C178  C     C_R   0.961826 0.925749 0.508070 0.000000
C179  C     C_R   0.935791 0.932323 0.472498 0.000000
C180  C     C_R   0.969664 0.929577 0.416366 0.000000
C181  C     C_R   0.029483 0.920795 0.395849 0.000000
C182  C     C_R   0.055461 0.917311 0.431084 0.000000
N28   N     N_R   0.110440 0.900534 0.416762 0.000000
H105  H     H_    0.250921 0.786583 0.410024 0.000000
H106  H     H_    0.182166 0.729524 0.467056 0.000000
H107  H     H_    0.124923 0.767571 0.558081 0.000000
H108  H     H_    0.077465 0.841891 0.561069 0.000000
H109  H     H_    0.935193 0.919277 0.549919 0.000000
H110  H     H_    0.888454 0.936442 0.488206 0.000000
H111  H     H_    0.948719 0.932348 0.388359 0.000000
H112  H     H_    0.054020 0.909401 0.354196 0.000000
Br15  Br    Br    0.044289 0.193181 0.407566 0.000000
C183  C     C_R   0.087906 0.216336 0.449394 0.000000
C184  C     C_R   0.083698 0.262830 0.466815 0.000000
C185  C     C_R   0.121665 0.283582 0.488656 0.000000
C186  C     C_R   0.148983 0.254898 0.509820 0.000000
C187  C     C_R   0.143124 0.206175 0.502164 0.000000
C188  C     C_R   0.119595 0.188108 0.465806 0.000000
C189  C     C_R   0.112617 0.137849 0.457828 0.000000
N29   N     N_R   0.074183 0.114903 0.504232 0.000000
C190  C     C_R   0.050193 0.081191 0.480668 0.000000
C191  C     C_R   0.992077 0.067016 0.503013 0.000000
C192  C     C_R   0.965544 0.047729 0.469855 0.000000
C193  C     C_R   0.000459 0.035936 0.415832 0.000000
C194  C     C_R   0.060025 0.046665 0.395918 0.000000
C195  C     C_R   0.079770 0.078764 0.424817 0.000000
N30   N     N_R   0.121308 0.114807 0.405697 0.000000
H113  H     H_    0.052895 0.281765 0.458114 0.000000
H114  H     H_    0.125992 0.322091 0.493594 0.000000
H115  H     H_    0.172152 0.270329 0.533856 0.000000
H116  H     H_    0.160933 0.182462 0.520954 0.000000
H117  H     H_    0.965028 0.082815 0.541137 0.000000
H118  H     H_    0.918268 0.040786 0.486462 0.000000
H119  H     H_    0.981575 0.016710 0.390166 0.000000
H120  H     H_    0.089057 0.017661 0.375932 0.000000
Br16  Br    Br    0.253818 0.233470 0.148711 0.000000
C196  C     C_R   0.254237 0.259000 0.218267 0.000000
C197  C     C_R   0.306822 0.275666 0.220245 0.000000
C198  C     C_R   0.313082 0.277120 0.269314 0.000000
C199  C     C_R   0.265603 0.265868 0.316920 0.000000
C200  C     C_R   0.211979 0.253217 0.315502 0.000000
C201  C     C_R   0.205362 0.252050 0.266769 0.000000
C202  C     C_R   0.154048 0.227640 0.263414 0.000000
N31   N     N_R   0.120990 0.247689 0.237302 0.000000
C203  C     C_R   0.097483 0.206454 0.223956 0.000000
C204  C     C_R   0.058717 0.202149 0.199280 0.000000
C205  C     C_R   0.045465 0.155852 0.183492 0.000000
C206  C     C_R   0.079079 0.117337 0.182996 0.000000
C207  C     C_R   0.118329 0.123099 0.207749 0.000000
C208  C     C_R   0.118096 0.165894 0.236977 0.000000
N32   N     N_R   0.149261 0.177001 0.267919 0.000000
H121  H     H_    0.345144 0.282049 0.182528 0.000000
H122  H     H_    0.355839 0.285434 0.270096 0.000000
H123  H     H_    0.270692 0.265560 0.355056 0.000000
H124  H     H_    0.175978 0.241395 0.352086 0.000000
H125  H     H_    0.038097 0.233545 0.194001 0.000000
H126  H     H_    0.012121 0.149961 0.167383 0.000000
H127  H     H_    0.073784 0.082525 0.164135 0.000000
H128  H     H_    0.147250 0.094463 0.205096 0.000000
Br17  Br    Br    0.242979 0.158401 0.396829 0.000000
C209  C     C_R   0.240942 0.089024 0.385046 0.000000
C210  C     C_R   0.201775 0.054794 0.414926 0.000000
C211  C     C_R   0.203948 0.008554 0.391962 0.000000
C212  C     C_R   0.253315 0.994517 0.347346 0.000000
C213  C     C_R   0.297662 0.027584 0.323800 0.000000
C214  C     C_R   0.289380 0.074689 0.342998 0.000000
C215  C     C_R   0.313287 0.113332 0.309838 0.000000
N33   N     N_R   0.278153 0.131462 0.286763 0.000000
C216  C     C_R   0.318689 0.159469 0.249609 0.000000
C217  C     C_R   0.318638 0.167651 0.199773 0.000000
C218  C     C_R   0.370725 0.183668 0.158450 0.000000
C219  C     C_R   0.419739 0.195743 0.169525 0.000000
C220  C     C_R   0.419633 0.186047 0.219514 0.000000
C221  C     C_R   0.371208 0.162759 0.256483 0.000000
N34   N     N_R   0.369854 0.133765 0.295845 0.000000
H129  H     H_    0.168239 0.064781 0.454250 0.000000
H130  H     H_    0.168371 0.982675 0.409371 0.000000
H131  H     H_    0.254849 0.958869 0.329073 0.000000
H132  H     H_    0.334311 0.018034 0.286630 0.000000
H133  H     H_    0.280886 0.155688 0.191386 0.000000
H134  H     H_    0.372724 0.188221 0.117847 0.000000
H135  H     H_    0.459218 0.210544 0.138004 0.000000
H136  H     H_    0.456973 0.195653 0.228102 0.000000
Br18  Br    Br    0.446291 0.785660 0.400600 0.000000
C222  C     C_R   0.363976 0.785675 0.430745 0.000000
C223  C     C_R   0.340475 0.740518 0.432807 0.000000
C224  C     C_R   0.286523 0.732156 0.472359 0.000000
C225  C     C_R   0.260027 0.765871 0.513714 0.000000
C226  C     C_R   0.277893 0.812865 0.505356 0.000000
C227  C     C_R   0.328611 0.823798 0.461174 0.000000
C228  C     C_R   0.352825 0.871601 0.463875 0.000000
N35   N     N_R   0.351812 0.884699 0.516090 0.000000
C229  C     C_R   0.409219 0.891814 0.502282 0.000000
C230  C     C_R   0.435840 0.886022 0.536600 0.000000
C231  C     C_R   0.496118 0.891783 0.516490 0.000000
C232  C     C_R   0.527658 0.898519 0.461208 0.000000
C233  C     C_R   0.499976 0.895188 0.424955 0.000000
C234  C     C_R   0.440142 0.893717 0.446452 0.000000
N36   N     N_R   0.404964 0.884432 0.419015 0.000000
H137  H     H_    0.366772 0.710836 0.407593 0.000000
H138  H     H_    0.268049 0.697461 0.474677 0.000000
H139  H     H_    0.220611 0.755765 0.548411 0.000000
H140  H     H_    0.252714 0.840868 0.533492 0.000000
H141  H     H_    0.409446 0.874711 0.577153 0.000000
H142  H     H_    0.518758 0.890442 0.543362 0.000000
H143  H     H_    0.574231 0.905877 0.447213 0.000000
H144  H     H_    0.523376 0.895705 0.381268 0.000000
Br19  Br    Br    0.564622 0.988826 0.383818 0.000000
C235  C     C_R   0.592105 0.006326 0.312149 0.000000
C236  C     C_R   0.652656 0.012523 0.284826 0.000000
C237  C     C_R   0.677977 0.022081 0.230215 0.000000
C238  C     C_R   0.642121 0.025745 0.203172 0.000000
C239  C     C_R   0.581630 0.020418 0.230863 0.000000
C240  C     C_R   0.554415 0.011214 0.286658 0.000000
C241  C     C_R   0.487917 0.004646 0.313762 0.000000
N37   N     N_R   0.468595 0.958835 0.299674 0.000000
C242  C     C_R   0.453003 0.970799 0.259832 0.000000
C243  C     C_R   0.476434 0.947137 0.208573 0.000000
C244  C     C_R   0.482579 0.970732 0.162850 0.000000
C245  C     C_R   0.462966 0.017271 0.168711 0.000000
C246  C     C_R   0.443155 0.042064 0.219589 0.000000
C247  C     C_R   0.444425 0.019767 0.263330 0.000000
N38   N     N_R   0.460465 0.042587 0.301825 0.000000
H145  H     H_    0.680507 0.009060 0.306571 0.000000
H146  H     H_    0.725470 0.026394 0.208792 0.000000
H147  H     H_    0.661298 0.032755 0.159894 0.000000
H148  H     H_    0.556935 0.022372 0.206458 0.000000
H149  H     H_    0.501333 0.915245 0.202545 0.000000
H150  H     H_    0.504153 0.953148 0.122217 0.000000
H151  H     H_    0.468107 0.035714 0.132683 0.000000
H152  H     H_    0.436998 0.080189 0.221660 0.000000
Br20  Br    Br    0.570387 0.731289 0.365636 0.000000
C248  C     C_R   0.594975 0.797223 0.355717 0.000000
C249  C     C_R   0.626617 0.819224 0.383621 0.000000
C250  C     C_R   0.654240 0.863618 0.368850 0.000000
C251  C     C_R   0.649111 0.886510 0.327082 0.000000
C252  C     C_R   0.615181 0.865600 0.300996 0.000000
C253  C     C_R   0.586679 0.821474 0.316350 0.000000
C254  C     C_R   0.553127 0.799756 0.286185 0.000000
N39   N     N_R   0.576623 0.761047 0.246370 0.000000
C255  C     C_R   0.550475 0.768817 0.212787 0.000000
C256  C     C_R   0.566899 0.748907 0.160502 0.000000
C257  C     C_R   0.543012 0.766622 0.127601 0.000000
C258  C     C_R   0.503413 0.803437 0.147640 0.000000
C259  C     C_R   0.484578 0.821487 0.201693 0.000000
C260  C     C_R   0.510545 0.805373 0.233059 0.000000
N40   N     N_R   0.507951 0.825948 0.281449 0.000000
H153  H     H_    0.632578 0.800860 0.415078 0.000000
H154  H     H_    0.680845 0.880017 0.389366 0.000000
H155  H     H_    0.672349 0.920469 0.314426 0.000000
H156  H     H_    0.611153 0.883731 0.268274 0.000000
H157  H     H_    0.599000 0.721296 0.144984 0.000000
H158  H     H_    0.555151 0.752189 0.085890 0.000000
H159  H     H_    0.488129 0.818014 0.119954 0.000000
H160  H     H_    0.452774 0.849210 0.217942 0.000000
Br21  Br    Br    0.270297 0.699883 0.002245 0.000000
C261  C     C_R   0.215570 0.750810 0.029640 0.000000
C262  C     C_R   0.235907 0.796836 0.013318 0.000000
C263  C     C_R   0.199000 0.835554 0.034084 0.000000
C264  C     C_R   0.141083 0.828096 0.070195 0.000000
C265  C     C_R   0.120420 0.782081 0.085799 0.000000
C266  C     C_R   0.157534 0.743184 0.066838 0.000000
C267  C     C_R   0.133433 0.694753 0.085015 0.000000
N41   N     N_R   0.119865 0.660318 0.050469 0.000000
C268  C     C_R   0.085119 0.630109 0.087513 0.000000
C269  C     C_R   0.049109 0.595581 0.079257 0.000000
C270  C     C_R   0.016508 0.567804 0.122530 0.000000
C271  C     C_R   0.021198 0.574855 0.171988 0.000000
C272  C     C_R   0.054859 0.612304 0.180426 0.000000
C273  C     C_R   0.083311 0.641193 0.138108 0.000000
N42   N     N_R   0.110899 0.682999 0.140573 0.000000
H161  H     H_    0.281338 0.802588 0.984660 0.000000
H162  H     H_    0.215180 0.871501 0.021228 0.000000
H163  H     H_    0.111505 0.858200 0.085572 0.000000
H164  H     H_    0.074355 0.776444 0.111704 0.000000
H165  H     H_    0.047227 0.590804 0.040072 0.000000
H166  H     H_    0.990550 0.537527 0.117082 0.000000
H167  H     H_    0.997536 0.551385 0.203859 0.000000
H168  H     H_    0.059078 0.618005 0.218548 0.000000
Br22  Br    Br    0.190973 0.512551 0.181940 0.000000
C274  C     C_R   0.233690 0.566555 0.146638 0.000000
C275  C     C_R   0.277682 0.565997 0.093725 0.000000
C276  C     C_R   0.306649 0.608615 0.072997 0.000000
C277  C     C_R   0.294740 0.650437 0.106700 0.000000
C278  C     C_R   0.251270 0.649997 0.159527 0.000000
C279  C     C_R   0.219118 0.608126 0.178301 0.000000
C280  C     C_R   0.172491 0.607842 0.233895 0.000000
N43   N     N_R   0.137137 0.648268 0.251747 0.000000
C281  C     C_R   0.127569 0.652144 0.304323 0.000000
C282  C     C_R   0.112889 0.692472 0.338792 0.000000
C283  C     C_R   0.111177 0.688589 0.390303 0.000000
C284  C     C_R   0.106201 0.643141 0.408891 0.000000
C285  C     C_R   0.118236 0.603808 0.372672 0.000000
C286  C     C_R   0.143761 0.612031 0.319421 0.000000
N44   N     N_R   0.174134 0.581290 0.276835 0.000000
H169  H     H_    0.289278 0.532851 0.068181 0.000000
H170  H     H_    0.340939 0.608679 0.031616 0.000000
H171  H     H_    0.319863 0.683385 0.092007 0.000000
H172  H     H_    0.243725 0.682104 0.186815 0.000000
H173  H     H_    0.109152 0.726326 0.324798 0.000000
H174  H     H_    0.107213 0.719786 0.417470 0.000000
H175  H     H_    0.088038 0.636850 0.451320 0.000000
H176  H     H_    0.102795 0.568672 0.386080 0.000000
Br23  Br    Br    0.017114 0.576565 0.317999 0.000000
C287  C     C_R   0.980843 0.625786 0.370745 0.000000
C288  C     C_R   0.987260 0.628252 0.418730 0.000000
C289  C     C_R   0.970426 0.668409 0.453697 0.000000
C290  C     C_R   0.951315 0.707459 0.438096 0.000000
C291  C     C_R   0.939026 0.702649 0.392888 0.000000
C292  C     C_R   0.950429 0.660441 0.361273 0.000000
C293  C     C_R   0.946220 0.661756 0.310239 0.000000
N45   N     N_R   0.994108 0.684907 0.269152 0.000000
C294  C     C_R   0.966079 0.709793 0.247491 0.000000
C295  C     C_R   0.991933 0.745710 0.212425 0.000000
C296  C     C_R   0.955478 0.776336 0.203755 0.000000
C297  C     C_R   0.895667 0.765796 0.224597 0.000000
C298  C     C_R   0.873538 0.723181 0.250531 0.000000
C299  C     C_R   0.906721 0.699691 0.269701 0.000000
N46   N     N_R   0.889881 0.668227 0.310857 0.000000
H177  H     H_    0.005287 0.598377 0.428942 0.000000
H178  H     H_    0.974581 0.669177 0.491969 0.000000
H179  H     H_    0.946210 0.741677 0.460487 0.000000
H180  H     H_    0.924480 0.732976 0.379429 0.000000
H181  H     H_    0.038611 0.753595 0.198242 0.000000
H182  H     H_    0.973459 0.807736 0.179989 0.000000
H183  H     H_    0.867781 0.788092 0.214288 0.000000
H184  H     H_    0.834452 0.706584 0.250451 0.000000
Br24  Br    Br    0.879851 0.060827 0.755358 0.000000
C300  C     C_R   0.950115 0.036029 0.754979 0.000000
C301  C     C_R   0.944662 0.029751 0.807679 0.000000
C302  C     C_R   0.988583 0.009393 0.816648 0.000000
C303  C     C_R   0.038299 0.994816 0.772258 0.000000
C304  C     C_R   0.044052 0.999727 0.719317 0.000000
C305  C     C_R   0.001947 0.021765 0.708711 0.000000
C306  C     C_R   0.009042 0.020352 0.650216 0.000000
N47   N     N_R   0.982780 0.978941 0.636583 0.000000
C307  C     C_R   0.937968 0.997860 0.628540 0.000000
C308  C     C_R   0.886125 0.975105 0.631224 0.000000
C309  C     C_R   0.841301 0.002994 0.631630 0.000000
C310  C     C_R   0.846884 0.053043 0.633108 0.000000
C311  C     C_R   0.897820 0.075639 0.633362 0.000000
C312  C     C_R   0.944133 0.047131 0.628082 0.000000
N48   N     N_R   0.994426 0.062165 0.633089 0.000000
H185  H     H_    0.904540 0.040515 0.842447 0.000000
H186  H     H_    0.983529 0.003893 0.858049 0.000000
H187  H     H_    0.070556 0.975563 0.778819 0.000000
H188  H     H_    0.079416 0.982032 0.686188 0.000000
H189  H     H_    0.878816 0.936649 0.635256 0.000000
H190  H     H_    0.800454 0.985723 0.633461 0.000000
H191  H     H_    0.810508 0.074511 0.635929 0.000000
H192  H     H_    0.901011 0.114501 0.637886 0.000000
Br25  Br    Br    0.998604 0.892974 0.738104 0.000000
C313  C     C_R   0.063869 0.871918 0.747020 0.000000
C314  C     C_R   0.052220 0.857206 0.798855 0.000000
C315  C     C_R   0.096412 0.841483 0.810996 0.000000
C316  C     C_R   0.153285 0.845781 0.772975 0.000000
C317  C     C_R   0.165385 0.867156 0.724316 0.000000
C318  C     C_R   0.121392 0.875400 0.707154 0.000000
C319  C     C_R   0.138844 0.891037 0.649639 0.000000
N49   N     N_R   0.098589 0.901499 0.626654 0.000000
C320  C     C_R   0.135007 0.924037 0.583257 0.000000
C321  C     C_R   0.117282 0.956627 0.558421 0.000000
C322  C     C_R   0.157163 0.978156 0.515413 0.000000
C323  C     C_R   0.215089 0.966841 0.497392 0.000000
C324  C     C_R   0.233899 0.938878 0.527634 0.000000
C325  C     C_R   0.192334 0.919698 0.573223 0.000000
N50   N     N_R   0.199020 0.899859 0.614660 0.000000
H193  H     H_    0.007534 0.857084 0.830081 0.000000
H194  H     H_    0.086814 0.827707 0.850697 0.000000
H195  H     H_    0.188362 0.833390 0.782177 0.000000
H196  H     H_    0.210450 0.876379 0.698895 0.000000
H197  H     H_    0.073648 0.966066 0.569088 0.000000
H198  H     H_    0.139948 0.002404 0.497199 0.000000
H199  H     H_    0.246569 0.981686 0.460391 0.000000
H200  H     H_    0.279656 0.936213 0.517060 0.000000
Br26  Br    Br    0.958674 0.816033 0.544835 0.000000
C326  C     C_R   0.994393 0.768888 0.567932 0.000000
C327  C     C_R   0.024903 0.732251 0.533112 0.000000
C328  C     C_R   0.049833 0.698516 0.551614 0.000000
C329  C     C_R   0.051325 0.704680 0.602261 0.000000
C330  C     C_R   0.024060 0.743796 0.635340 0.000000
C331  C     C_R   0.992751 0.772894 0.619340 0.000000
C332  C     C_R   0.949254 0.801540 0.660116 0.000000
N51   N     N_R   0.949410 0.851767 0.659468 0.000000
C333  C     C_R   0.896840 0.860897 0.703304 0.000000
C334  C     C_R   0.874989 0.904992 0.729122 0.000000
C335  C     C_R   0.823046 0.905855 0.776588 0.000000
C336  C     C_R   0.794368 0.863211 0.798890 0.000000
C337  C     C_R   0.817696 0.818950 0.774323 0.000000
C338  C     C_R   0.868734 0.818717 0.727001 0.000000
N52   N     N_R   0.900603 0.779551 0.701036 0.000000
H201  H     H_    0.029611 0.731002 0.491621 0.000000
H202  H     H_    0.071233 0.668621 0.526072 0.000000
H203  H     H_    0.076295 0.680675 0.614043 0.000000
H204  H     H_    0.028218 0.753949 0.672813 0.000000
H205  H     H_    0.899065 0.938191 0.715508 0.000000
H206  H     H_    0.805577 0.940203 0.797430 0.000000
H207  H     H_    0.754528 0.864617 0.836605 0.000000
H208  H     H_    0.797382 0.785547 0.792783 0.000000
Br27  Br    Br    0.422014 0.003410 0.494812 0.000000
C339  C     C_R   0.468726 0.058966 0.488212 0.000000
C340  C     C_R   0.519176 0.053076 0.496674 0.000000
C341  C     C_R   0.571168 0.075386 0.464572 0.000000
C342  C     C_R   0.572963 0.098506 0.420380 0.000000
C343  C     C_R   0.521269 0.107753 0.415087 0.000000
C344  C     C_R   0.467450 0.091985 0.452765 0.000000
C345  C     C_R   0.412693 0.114216 0.455810 0.000000
N53   N     N_R   0.414133 0.136175 0.409320 0.000000
C346  C     C_R   0.377313 0.173122 0.433551 0.000000
C347  C     C_R   0.360759 0.206711 0.407881 0.000000
C348  C     C_R   0.319350 0.240111 0.440830 0.000000
C349  C     C_R   0.297881 0.240889 0.497812 0.000000
C350  C     C_R   0.313804 0.205966 0.522944 0.000000
C351  C     C_R   0.352330 0.171576 0.489881 0.000000
N54   N     N_R   0.367731 0.131867 0.506647 0.000000
H209  H     H_    0.520941 0.024147 0.520681 0.000000
H210  H     H_    0.611778 0.067447 0.467812 0.000000
H211  H     H_    0.615659 0.106596 0.388660 0.000000
H212  H     H_    0.522804 0.126391 0.380827 0.000000
H213  H     H_    0.379096 0.207043 0.363532 0.000000
H214  H     H_    0.305405 0.267347 0.422225 0.000000
H215  H     H_    0.268055 0.268718 0.522699 0.000000
H216  H     H_    0.295431 0.205188 0.567024 0.000000
Br28  Br    Br    0.638651 0.141242 0.279449 0.000000
C352  C     C_R   0.600848 0.191094 0.335574 0.000000
C353  C     C_R   0.615962 0.198266 0.379659 0.000000
C354  C     C_R   0.578464 0.221673 0.426881 0.000000
C355  C     C_R   0.523748 0.234646 0.431600 0.000000
C356  C     C_R   0.511780 0.232439 0.385445 0.000000
C357  C     C_R   0.554185 0.215771 0.335533 0.000000
C358  C     C_R   0.546213 0.214630 0.284415 0.000000
N55   N     N_R   0.587344 0.239618 0.238394 0.000000
C359  C     C_R   0.590722 0.206933 0.197104 0.000000
C360  C     C_R   0.628162 0.208980 0.142442 0.000000
C361  C     C_R   0.629143 0.169693 0.106863 0.000000
C362  C     C_R   0.593476 0.129226 0.126367 0.000000
C363  C     C_R   0.555825 0.127972 0.181414 0.000000
C364  C     C_R   0.553901 0.167224 0.216167 0.000000
N56   N     N_R   0.521120 0.171605 0.271325 0.000000
H217  H     H_    0.654422 0.181764 0.379571 0.000000
H218  H     H_    0.590727 0.224820 0.461057 0.000000
H219  H     H_    0.490881 0.247217 0.471048 0.000000
H220  H     H_    0.470721 0.245564 0.388168 0.000000
H221  H     H_    0.656778 0.239861 0.127653 0.000000
H222  H     H_    0.659025 0.169760 0.063854 0.000000
H223  H     H_    0.595986 0.098065 0.098608 0.000000
H224  H     H_    0.531749 0.095965 0.197290 0.000000
Br29  Br    Br    0.687568 0.766827 0.034683 0.000000
C365  C     C_R   0.664010 0.701721 0.026299 0.000000
C366  C     C_R   0.627242 0.695437 0.999054 0.000000
C367  C     C_R   0.589640 0.656009 0.007358 0.000000
C368  C     C_R   0.587280 0.624172 0.045007 0.000000
C369  C     C_R   0.625274 0.629641 0.070997 0.000000
C370  C     C_R   0.669144 0.665446 0.057483 0.000000
C371  C     C_R   0.714128 0.669302 0.081873 0.000000
N57   N     N_R   0.774944 0.672262 0.046054 0.000000
C372  C     C_R   0.791650 0.713240 0.066677 0.000000
C373  C     C_R   0.841932 0.740518 0.039996 0.000000
C374  C     C_R   0.845336 0.787230 0.060918 0.000000
C375  C     C_R   0.797639 0.806259 0.105977 0.000000
C376  C     C_R   0.747328 0.778086 0.132028 0.000000
C377  C     C_R   0.747050 0.730089 0.114743 0.000000
N58   N     N_R   0.699377 0.699677 0.129738 0.000000
H225  H     H_    0.624298 0.723915 0.974881 0.000000
H226  H     H_    0.559650 0.651712 0.987167 0.000000
H227  H     H_    0.556277 0.594129 0.053450 0.000000
H228  H     H_    0.622081 0.603353 0.099492 0.000000
H229  H     H_    0.876564 0.727008 0.002326 0.000000
H230  H     H_    0.883868 0.809891 0.040036 0.000000
H231  H     H_    0.798596 0.844052 0.119032 0.000000
H232  H     H_    0.707130 0.795340 0.159592 0.000000
Br30  Br    Br    0.781761 0.562605 0.177813 0.000000
C378  C     C_R   0.724436 0.561011 0.250735 0.000000
C379  C     C_R   0.718582 0.516483 0.270802 0.000000
C380  C     C_R   0.692097 0.510232 0.325594 0.000000
C381  C     C_R   0.667259 0.548945 0.360645 0.000000
C382  C     C_R   0.662615 0.591009 0.339380 0.000000
C383  C     C_R   0.694989 0.599603 0.286002 0.000000
C384  C     C_R   0.714044 0.650013 0.281833 0.000000
N59   N     N_R   0.742152 0.668142 0.315705 0.000000
C385  C     C_R   0.735850 0.716284 0.315021 0.000000
C386  C     C_R   0.759888 0.753201 0.336884 0.000000
C387  C     C_R   0.766994 0.798361 0.316222 0.000000
C388  C     C_R   0.746221 0.806412 0.276819 0.000000
C389  C     C_R   0.712905 0.770927 0.262823 0.000000
C390  C     C_R   0.709995 0.725899 0.280806 0.000000
N60   N     N_R   0.690210 0.685565 0.262237 0.000000
H233  H     H_    0.746287 0.488729 0.244576 0.000000
H234  H     H_    0.695176 0.476039 0.340836 0.000000
H235  H     H_    0.650476 0.545496 0.404389 0.000000
H236  H     H_    0.643452 0.622196 0.364712 0.000000
H237  H     H_    0.780313 0.745836 0.362929 0.000000
H238  H     H_    0.790680 0.826871 0.329314 0.000000
H239  H     H_    0.752852 0.841453 0.259741 0.000000
H240  H     H_    0.689572 0.777989 0.238657 0.000000
Br31  Br    Br    0.380184 0.609090 0.342522 0.000000
C391  C     C_R   0.417030 0.633541 0.272083 0.000000
C392  C     C_R   0.379202 0.648675 0.250671 0.000000
C393  C     C_R   0.400163 0.667876 0.200145 0.000000
C394  C     C_R   0.459775 0.669542 0.169173 0.000000
C395  C     C_R   0.497598 0.653201 0.189724 0.000000
C396  C     C_R   0.477836 0.635736 0.241442 0.000000
C397  C     C_R   0.522890 0.611942 0.253618 0.000000
N61   N     N_R   0.580446 0.632165 0.232488 0.000000
C398  C     C_R   0.612570 0.593155 0.208816 0.000000
C399  C     C_R   0.669107 0.594717 0.170907 0.000000
C400  C     C_R   0.688859 0.556210 0.133141 0.000000
C401  C     C_R   0.652925 0.516163 0.136720 0.000000
C402  C     C_R   0.597598 0.513186 0.179276 0.000000
C403  C     C_R   0.578582 0.552186 0.216466 0.000000
N62   N     N_R   0.522331 0.561140 0.251059 0.000000
H241  H     H_    0.331945 0.644322 0.273685 0.000000
H242  H     H_    0.369789 0.678657 0.183669 0.000000
H243  H     H_    0.476779 0.681626 0.127788 0.000000
H244  H     H_    0.543565 0.652025 0.163545 0.000000
H245  H     H_    0.697196 0.625533 0.170031 0.000000
H246  H     H_    0.732574 0.557708 0.100347 0.000000
H247  H     H_    0.669006 0.487370 0.105578 0.000000
H248  H     H_    0.568529 0.483845 0.177803 0.000000
Br32  Br    Br    0.179102 0.024754 0.623413 0.000000
C404  C     C_R   0.231328 0.053526 0.558814 0.000000
C405  C     C_R   0.286048 0.034695 0.529238 0.000000
C406  C     C_R   0.314417 0.043444 0.474916 0.000000
C407  C     C_R   0.296554 0.081074 0.457198 0.000000
C408  C     C_R   0.250935 0.108739 0.493355 0.000000
C409  C     C_R   0.213395 0.092043 0.541263 0.000000
C410  C     C_R   0.186612 0.127154 0.584459 0.000000
N63   N     N_R   0.124629 0.130671 0.611619 0.000000
C411  C     C_R   0.117755 0.128834 0.664172 0.000000
C412  C     C_R   0.066436 0.119152 0.707992 0.000000
C413  C     C_R   0.069997 0.106349 0.755736 0.000000
C414  C     C_R   0.123935 0.101150 0.758059 0.000000
C415  C     C_R   0.175334 0.111500 0.713317 0.000000
C416  C     C_R   0.171161 0.126526 0.667665 0.000000
N64   N     N_R   0.216679 0.130415 0.618104 0.000000
H249  H     H_    0.300640 0.006594 0.545536 0.000000
H250  H     H_    0.350906 0.022576 0.446137 0.000000
H251  H     H_    0.324642 0.092592 0.417336 0.000000
H252  H     H_    0.247468 0.145814 0.488078 0.000000
H253  H     H_    0.024784 0.119769 0.704504 0.000000
H254  H     H_    0.030256 0.099600 0.791704 0.000000
H255  H     H_    0.125626 0.090113 0.795355 0.000000
H256  H     H_    0.218082 0.108826 0.713630 0.000000
Br33  Br    Br    0.079676 0.275955 0.666551 0.000000
C417  C     C_R   0.024628 0.238624 0.723112 0.000000
C418  C     C_R   0.037963 0.225388 0.765033 0.000000
C419  C     C_R   0.001005 0.194920 0.803253 0.000000
C420  C     C_R   0.951802 0.174761 0.797986 0.000000
C421  C     C_R   0.939891 0.186208 0.754456 0.000000
C422  C     C_R   0.974096 0.220291 0.719252 0.000000
C423  C     C_R   0.963676 0.226834 0.671018 0.000000
N65   N     N_R   0.921432 0.259546 0.671006 0.000000
C424  C     C_R   0.914174 0.240754 0.625962 0.000000
C425  C     C_R   0.877641 0.256854 0.604531 0.000000
C426  C     C_R   0.875723 0.232835 0.558244 0.000000
C427  C     C_R   0.913563 0.195865 0.531110 0.000000
C428  C     C_R   0.953281 0.182424 0.550858 0.000000
C429  C     C_R   0.951389 0.203165 0.599548 0.000000
N66   N     N_R   0.984401 0.191971 0.626350 0.000000
H257  H     H_    0.078807 0.236282 0.766754 0.000000
H258  H     H_    0.014781 0.182622 0.833383 0.000000
H259  H     H_    0.924907 0.148002 0.825770 0.000000
H260  H     H_    0.903570 0.168360 0.747523 0.000000
H261  H     H_    0.854680 0.289693 0.620074 0.000000
H262  H     H_    0.848972 0.246204 0.540040 0.000000
H263  H     H_    0.914257 0.179418 0.492801 0.000000
H264  H     H_    0.986657 0.158364 0.526814 0.000000
Br34  Br    Br    0.273613 0.898699 0.784509 0.000000
C430  C     C_R   0.353772 0.882117 0.749530 0.000000
C431  C     C_R   0.391633 0.906355 0.769493 0.000000
C432  C     C_R   0.451874 0.903873 0.740469 0.000000
C433  C     C_R   0.473847 0.880014 0.689387 0.000000
C434  C     C_R   0.435488 0.856278 0.669893 0.000000
C435  C     C_R   0.375803 0.853213 0.700945 0.000000
C436  C     C_R   0.338096 0.820122 0.681481 0.000000
N67   N     N_R   0.324776 0.771918 0.698712 0.000000
C437  C     C_R   0.277508 0.762700 0.687488 0.000000
C438  C     C_R   0.233375 0.731538 0.715147 0.000000
C439  C     C_R   0.182125 0.729971 0.706945 0.000000
C440  C     C_R   0.177542 0.758566 0.668676 0.000000
C441  C     C_R   0.222320 0.791634 0.642645 0.000000
C442  C     C_R   0.269569 0.796478 0.656861 0.000000
N68   N     N_R   0.306362 0.835465 0.651760 0.000000
H265  H     H_    0.373712 0.928778 0.807368 0.000000
H266  H     H_    0.481398 0.923396 0.755851 0.000000
H267  H     H_    0.520819 0.881300 0.663757 0.000000
H268  H     H_    0.450795 0.843660 0.627905 0.000000
H269  H     H_    0.236991 0.714426 0.747721 0.000000
H270  H     H_    0.146921 0.705247 0.729053 0.000000
H271  H     H_    0.138129 0.756532 0.660723 0.000000
H272  H     H_    0.216149 0.816270 0.617120 0.000000
Br35  Br    Br    0.323190 0.090514 0.737905 0.000000
C443  C     C_R   0.260943 0.043934 0.748895 0.000000
C444  C     C_R   0.226802 0.038745 0.804123 0.000000
C445  C     C_R   0.182683 0.004322 0.821203 0.000000
C446  C     C_R   0.172197 0.975022 0.782560 0.000000
C447  C     C_R   0.203200 0.981802 0.727045 0.000000
C448  C     C_R   0.247904 0.016232 0.708296 0.000000
C449  C     C_R   0.286133 0.013634 0.647559 0.000000
N69   N     N_R   0.322864 0.054094 0.627132 0.000000
C450  C     C_R   0.375635 0.036342 0.618584 0.000000
C451  C     C_R   0.422817 0.062129 0.622879 0.000000
C452  C     C_R   0.466674 0.037475 0.628482 0.000000
C453  C     C_R   0.462220 0.987823 0.630948 0.000000
C454  C     C_R   0.413168 0.963064 0.629218 0.000000
C455  C     C_R   0.371391 0.987023 0.621006 0.000000
N70   N     N_R   0.316086 0.970213 0.630463 0.000000
H273  H     H_    0.236668 0.061111 0.834444 0.000000
H274  H     H_    0.157649 0.999362 0.864619 0.000000
H275  H     H_    0.139558 0.946256 0.796472 0.000000
H276  H     H_    0.193589 0.958993 0.697439 0.000000
H277  H     H_    0.421887 0.100557 0.630548 0.000000
H278  H     H_    0.502959 0.057254 0.633721 0.000000
H279  H     H_    0.495168 0.968976 0.638071 0.000000
H280  H     H_    0.403894 0.927035 0.640322 0.000000
Br36  Br    Br    0.695253 0.797891 0.754732 0.000000
C456  C     C_R   0.661944 0.744964 0.800402 0.000000
C457  C     C_R   0.618047 0.754200 0.852260 0.000000
C458  C     C_R   0.584661 0.716610 0.881965 0.000000
C459  C     C_R   0.592106 0.670312 0.857964 0.000000
C460  C     C_R   0.635967 0.661271 0.806024 0.000000
C461  C     C_R   0.674586 0.697723 0.779340 0.000000
C462  C     C_R   0.721226 0.687624 0.724345 0.000000
N71   N     N_R   0.780884 0.704226 0.708949 0.000000
C463  C     C_R   0.792742 0.713894 0.657125 0.000000
C464  C     C_R   0.838853 0.739438 0.621121 0.000000
C465  C     C_R   0.849910 0.730967 0.566612 0.000000
C466  C     C_R   0.825590 0.690632 0.550074 0.000000
C467  C     C_R   0.777142 0.668157 0.588776 0.000000
C468  C     C_R   0.754746 0.689891 0.639384 0.000000
N72   N     N_R   0.705167 0.675949 0.680108 0.000000
H281  H     H_    0.608487 0.791084 0.868862 0.000000
H282  H     H_    0.550342 0.723825 0.922699 0.000000
H283  H     H_    0.563839 0.641012 0.879947 0.000000
H284  H     H_    0.642005 0.624927 0.787384 0.000000
H285  H     H_    0.861177 0.768015 0.634104 0.000000
H286  H     H_    0.878348 0.754278 0.536877 0.000000
H287  H     H_    0.841304 0.679437 0.507118 0.000000
H288  H     H_    0.755586 0.635733 0.581034 0.000000
Br37  Br    Br    0.952639 0.779351 0.780436 0.000000
C469  C     C_R   0.890289 0.790237 0.847596 0.000000
C470  C     C_R   0.882244 0.837527 0.868589 0.000000
C471  C     C_R   0.845740 0.847990 0.922357 0.000000
C472  C     C_R   0.817434 0.810773 0.954725 0.000000
C473  C     C_R   0.822681 0.763465 0.932705 0.000000
C474  C     C_R   0.859247 0.752247 0.878293 0.000000
C475  C     C_R   0.862191 0.700580 0.856708 0.000000
N73   N     N_R   0.847249 0.688245 0.811280 0.000000
C476  C     C_R   0.809287 0.650675 0.831830 0.000000
C477  C     C_R   0.763631 0.635535 0.818080 0.000000
C478  C     C_R   0.714869 0.612751 0.857213 0.000000
C479  C     C_R   0.713532 0.603153 0.907181 0.000000
C480  C     C_R   0.761067 0.616732 0.918650 0.000000
C481  C     C_R   0.807940 0.638559 0.880870 0.000000
N74   N     N_R   0.845116 0.664887 0.896216 0.000000
H289  H     H_    0.906701 0.866500 0.843350 0.000000
H290  H     H_    0.840886 0.884919 0.939506 0.000000
H291  H     H_    0.791028 0.819469 0.997675 0.000000
H292  H     H_    0.798290 0.735047 0.958728 0.000000
H293  H     H_    0.763308 0.644794 0.780391 0.000000
H294  H     H_    0.675882 0.602880 0.850544 0.000000
H295  H     H_    0.673903 0.587779 0.937792 0.000000
H296  H     H_    0.759257 0.620302 0.959078 0.000000
Br38  Br    Br    0.031471 0.688494 0.735851 0.000000
C482  C     C_R   0.001447 0.626434 0.749562 0.000000
C483  C     C_R   0.025579 0.602445 0.776953 0.000000
C484  C     C_R   0.021217 0.553458 0.775283 0.000000
C485  C     C_R   0.978535 0.530859 0.760734 0.000000
C486  C     C_R   0.954385 0.554611 0.732925 0.000000
C487  C     C_R   0.971694 0.601290 0.722110 0.000000
C488  C     C_R   0.975253 0.615393 0.670643 0.000000
N75   N     N_R   0.934397 0.647788 0.668258 0.000000
C489  C     C_R   0.940117 0.634943 0.616583 0.000000
C490  C     C_R   0.896352 0.637787 0.600339 0.000000
C491  C     C_R   0.895913 0.608489 0.556825 0.000000
C492  C     C_R   0.941334 0.578053 0.527600 0.000000
C493  C     C_R   0.986394 0.575722 0.543098 0.000000
C494  C     C_R   0.982391 0.600739 0.589945 0.000000
N76   N     N_R   0.005636 0.585258 0.622369 0.000000
H297  H     H_    0.051601 0.622586 0.795399 0.000000
H298  H     H_    0.046525 0.534631 0.791118 0.000000
H299  H     H_    0.966356 0.493614 0.767037 0.000000
H300  H     H_    0.929001 0.534709 0.713306 0.000000
H301  H     H_    0.856157 0.648809 0.631150 0.000000
H302  H     H_    0.855256 0.602477 0.552266 0.000000
H303  H     H_    0.938345 0.551671 0.497225 0.000000
H304  H     H_    0.017357 0.548524 0.524529 0.000000
Br39  Br    Br    0.057122 0.324147 0.331379 0.000000
C495  C     C_R   0.043297 0.391237 0.348292 0.000000
C496  C     C_R   0.993148 0.403237 0.393198 0.000000
C497  C     C_R   0.985353 0.450263 0.413737 0.000000
C498  C     C_R   0.026119 0.485462 0.388973 0.000000
C499  C     C_R   0.074200 0.474485 0.341883 0.000000
C500  C     C_R   0.083756 0.427326 0.322236 0.000000
C501  C     C_R   0.139912 0.416715 0.277793 0.000000
N77   N     N_R   0.189319 0.446769 0.269073 0.000000
C502  C     C_R   0.232198 0.419608 0.229941 0.000000
C503  C     C_R   0.287613 0.434893 0.194932 0.000000
C504  C     C_R   0.322887 0.404093 0.152133 0.000000
C505  C     C_R   0.300087 0.360131 0.140989 0.000000
C506  C     C_R   0.241737 0.347837 0.172489 0.000000
C507  C     C_R   0.209628 0.376352 0.217898 0.000000
N78   N     N_R   0.150328 0.374514 0.243923 0.000000
H305  H     H_    0.962428 0.375078 0.414729 0.000000
H306  H     H_    0.949027 0.459435 0.452514 0.000000
H307  H     H_    0.021117 0.521247 0.408070 0.000000
H308  H     H_    0.105590 0.502690 0.322082 0.000000
H309  H     H_    0.302015 0.470943 0.197249 0.000000
H310  H     H_    0.366283 0.416432 0.124272 0.000000
H311  H     H_    0.325553 0.338260 0.104226 0.000000
H312  H     H_    0.218240 0.321075 0.157643 0.000000
Br40  Br    Br    0.984808 0.286322 0.117663 0.000000
C508  C     C_R   0.053393 0.249750 0.086000 0.000000
C509  C     C_R   0.049706 0.200252 0.077785 0.000000
C510  C     C_R   0.100599 0.173714 0.055444 0.000000
C511  C     C_R   0.154695 0.196801 0.043219 0.000000
C512  C     C_R   0.157793 0.246386 0.051318 0.000000
C513  C     C_R   0.107235 0.273243 0.070243 0.000000
C514  C     C_R   0.112348 0.325609 0.079832 0.000000
N79   N     N_R   0.137486 0.354935 0.033634 0.000000
C515  C     C_R   0.177925 0.379103 0.045975 0.000000
C516  C     C_R   0.226893 0.400209 0.008696 0.000000
C517  C     C_R   0.266135 0.424075 0.026431 0.000000
C518  C     C_R   0.249371 0.431469 0.082038 0.000000
C519  C     C_R   0.198741 0.408627 0.118157 0.000000
C520  C     C_R   0.169925 0.374841 0.098444 0.000000
N80   N     N_R   0.127830 0.340519 0.123963 0.000000
H313  H     H_    0.006930 0.182363 0.088396 0.000000
H314  H     H_    0.097894 0.134853 0.048997 0.000000
H315  H     H_    0.194622 0.176079 0.027574 0.000000
H316  H     H_    0.200010 0.264275 0.043511 0.000000
H317  H     H_    0.235715 0.393676 0.966488 0.000000
H318  H     H_    0.307157 0.439625 0.997855 0.000000
H319  H     H_    0.276278 0.454934 0.096878 0.000000
H320  H     H_    0.180056 0.419283 0.160150 0.000000
Br41  Br    Br    0.944583 0.251983 0.377016 0.000000
C521  C     C_R   0.926882 0.238066 0.314748 0.000000
C522  C     C_R   0.915140 0.189986 0.304389 0.000000
C523  C     C_R   0.898073 0.176084 0.262436 0.000000
C524  C     C_R   0.890602 0.210716 0.231915 0.000000
C525  C     C_R   0.900657 0.258832 0.243262 0.000000
C526  C     C_R   0.920899 0.273387 0.282999 0.000000
C527  C     C_R   0.941217 0.324582 0.284406 0.000000
N81   N     N_R   0.901720 0.364171 0.303553 0.000000
C528  C     C_R   0.942016 0.400302 0.285623 0.000000
C529  C     C_R   0.932534 0.447569 0.295775 0.000000
C530  C     C_R   0.974915 0.480476 0.271732 0.000000
C531  C     C_R   0.031570 0.466394 0.241913 0.000000
C532  C     C_R   0.043005 0.417663 0.233621 0.000000
C533  C     C_R   0.997790 0.385418 0.256933 0.000000
N82   N     N_R   0.002161 0.337745 0.256142 0.000000
H321  H     H_    0.919435 0.162972 0.329587 0.000000
H322  H     H_    0.889470 0.138329 0.254261 0.000000
H323  H     H_    0.876135 0.200284 0.199516 0.000000
H324  H     H_    0.893978 0.285619 0.219824 0.000000
H325  H     H_    0.893368 0.460423 0.323344 0.000000
H326  H     H_    0.960593 0.516794 0.277858 0.000000
H327  H     H_    0.065913 0.493399 0.224808 0.000000
H328  H     H_    0.085753 0.405030 0.207757 0.000000
Br42  Br    Br    0.166614 0.561607 0.861559 0.000000
C534  C     C_R   0.249649 0.564403 0.834823 0.000000
C535  C     C_R   0.279125 0.521888 0.821524 0.000000
C536  C     C_R   0.339458 0.521740 0.797055 0.000000
C537  C     C_R   0.370432 0.564010 0.780606 0.000000
C538  C     C_R   0.341364 0.606948 0.796801 0.000000
C539  C     C_R   0.281156 0.607378 0.827827 0.000000
C540  C     C_R   0.254050 0.654165 0.848963 0.000000
N83   N     N_R   0.280519 0.694616 0.818483 0.000000
C541  C     C_R   0.247683 0.730224 0.852958 0.000000
C542  C     C_R   0.251887 0.778618 0.844134 0.000000
C543  C     C_R   0.210701 0.808688 0.883805 0.000000
C544  C     C_R   0.166321 0.790141 0.930171 0.000000
C545  C     C_R   0.163497 0.741423 0.938668 0.000000
C546  C     C_R   0.204390 0.712215 0.899966 0.000000
N84   N     N_R   0.204543 0.663535 0.899929 0.000000
H329  H     H_    0.255007 0.488140 0.831894 0.000000
H330  H     H_    0.361866 0.488251 0.789798 0.000000
H331  H     H_    0.417663 0.563361 0.756799 0.000000
H332  H     H_    0.366450 0.640285 0.786471 0.000000
H333  H     H_    0.286120 0.792736 0.807673 0.000000
H334  H     H_    0.212432 0.847033 0.879155 0.000000
H335  H     H_    0.134305 0.814163 0.960220 0.000000
H336  H     H_    0.130705 0.726120 0.974727 0.000000
Br43  Br    Br    0.014798 0.748332 0.018414 0.000000
C547  C     C_R   0.957557 0.707032 0.068162 0.000000
C548  C     C_R   0.915433 0.731954 0.110970 0.000000
C549  C     C_R   0.862088 0.710566 0.140923 0.000000
C550  C     C_R   0.851595 0.663445 0.129530 0.000000
C551  C     C_R   0.894317 0.636887 0.087761 0.000000
C552  C     C_R   0.947631 0.658543 0.055877 0.000000
C553  C     C_R   0.974243 0.641076 0.998680 0.000000
N85   N     N_R   0.939516 0.647644 0.969286 0.000000
C554  C     C_R   0.981824 0.666016 0.923862 0.000000
C555  C     C_R   0.972877 0.700940 0.895180 0.000000
C556  C     C_R   0.021156 0.726387 0.859817 0.000000
C557  C     C_R   0.077782 0.712808 0.848704 0.000000
C558  C     C_R   0.086126 0.677892 0.878374 0.000000
C559  C     C_R   0.037845 0.660514 0.920954 0.000000
N86   N     N_R   0.036760 0.643536 0.967478 0.000000
H337  H     H_    0.921530 0.770625 0.115668 0.000000
H338  H     H_    0.826175 0.731824 0.170179 0.000000
H339  H     H_    0.806668 0.650841 0.148768 0.000000
H340  H     H_    0.882578 0.601614 0.074637 0.000000
H341  H     H_    0.929657 0.714175 0.908196 0.000000
H342  H     H_    0.014953 0.757405 0.841218 0.000000
H343  H     H_    0.115448 0.732002 0.820064 0.000000
H344  H     H_    0.129258 0.666693 0.869581 0.000000
Br44  Br    Br    0.161244 0.530139 0.077546 0.000000
C560  C     C_R   0.099900 0.488308 0.076522 0.000000
C561  C     C_R   0.078431 0.456250 0.116261 0.000000
C562  C     C_R   0.034820 0.422992 0.118325 0.000000
C563  C     C_R   0.013331 0.422888 0.079198 0.000000
C564  C     C_R   0.034501 0.455702 0.039937 0.000000
C565  C     C_R   0.078459 0.488833 0.036987 0.000000
C566  C     C_R   0.120671 0.503126 0.983701 0.000000
N87   N     N_R   0.144063 0.551175 0.975158 0.000000
C567  C     C_R   0.202133 0.542873 0.955499 0.000000
C568  C     C_R   0.245009 0.577023 0.952670 0.000000
C569  C     C_R   0.302027 0.562054 0.937030 0.000000
C570  C     C_R   0.315155 0.513772 0.922261 0.000000
C571  C     C_R   0.271018 0.480015 0.924699 0.000000
C572  C     C_R   0.213405 0.494534 0.944721 0.000000
N88   N     N_R   0.162172 0.467606 0.959900 0.000000
H345  H     H_    0.101563 0.455696 0.141880 0.000000
H346  H     H_    0.020019 0.395241 0.147458 0.000000
H347  H     H_    0.983437 0.395087 0.075912 0.000000
H348  H     H_    0.016116 0.454366 0.010875 0.000000
H349  H     H_    0.233460 0.614139 0.964500 0.000000
H350  H     H_    0.336452 0.588154 0.935200 0.000000
H351  H     H_    0.360430 0.502466 0.907564 0.000000
H352  H     H_    0.282911 0.444055 0.909502 0.000000
Br45  Br    Br    0.017309 0.451610 0.509147 0.000000
C573  C     C_R   0.082804 0.418980 0.457373 0.000000
C574  C     C_R   0.080100 0.371762 0.442081 0.000000
C575  C     C_R   0.127334 0.350026 0.399431 0.000000
C576  C     C_R   0.173129 0.377093 0.367005 0.000000
C577  C     C_R   0.172780 0.425310 0.379630 0.000000
C578  C     C_R   0.129372 0.445366 0.426278 0.000000
C579  C     C_R   0.131542 0.495900 0.437174 0.000000
N89   N     N_R   0.171067 0.521639 0.394390 0.000000
C580  C     C_R   0.182482 0.559829 0.422071 0.000000
C581  C     C_R   0.220311 0.597101 0.398882 0.000000
C582  C     C_R   0.216918 0.637581 0.432263 0.000000
C583  C     C_R   0.179182 0.638413 0.488352 0.000000
C584  C     C_R   0.143095 0.599348 0.511031 0.000000
C585  C     C_R   0.145677 0.560093 0.476955 0.000000
N90   N     N_R   0.111718 0.519623 0.490064 0.000000
H353  H     H_    0.038950 0.353570 0.460917 0.000000
H354  H     H_    0.126237 0.312884 0.385942 0.000000
H355  H     H_    0.207115 0.361008 0.330289 0.000000
H356  H     H_    0.207376 0.446734 0.351747 0.000000
H357  H     H_    0.247119 0.596719 0.355078 0.000000
H358  H     H_    0.242087 0.668866 0.412685 0.000000
H359  H     H_    0.176591 0.669635 0.515773 0.000000
H360  H     H_    0.113461 0.600366 0.553961 0.000000
Br46  Br    Br    0.334810 0.388715 0.270943 0.000000
C586  C     C_R   0.306877 0.417210 0.342479 0.000000
C587  C     C_R   0.282960 0.388404 0.386664 0.000000
C588  C     C_R   0.255173 0.409721 0.438544 0.000000
C589  C     C_R   0.255684 0.459319 0.445606 0.000000
C590  C     C_R   0.284860 0.487538 0.401946 0.000000
C591  C     C_R   0.309139 0.466750 0.350312 0.000000
C592  C     C_R   0.333529 0.497392 0.304230 0.000000
N91   N     N_R   0.393643 0.503469 0.274624 0.000000
C593  C     C_R   0.396494 0.526309 0.231267 0.000000
C594  C     C_R   0.445400 0.532745 0.183216 0.000000
C595  C     C_R   0.437252 0.551840 0.140797 0.000000
C596  C     C_R   0.382048 0.567013 0.148587 0.000000
C597  C     C_R   0.333620 0.560416 0.197843 0.000000
C598  C     C_R   0.341484 0.537726 0.237438 0.000000
N92   N     N_R   0.299286 0.519085 0.282816 0.000000
H361  H     H_    0.282357 0.349545 0.380276 0.000000
H362  H     H_    0.232055 0.387615 0.472941 0.000000
H363  H     H_    0.231897 0.476624 0.484824 0.000000
H364  H     H_    0.286935 0.526231 0.406887 0.000000
H365  H     H_    0.487920 0.519953 0.176866 0.000000
H366  H     H_    0.473890 0.555174 0.101470 0.000000
H367  H     H_    0.377792 0.584302 0.115824 0.000000
H368  H     H_    0.290681 0.571860 0.206275 0.000000
Br47  Br    Br    0.914390 0.574701 0.879900 0.000000
C599  C     C_R   0.948116 0.546053 0.921413 0.000000
C600  C     C_R   0.005461 0.554148 0.912450 0.000000
C601  C     C_R   0.021452 0.544714 0.953668 0.000000
C602  C     C_R   0.979426 0.531864 0.003432 0.000000
C603  C     C_R   0.926814 0.514150 0.007415 0.000000
C604  C     C_R   0.913021 0.520311 0.964790 0.000000
C605  C     C_R   0.855090 0.511780 0.973205 0.000000
N93   N     N_R   0.819051 0.551123 0.981696 0.000000
C606  C     C_R   0.767616 0.525718 0.991650 0.000000
C607  C     C_R   0.712944 0.543174 0.007420 0.000000
C608  C     C_R   0.667060 0.512617 0.008871 0.000000
C609  C     C_R   0.676500 0.463970 0.997414 0.000000
C610  C     C_R   0.729888 0.444744 0.989209 0.000000
C611  C     C_R   0.774503 0.476362 0.987274 0.000000
N94   N     N_R   0.829824 0.464859 0.976876 0.000000
H369  H     H_    0.036053 0.571567 0.876548 0.000000
H370  H     H_    0.063497 0.557023 0.950513 0.000000
H371  H     H_    0.987018 0.533639 0.039451 0.000000
H372  H     H_    0.894268 0.501140 0.045595 0.000000
H373  H     H_    0.706501 0.579511 0.020438 0.000000
H374  H     H_    0.623888 0.526454 0.018375 0.000000
H375  H     H_    0.642157 0.441617 0.992876 0.000000
H376  H     H_    0.738010 0.406627 0.979680 0.000000
Br48  Br    Br    0.637498 0.703074 0.443873 0.000000
C612  C     C_R   0.618182 0.638587 0.465736 0.000000
C613  C     C_R   0.570545 0.615242 0.460513 0.000000
C614  C     C_R   0.546596 0.574212 0.487770 0.000000
C615  C     C_R   0.566199 0.560232 0.525072 0.000000
C616  C     C_R   0.611285 0.586009 0.533198 0.000000
C617  C     C_R   0.642289 0.620531 0.497668 0.000000
C618  C     C_R   0.693396 0.645272 0.501047 0.000000
N95   N     N_R   0.741114 0.661917 0.452867 0.000000
C619  C     C_R   0.754698 0.703636 0.475071 0.000000
C620  C     C_R   0.797577 0.736817 0.448006 0.000000
C621  C     C_R   0.800190 0.780508 0.475317 0.000000
C622  C     C_R   0.764798 0.788633 0.530441 0.000000
C623  C     C_R   0.727385 0.752559 0.559582 0.000000
C624  C     C_R   0.720676 0.709802 0.531273 0.000000
N96   N     N_R   0.686389 0.669282 0.551419 0.000000
H377  H     H_    0.552169 0.630675 0.435814 0.000000
H378  H     H_    0.510040 0.554805 0.483337 0.000000
H379  H     H_    0.544783 0.529674 0.548692 0.000000
H380  H     H_    0.625103 0.576765 0.564515 0.000000
H381  H     H_    0.828134 0.729033 0.406248 0.000000
H382  H     H_    0.830757 0.808391 0.454419 0.000000
H383  H     H_    0.769562 0.822240 0.551768 0.000000
H384  H     H_    0.707524 0.758891 0.603633 0.000000
Br49  Br    Br    0.861938 0.434791 0.421368 0.000000
C625  C     C_R   0.845449 0.500180 0.420284 0.000000
C626  C     C_R   0.882480 0.534610 0.428193 0.000000
C627  C     C_R   0.859528 0.577203 0.454097 0.000000
C628  C     C_R   0.801155 0.583167 0.474419 0.000000
C629  C     C_R   0.767799 0.553424 0.455581 0.000000
C630  C     C_R   0.791693 0.513771 0.423844 0.000000
C631  C     C_R   0.786747 0.513887 0.372916 0.000000
N97   N     N_R   0.796841 0.558238 0.347185 0.000000
C632  C     C_R   0.825231 0.542225 0.294655 0.000000
C633  C     C_R   0.854763 0.570508 0.251817 0.000000
C634  C     C_R   0.886053 0.547658 0.201342 0.000000
C635  C     C_R   0.888231 0.497573 0.194488 0.000000
C636  C     C_R   0.858607 0.469572 0.238727 0.000000
C637  C     C_R   0.826487 0.492548 0.288665 0.000000
N98   N     N_R   0.801331 0.472257 0.337912 0.000000
H385  H     H_    0.927187 0.527442 0.418839 0.000000
H386  H     H_    0.884586 0.605098 0.463722 0.000000
H387  H     H_    0.785412 0.615313 0.497843 0.000000
H388  H     H_    0.727293 0.564319 0.455884 0.000000
H389  H     H_    0.851057 0.609205 0.256247 0.000000
H390  H     H_    0.904188 0.569631 0.166334 0.000000
H391  H     H_    0.913297 0.480426 0.154393 0.000000
H392  H     H_    0.864602 0.431336 0.235480 0.000000
Br50  Br    Br    0.702136 0.261314 0.007625 0.000000
C638  C     C_R   0.661379 0.320169 0.029941 0.000000
C639  C     C_R   0.615128 0.325315 0.014984 0.000000
C640  C     C_R   0.578249 0.363763 0.036553 0.000000
C641  C     C_R   0.586474 0.395808 0.074929 0.000000
C642  C     C_R   0.632921 0.390603 0.089605 0.000000
C643  C     C_R   0.672844 0.354550 0.065119 0.000000
C644  C     C_R   0.720551 0.347843 0.083028 0.000000
N99   N     N_R   0.707324 0.320714 0.129415 0.000000
C645  C     C_R   0.759498 0.300143 0.115817 0.000000
C646  C     C_R   0.769185 0.261059 0.138927 0.000000
C647  C     C_R   0.824700 0.241544 0.116837 0.000000
C648  C     C_R   0.868822 0.260852 0.071124 0.000000
C649  C     C_R   0.856782 0.298752 0.046808 0.000000
C650  C     C_R   0.802104 0.317408 0.068858 0.000000
N100  N     N_R   0.781529 0.349798 0.046104 0.000000
H393  H     H_    0.606962 0.298339 0.987297 0.000000
H394  H     H_    0.541995 0.367992 0.024822 0.000000
H395  H     H_    0.557613 0.426153 0.092239 0.000000
H396  H     H_    0.637119 0.414358 0.121180 0.000000
H397  H     H_    0.732888 0.242750 0.168898 0.000000
H398  H     H_    0.832908 0.209888 0.133625 0.000000
H399  H     H_    0.911648 0.244547 0.053100 0.000000
H400  H     H_    0.886951 0.312323 0.009586 0.000000
Br51  Br    Br    0.685187 0.434740 0.197324 0.000000
C651  C     C_R   0.761010 0.414033 0.179303 0.000000
C652  C     C_R   0.804083 0.427726 0.129980 0.000000
C653  C     C_R   0.858742 0.407825 0.110230 0.000000
C654  C     C_R   0.868775 0.373723 0.139836 0.000000
C655  C     C_R   0.826971 0.362704 0.190486 0.000000
C656  C     C_R   0.773518 0.384900 0.212657 0.000000
C657  C     C_R   0.730619 0.367442 0.265319 0.000000
N101  N     N_R   0.752008 0.361747 0.305706 0.000000
C658  C     C_R   0.736909 0.315834 0.316984 0.000000
C659  C     C_R   0.766023 0.288771 0.337173 0.000000
C660  C     C_R   0.765441 0.239495 0.328221 0.000000
C661  C     C_R   0.739955 0.219330 0.294160 0.000000
C662  C     C_R   0.707555 0.247560 0.276355 0.000000
C663  C     C_R   0.705043 0.295991 0.289485 0.000000
N102  N     N_R   0.693786 0.329118 0.261015 0.000000
H401  H     H_    0.793624 0.451740 0.105324 0.000000
H402  H     H_    0.891824 0.416257 0.070179 0.000000
H403  H     H_    0.908469 0.353909 0.122838 0.000000
H404  H     H_    0.835717 0.335631 0.212513 0.000000
H405  H     H_    0.796838 0.307157 0.349981 0.000000
H406  H     H_    0.790210 0.217476 0.342549 0.000000
H407  H     H_    0.744996 0.181203 0.282267 0.000000
H408  H     H_    0.686408 0.232244 0.251014 0.000000
Br52  Br    Br    0.333748 0.384844 0.508429 0.000000
C664  C     C_R   0.385054 0.381404 0.437782 0.000000
C665  C     C_R   0.400283 0.335025 0.416847 0.000000
C666  C     C_R   0.419668 0.323779 0.362003 0.000000
C667  C     C_R   0.424815 0.360116 0.329334 0.000000
C668  C     C_R   0.418010 0.407627 0.350343 0.000000
C669  C     C_R   0.398868 0.420356 0.405727 0.000000
C670  C     C_R   0.401241 0.473667 0.422197 0.000000
N103  N     N_R   0.381803 0.499906 0.475353 0.000000
C671  C     C_R   0.410119 0.542651 0.458927 0.000000
C672  C     C_R   0.407539 0.583658 0.490272 0.000000
C673  C     C_R   0.431988 0.625553 0.463906 0.000000
C674  C     C_R   0.467599 0.624360 0.408951 0.000000
C675  C     C_R   0.477519 0.581064 0.379992 0.000000
C676  C     C_R   0.441740 0.543011 0.403877 0.000000
N104  N     N_R   0.435071 0.501882 0.378255 0.000000
H409  H     H_    0.392564 0.307082 0.444998 0.000000
H410  H     H_    0.426855 0.286990 0.344902 0.000000
H411  H     H_    0.433306 0.350524 0.287128 0.000000
H412  H     H_    0.419580 0.434218 0.323261 0.000000
H413  H     H_    0.378123 0.584544 0.531945 0.000000
H414  H     H_    0.420318 0.659903 0.484497 0.000000
H415  H     H_    0.487987 0.656819 0.389132 0.000000
H416  H     H_    0.512559 0.577458 0.340597 0.000000
Br53  Br    Br    0.565458 0.330513 0.339956 0.000000
C677  C     C_R   0.584204 0.396439 0.341599 0.000000
C678  C     C_R   0.596307 0.414422 0.384978 0.000000
C679  C     C_R   0.581534 0.460951 0.405462 0.000000
C680  C     C_R   0.562188 0.490243 0.377759 0.000000
C681  C     C_R   0.562203 0.474621 0.327980 0.000000
C682  C     C_R   0.570300 0.426838 0.310790 0.000000
C683  C     C_R   0.555623 0.409035 0.265130 0.000000
N105  N     N_R   0.576245 0.366245 0.233089 0.000000
C684  C     C_R   0.542596 0.362291 0.204341 0.000000
C685  C     C_R   0.536552 0.322344 0.173295 0.000000
C686  C     C_R   0.494423 0.323077 0.152017 0.000000
C687  C     C_R   0.461687 0.364155 0.159842 0.000000
C688  C     C_R   0.469225 0.404582 0.190508 0.000000
C689  C     C_R   0.508590 0.402188 0.214205 0.000000
N106  N     N_R   0.515686 0.433288 0.252763 0.000000
H417  H     H_    0.605967 0.389494 0.408571 0.000000
H418  H     H_    0.584031 0.474713 0.443193 0.000000
H419  H     H_    0.552958 0.527161 0.392405 0.000000
H420  H     H_    0.552319 0.499579 0.304508 0.000000
H421  H     H_    0.563187 0.291190 0.166167 0.000000
H422  H     H_    0.488686 0.292387 0.127116 0.000000
H423  H     H_    0.430387 0.364501 0.141380 0.000000
H424  H     H_    0.443195 0.435926 0.196871 0.000000
Br54  Br    Br    0.507821 0.785410 0.764025 0.000000
C690  C     C_R   0.479346 0.730686 0.807781 0.000000
C691  C     C_R   0.463385 0.739055 0.863658 0.000000
C692  C     C_R   0.444095 0.701610 0.898214 0.000000
C693  C     C_R   0.441385 0.655493 0.876628 0.000000
C694  C     C_R   0.455747 0.647196 0.821080 0.000000
C695  C     C_R   0.474834 0.684143 0.785745 0.000000
C696  C     C_R   0.485377 0.675725 0.726929 0.000000
N107  N     N_R   0.444914 0.697637 0.710602 0.000000
C697  C     C_R   0.484648 0.719267 0.666075 0.000000
C698  C     C_R   0.475605 0.754752 0.638123 0.000000
C699  C     C_R   0.524914 0.777153 0.598411 0.000000
C700  C     C_R   0.581090 0.767543 0.592088 0.000000
C701  C     C_R   0.588046 0.731919 0.621422 0.000000
C702  C     C_R   0.541100 0.706129 0.653446 0.000000
N108  N     N_R   0.545250 0.674404 0.686308 0.000000
H425  H     H_    0.466840 0.775307 0.880303 0.000000
H426  H     H_    0.432434 0.708240 0.941864 0.000000
H427  H     H_    0.428113 0.625699 0.903279 0.000000
H428  H     H_    0.451910 0.611330 0.805355 0.000000
H429  H     H_    0.431623 0.762537 0.644370 0.000000
H430  H     H_    0.520500 0.802209 0.571422 0.000000
H431  H     H_    0.618708 0.787856 0.564651 0.000000
H432  H     H_    0.627158 0.725691 0.625899 0.000000
Br55  Br    Br    0.466006 0.600595 0.631621 0.000000
C703  C     C_R   0.452964 0.642997 0.586023 0.000000
C704  C     C_R   0.494552 0.675192 0.554085 0.000000
C705  C     C_R   0.478308 0.712230 0.531733 0.000000
C706  C     C_R   0.419679 0.723944 0.553392 0.000000
C707  C     C_R   0.379016 0.692890 0.588588 0.000000
C708  C     C_R   0.395846 0.648796 0.597047 0.000000
C709  C     C_R   0.353159 0.618176 0.636394 0.000000
N109  N     N_R   0.330398 0.572489 0.624505 0.000000
C710  C     C_R   0.281159 0.570021 0.671060 0.000000
C711  C     C_R   0.240017 0.533577 0.682518 0.000000
C712  C     C_R   0.185119 0.541873 0.723015 0.000000
C713  C     C_R   0.174246 0.585506 0.752784 0.000000
C714  C     C_R   0.219315 0.618284 0.747957 0.000000
C715  C     C_R   0.273926 0.610066 0.706239 0.000000
N110  N     N_R   0.321808 0.640092 0.688001 0.000000
H433  H     H_    0.538711 0.674565 0.551563 0.000000
H434  H     H_    0.511224 0.736681 0.505146 0.000000
H435  H     H_    0.405802 0.756779 0.543197 0.000000
H436  H     H_    0.333340 0.702050 0.607455 0.000000
H437  H     H_    0.250369 0.499184 0.660742 0.000000
H438  H     H_    0.150446 0.514967 0.730677 0.000000
H439  H     H_    0.131322 0.591837 0.784701 0.000000
H440  H     H_    0.208931 0.648539 0.777005 0.000000
Br56  Br    Br    0.210811 0.224470 0.678485 0.000000
C716  C     C_R   0.225785 0.204350 0.738714 0.000000
C717  C     C_R   0.182205 0.193973 0.789763 0.000000
C718  C     C_R   0.197191 0.187068 0.832997 0.000000
C719  C     C_R   0.255292 0.192820 0.826065 0.000000
C720  C     C_R   0.298023 0.205470 0.775946 0.000000
C721  C     C_R   0.282768 0.209924 0.732357 0.000000
C722  C     C_R   0.326865 0.220281 0.678340 0.000000
N111  N     N_R   0.342795 0.184046 0.635817 0.000000
C723  C     C_R   0.399298 0.196536 0.606816 0.000000
C724  C     C_R   0.440124 0.168085 0.567103 0.000000
C725  C     C_R   0.498395 0.181808 0.549148 0.000000
C726  C     C_R   0.513713 0.225896 0.566974 0.000000
C727  C     C_R   0.471399 0.255961 0.604509 0.000000
C728  C     C_R   0.414653 0.238974 0.627038 0.000000
N112  N     N_R   0.369043 0.257535 0.671481 0.000000
H441  H     H_    0.136200 0.192488 0.796566 0.000000
H442  H     H_    0.163217 0.178337 0.872611 0.000000
H443  H     H_    0.267343 0.187285 0.859739 0.000000
H444  H     H_    0.343707 0.209567 0.770168 0.000000
H445  H     H_    0.427909 0.132865 0.556290 0.000000
H446  H     H_    0.532392 0.158449 0.521217 0.000000
H447  H     H_    0.559769 0.235705 0.551715 0.000000
H448  H     H_    0.482412 0.291212 0.616326 0.000000

loop_
_geom_bond_atom_site_label_1
_geom_bond_atom_site_label_2
_geom_bond_distance
_geom_bond_site_symmetry_2
_ccdc_geom_bond_type
Zn1   N1    2.225 .      S
Zn1   N72   2.209 .      S
Zn1   N96   2.365 .      S
Zn1   N108  2.347 .      S
Zn2   N8    2.240 .      S
Zn2   N14   2.355 .      S
Zn2   N94   2.257 .      S
Zn2   N100  2.311 1_556  S
Zn3   N4    2.205 .      S
Zn3   N19   2.180 .      S
Zn3   N103  2.320 .      S
Zn3   N109  2.290 .      S
Zn4   N3    2.182 .      S
Zn4   N5    2.201 .      S
Zn4   N15   2.309 .      S
Zn4   N112  2.188 .      S
Zn5   N7    2.213 .      S
Zn5   N9    2.251 .      S
Zn5   N11   2.132 .      S
Zn5   N65   2.306 .      S
Zn6   N13   2.350 .      S
Zn6   N16   2.258 .      S
Zn6   N79   2.254 1_556  S
Zn6   N88   2.216 .      S
Zn7   N17   2.297 .      S
Zn7   N81   2.322 .      S
Zn7   N98   2.244 .      S
Zn7   N101  2.160 .      S
Zn8   N12   2.380 1_455  S
Zn8   N20   2.112 .      S
Zn8   N76   2.309 .      S
Zn8   N90   2.269 .      S
Zn9   N2    2.329 .      S
Zn9   N6    2.296 .      S
Zn9   N10   2.335 .      S
Zn9   N18   2.334 .      S
Zn10  N21   2.233 .      S
Zn10  N23   2.265 .      S
Zn10  N25   2.109 .      S
Zn10  N28   2.356 .      S
Zn11  N22   2.200 .      S
Zn11  N30   2.375 .      S
Zn11  N32   2.343 .      S
Zn11  N33   2.261 .      S
Zn12  N24   2.276 .      S
Zn12  N36   2.282 .      S
Zn12  N37   2.240 .      S
Zn12  N40   2.304 .      S
Zn13  N26   2.101 .      S
Zn13  N42   2.142 .      S
Zn13  N43   2.134 .      S
Zn13  N45   2.204 1_455  S
Zn14  N27   2.340 .      S
Zn14  N47   2.184 1_455  S
Zn14  N49   2.211 .      S
Zn14  N51   2.258 1_455  S
Zn15  N34   2.238 .      S
Zn15  N38   2.212 .      S
Zn15  N53   2.211 .      S
Zn15  N56   2.279 .      S
Zn16  N39   2.256 .      S
Zn16  N58   2.226 .      S
Zn16  N60   2.186 .      S
Zn16  N61   2.144 .      S
Zn17  N29   2.212 .      S
Zn17  N48   2.188 1_455  S
Zn17  N63   2.210 .      S
Zn17  N66   2.286 1_455  S
Zn18  N35   2.238 .      S
Zn18  N50   2.235 .      S
Zn18  N68   2.281 .      S
Zn18  N70   2.229 .      S
Zn19  N52   2.231 .      S
Zn19  N71   2.292 .      S
Zn19  N73   2.261 .      S
Zn19  N75   2.339 .      S
Zn20  N31   2.333 .      S
Zn20  N78   2.186 .      S
Zn20  N80   2.311 .      S
Zn20  N82   2.259 .      S
Zn21  N41   2.142 1_556  S
Zn21  N84   2.314 .      S
Zn21  N86   2.313 .      S
Zn21  N87   2.271 .      S
Zn22  N44   2.288 .      S
Zn22  N77   2.205 .      S
Zn22  N89   2.181 .      S
Zn22  N92   2.113 .      S
Zn23  N57   2.214 1_556  S
Zn23  N74   2.295 .      S
Zn23  N85   2.319 .      S
Zn23  N93   2.364 .      S
Zn24  N46   2.351 .      S
Zn24  N59   2.233 .      S
Zn24  N95   2.342 .      S
Zn24  N97   2.246 .      S
Zn25  N55   2.320 .      S
Zn25  N99   2.226 .      S
Zn25  N102  2.149 .      S
Zn25  N105  2.137 .      S
Zn26  N62   2.171 .      S
Zn26  N91   2.040 .      S
Zn26  N104  2.164 .      S
Zn26  N106  2.168 .      S
Zn27  N67   2.299 .      S
Zn27  N83   2.245 .      S
Zn27  N107  2.323 .      S
Zn27  N110  2.202 .      S
Zn28  N54   2.270 .      S
Zn28  N64   2.218 .      S
Zn28  N69   2.201 .      S
Zn28  N111  2.156 .      S
Br1   C1    1.814 .      S
C2    H1    1.077 .      S
C3    H2    1.078 .      S
C4    H3    1.074 .      S
C5    H4    1.075 .      S
C6    C7    1.456 .      S
C9    H5    1.076 .      S
C10   H6    1.078 .      S
C11   H7    1.075 .      S
C12   H8    1.070 .      S
Br2   C14   1.936 .      S
C15   H9    1.077 .      S
C16   H10   1.067 .      S
C17   H11   1.062 .      S
C18   H12   1.069 .      S
C19   C20   1.395 .      S
C22   H13   1.066 .      S
C23   H14   1.072 .      S
C24   H15   1.063 .      S
C25   H16   1.071 .      S
Br3   C27   1.903 .      S
C28   H17   1.081 .      S
C29   H18   1.081 .      S
C30   H19   1.080 .      S
C31   H20   1.077 .      S
C32   C33   1.474 .      S
C35   H21   1.078 .      S
C36   H22   1.077 .      S
C37   H23   1.066 .      S
C38   H24   1.059 .      S
Br4   C40   1.864 .      S
C41   H25   1.078 .      S
C42   H26   1.081 .      S
C43   H27   1.081 .      S
C44   H28   1.080 .      S
C45   C46   1.459 .      S
C48   H29   1.071 .      S
C49   H30   1.081 .      S
C50   H31   1.081 .      S
C51   H32   1.069 .      S
Br5   C53   1.920 .      S
C54   H33   1.077 .      S
C55   H34   1.054 .      S
C56   H35   1.080 .      S
C57   H36   1.070 .      S
C58   C59   1.449 .      S
C61   H37   1.071 .      S
C62   H38   1.081 .      S
C63   H39   1.078 .      S
C64   H40   1.064 .      S
Br6   C66   1.860 1_455  S
C66   Br6   1.860 1_655  S
C67   H41   1.078 .      S
C68   H42   1.068 .      S
C69   H43   1.067 .      S
C70   H44   1.057 .      S
C71   C72   1.463 .      S
C74   H45   1.076 .      S
C75   H46   1.076 .      S
C76   H47   1.062 .      S
C77   H48   1.070 .      S
N12   Zn8   2.380 1_655  S
Br7   C79   1.906 .      S
C80   H49   1.077 .      S
C81   H50   1.081 .      S
C82   H51   1.074 .      S
C83   H52   1.075 .      S
C84   C85   1.470 .      S
C87   H53   1.072 .      S
C88   H54   1.073 .      S
C89   H55   1.048 1_455  S
C90   H56   1.076 .      S
H55   C89   1.048 1_655  S
Br8   C92   1.902 .      S
C93   H57   1.081 .      S
C94   H58   1.081 .      S
C95   H59   1.074 .      S
C96   H60   1.076 .      S
C97   C98   1.469 .      S
C100  H61   1.057 .      S
C101  H62   1.059 .      S
C102  H63   1.068 .      S
C103  H64   1.060 .      S
Br9   C105  1.829 .      S
C106  H65   1.072 .      S
C107  H66   1.062 .      S
C108  H67   1.059 .      S
C109  H68   1.080 .      S
C110  C111  1.414 .      S
C113  H69   1.067 .      S
C114  H70   1.080 .      S
C115  H71   1.081 .      S
C116  H72   1.063 .      S
Br10  C118  1.847 .      S
C119  H73   1.056 .      S
C120  H74   1.070 .      S
C121  H75   1.071 .      S
C122  H76   1.061 .      S
C123  C124  1.414 .      S
C126  H77   1.045 .      S
C127  H78   1.070 .      S
C128  H79   1.054 .      S
C129  H80   1.059 .      S
Br11  C131  1.849 .      S
C132  H81   1.081 .      S
C133  H82   1.081 .      S
C134  H83   1.080 .      S
C135  H84   1.072 .      S
C136  C137  1.519 1_565  S
C137  C136  1.519 1_545  S
C139  H85   1.074 .      S
C140  H86   1.081 1_455  S
C141  H87   1.081 1_455  S
C142  H88   1.077 .      S
H86   C140  1.081 1_655  S
H87   C141  1.081 1_655  S
Br12  C144  1.911 .      S
C145  H89   1.081 .      S
C146  H90   1.081 .      S
C147  H91   1.069 .      S
C148  H92   1.062 .      S
C149  C150  1.506 .      S
C152  H93   1.072 .      S
C153  H94   1.080 .      S
C154  H95   1.072 .      S
C155  H96   1.076 .      S
Br13  C157  1.880 .      S
C158  H97   1.079 .      S
C159  H98   1.079 .      S
C160  H99   1.081 .      S
C161  H100  1.081 .      S
C162  C163  1.452 .      S
C165  H101  1.074 .      S
C166  H102  1.075 .      S
C167  H103  1.078 .      S
C168  H104  1.071 .      S
Br14  C170  1.864 .      S
C171  H105  1.057 .      S
C172  H106  1.058 .      S
C173  H107  1.060 .      S
C174  H108  1.071 .      S
C175  C176  1.418 .      S
C178  H109  1.061 .      S
C179  H110  1.081 .      S
C180  H111  1.080 .      S
C181  H112  1.056 .      S
Br15  C183  1.907 .      S
C184  H113  1.058 .      S
C185  H114  1.071 .      S
C186  H115  1.077 .      S
C187  H116  1.069 .      S
C188  C189  1.406 .      S
C191  H117  1.038 .      S
C192  H118  1.081 .      S
C193  H119  1.074 1_455  S
C194  H120  1.063 .      S
H119  C193  1.074 1_655  S
Br16  C196  1.938 .      S
C197  H121  1.081 .      S
C198  H122  1.081 .      S
C199  H123  1.076 .      S
C200  H124  1.075 .      S
C201  C202  1.441 .      S
C204  H125  1.079 .      S
C205  H126  1.078 .      S
C206  H127  1.081 .      S
C207  H128  1.077 .      S
Br17  C209  1.926 .      S
C210  H129  1.063 .      S
C211  H130  1.074 1_545  S
C212  H131  1.063 .      S
C213  H132  1.059 .      S
C214  C215  1.388 .      S
C217  H133  1.079 .      S
C218  H134  1.080 .      S
C219  H135  1.079 .      S
C220  H136  1.058 .      S
H130  C211  1.074 1_565  S
Br18  C222  1.860 .      S
C223  H137  1.080 .      S
C224  H138  1.038 .      S
C225  H139  1.075 .      S
C226  H140  1.064 .      S
C227  C228  1.434 .      S
C230  H141  1.069 .      S
C231  H142  1.081 .      S
C232  H143  1.070 .      S
C233  H144  1.067 .      S
Br19  C235  1.840 1_565  S
C235  Br19  1.840 1_545  S
C236  H145  1.081 .      S
C237  H146  1.081 .      S
C238  H147  1.081 .      S
C239  H148  1.067 .      S
C240  C241  1.510 .      S
C243  H149  1.069 .      S
C244  H150  1.081 .      S
C245  H151  1.081 .      S
C246  H152  1.070 .      S
Br20  C248  1.898 .      S
C249  H153  1.077 .      S
C250  H154  1.081 .      S
C251  H155  1.078 .      S
C252  H156  1.081 .      S
C253  C254  1.458 .      S
C256  H157  1.066 .      S
C257  H158  1.076 .      S
C258  H159  1.070 .      S
C259  H160  1.064 .      S
Br21  C261  1.897 .      S
C262  H161  1.081 1_554  S
C263  H162  1.081 .      S
C264  H163  1.081 .      S
C265  H164  1.074 .      S
C266  C267  1.473 .      S
N41   Zn21  2.142 1_554  S
C269  H165  1.063 .      S
C270  H166  1.068 1_455  S
C271  H167  1.060 1_455  S
C272  H168  1.064 .      S
H161  C262  1.081 1_556  S
H166  C270  1.068 1_655  S
H167  C271  1.060 1_655  S
Br22  C274  1.864 .      S
C275  H169  1.078 .      S
C276  H170  1.081 .      S
C277  H171  1.081 .      S
C278  H172  1.079 .      S
C279  C280  1.457 .      S
C282  H173  1.058 .      S
C283  H174  1.066 .      S
C284  H175  1.056 .      S
C285  H176  1.060 .      S
Br23  C287  1.856 1_455  S
C287  Br23  1.856 1_655  S
C288  H177  1.065 1_655  S
C289  H178  1.066 .      S
C290  H179  1.066 .      S
C291  H180  1.073 .      S
C292  C293  1.411 .      S
N45   Zn13  2.204 1_655  S
C295  H181  1.075 1_655  S
C296  H182  1.081 .      S
C297  H183  1.079 .      S
C298  H184  1.051 .      S
H177  C288  1.065 1_455  S
H181  C295  1.075 1_455  S
Br24  C300  1.903 .      S
C301  H185  1.081 .      S
C302  H186  1.081 .      S
C303  H187  1.063 .      S
C304  H188  1.064 .      S
C305  C306  1.494 .      S
N47   Zn14  2.184 1_655  S
C308  H189  1.078 .      S
C309  H190  1.081 1_545  S
C310  H191  1.081 .      S
C311  H192  1.077 .      S
N48   Zn17  2.188 1_655  S
H190  C309  1.081 1_565  S
Br25  C313  1.859 1_655  S
C313  Br25  1.859 1_455  S
C314  H193  1.077 .      S
C315  H194  1.081 .      S
C316  H195  1.075 .      S
C317  H196  1.070 .      S
C318  C319  1.504 .      S
C321  H197  1.042 .      S
C322  H198  1.059 1_565  S
C323  H199  1.070 .      S
C324  H200  1.056 .      S
H198  C322  1.059 1_545  S
Br26  C326  1.889 .      S
C327  H201  1.062 .      S
C328  H202  1.047 .      S
C329  H203  1.078 .      S
C330  H204  1.062 .      S
C331  C332  1.404 .      S
N51   Zn14  2.258 1_655  S
C334  H205  1.072 .      S
C335  H206  1.081 .      S
C336  H207  1.081 .      S
C337  H208  1.081 .      S
Br27  C339  1.851 .      S
C340  H209  1.077 .      S
C341  H210  1.081 .      S
C342  H211  1.073 .      S
C343  H212  1.070 .      S
C344  C345  1.490 .      S
C347  H213  1.079 .      S
C348  H214  1.078 .      S
C349  H215  1.078 .      S
C350  H216  1.073 .      S
Br28  C352  1.923 .      S
C353  H217  1.079 .      S
C354  H218  1.070 .      S
C355  H219  1.077 .      S
C356  H220  1.072 .      S
C357  C358  1.454 .      S
C360  H221  1.071 .      S
C361  H222  1.079 .      S
C362  H223  1.081 .      S
C363  H224  1.056 .      S
Br29  C365  1.893 .      S
C366  H225  1.080 .      S
C367  H226  1.081 1_554  S
C368  H227  1.074 .      S
C369  H228  1.069 .      S
C370  C371  1.501 .      S
N57   Zn23  2.214 1_554  S
C373  H229  1.074 .      S
C374  H230  1.081 .      S
C375  H231  1.081 .      S
C376  H232  1.075 .      S
H226  C367  1.081 1_556  S
Br30  C378  1.880 .      S
C379  H233  1.064 .      S
C380  H234  1.078 .      S
C381  H235  1.075 .      S
C382  H236  1.058 .      S
C383  C384  1.448 .      S
C386  H237  1.050 .      S
C387  H238  1.081 .      S
C388  H239  1.080 .      S
C389  H240  1.062 .      S
Br31  C391  1.881 .      S
C392  H241  1.081 .      S
C393  H242  1.080 .      S
C394  H243  1.080 .      S
C395  H244  1.064 .      S
C396  C397  1.483 .      S
C399  H245  1.068 .      S
C400  H246  1.078 .      S
C401  H247  1.071 .      S
C402  H248  1.067 .      S
Br32  C404  1.882 .      S
C405  H249  1.067 .      S
C406  H250  1.076 .      S
C407  H251  1.065 .      S
C408  H252  1.061 .      S
C409  C410  1.408 .      S
C412  H253  1.076 .      S
C413  H254  1.075 .      S
C414  H255  1.080 .      S
C415  H256  1.070 .      S
Br33  C417  1.897 .      S
C418  H257  1.059 .      S
C419  H258  1.077 .      S
C420  H259  1.081 .      S
C421  H260  1.080 .      S
C422  C423  1.438 .      S
C425  H261  1.062 .      S
C426  H262  1.064 .      S
C427  H263  1.080 .      S
C428  H264  1.048 .      S
N66   Zn17  2.286 1_655  S
Br34  C430  1.881 .      S
C431  H265  1.081 .      S
C432  H266  1.081 .      S
C433  H267  1.081 .      S
C434  H268  1.061 .      S
C435  C436  1.490 .      S
C438  H269  1.058 .      S
C439  H270  1.074 .      S
C440  H271  1.080 .      S
C441  H272  1.059 .      S
Br35  C443  1.899 .      S
C444  H273  1.081 .      S
C445  H274  1.081 1_545  S
C446  H275  1.076 .      S
C447  H276  1.069 .      S
C448  C449  1.501 .      S
C451  H277  1.069 .      S
C452  H278  1.081 .      S
C453  H279  1.079 .      S
C454  H280  1.050 .      S
H274  C445  1.081 1_565  S
Br36  C456  1.906 .      S
C457  H281  1.081 .      S
C458  H282  1.081 .      S
C459  H283  1.081 .      S
C460  H284  1.078 .      S
C461  C462  1.463 .      S
C464  H285  1.060 .      S
C465  H286  1.055 .      S
C466  H287  1.073 .      S
C467  H288  1.071 .      S
Br37  C469  1.837 .      S
C470  H289  1.077 .      S
C471  H290  1.081 .      S
C472  H291  1.075 .      S
C473  H292  1.075 .      S
C474  C475  1.496 .      S
C477  H293  1.060 .      S
C478  H294  1.071 .      S
C479  H295  1.077 .      S
C480  H296  1.058 .      S
Br38  C482  1.839 .      S
C483  H297  1.073 .      S
C484  H298  1.064 .      S
C485  H299  1.066 .      S
C486  H300  1.079 .      S
C487  C488  1.422 .      S
C490  H301  1.040 .      S
C491  H302  1.067 .      S
C492  H303  1.072 .      S
C493  H304  1.046 1_655  S
H304  C493  1.046 1_455  S
Br39  C495  1.896 .      S
C496  H305  1.079 .      S
C497  H306  1.078 .      S
C498  H307  1.069 .      S
C499  H308  1.075 .      S
C500  C501  1.436 .      S
C503  H309  1.049 .      S
C504  H310  1.080 .      S
C505  H311  1.081 .      S
C506  H312  1.070 .      S
Br40  C508  1.872 1_655  S
C508  Br40  1.872 1_455  S
C509  H313  1.081 .      S
C510  H314  1.081 .      S
C511  H315  1.081 .      S
C512  H316  1.080 .      S
C513  C514  1.463 .      S
N79   Zn6   2.254 1_554  S
C516  H317  1.057 1_554  S
C517  H318  1.080 1_554  S
C518  H319  1.075 .      S
C519  H320  1.045 .      S
H317  C516  1.057 1_556  S
H318  C517  1.080 1_556  S
Br41  C521  1.893 .      S
C522  H321  1.081 .      S
C523  H322  1.081 .      S
C524  H323  1.079 .      S
C525  H324  1.067 .      S
C526  C527  1.483 .      S
C529  H325  1.010 .      S
C530  H326  1.064 .      S
C531  H327  1.076 .      S
C532  H328  1.059 .      S
Br42  C534  1.880 .      S
C535  H329  1.074 .      S
C536  H330  1.071 .      S
C537  H331  1.078 .      S
C538  H332  1.074 .      S
C539  C540  1.457 .      S
C542  H333  1.078 .      S
C543  H334  1.076 .      S
C544  H335  1.080 .      S
C545  H336  1.071 .      S
Br43  C547  1.895 1_455  S
C547  Br43  1.895 1_655  S
C548  H337  1.080 .      S
C549  H338  1.078 .      S
C550  H339  1.068 .      S
C551  H340  1.079 .      S
C552  C553  1.445 1_554  S
C553  C552  1.445 1_556  S
C555  H341  1.058 .      S
C556  H342  1.073 .      S
C557  H343  1.077 .      S
C558  H344  1.055 .      S
Br44  C560  1.871 .      S
C561  H345  1.059 .      S
C562  H346  1.075 .      S
C563  H347  1.064 1_455  S
C564  H348  1.046 .      S
C565  C566  1.445 1_554  S
C566  C565  1.445 1_556  S
C568  H349  1.071 .      S
C569  H350  1.077 .      S
C570  H351  1.081 .      S
C571  H352  1.057 .      S
H347  C563  1.064 1_655  S
Br45  C573  1.866 .      S
C574  H353  1.053 .      S
C575  H354  1.067 .      S
C576  H355  1.078 .      S
C577  H356  1.062 .      S
C578  C579  1.412 .      S
C581  H357  1.080 .      S
C582  H358  1.076 .      S
C583  H359  1.076 .      S
C584  H360  1.075 .      S
Br46  C586  1.867 .      S
C587  H361  1.078 .      S
C588  H362  1.077 .      S
C589  H363  1.057 .      S
C590  H364  1.072 .      S
C591  C592  1.446 .      S
C594  H365  1.072 .      S
C595  H366  1.075 .      S
C596  H367  1.072 .      S
C597  H368  1.055 .      S
Br47  C599  1.877 .      S
C600  H369  1.076 .      S
C601  H370  1.051 .      S
C602  H371  1.050 .      S
C603  H372  1.080 .      S
C604  C605  1.369 .      S
C607  H373  1.039 .      S
C608  H374  1.078 .      S
C609  H375  1.068 .      S
C610  H376  1.078 .      S
Br48  C612  1.898 .      S
C613  H377  1.066 .      S
C614  H378  1.073 .      S
C615  H379  1.074 .      S
C616  H380  1.076 .      S
C617  C618  1.441 .      S
C620  H381  1.071 .      S
C621  H382  1.067 .      S
C622  H383  1.081 .      S
C623  H384  1.075 .      S
Br49  C625  1.884 .      S
C626  H385  1.058 .      S
C627  H386  1.049 .      S
C628  H387  1.043 .      S
C629  H388  1.061 .      S
C630  C631  1.414 .      S
C633  H389  1.075 .      S
C634  H390  1.075 .      S
C635  H391  1.078 .      S
C636  H392  1.070 .      S
Br50  C638  1.890 .      S
C639  H393  1.081 1_554  S
C640  H394  1.081 .      S
C641  H395  1.080 .      S
C642  H396  1.065 .      S
C643  C644  1.471 .      S
C646  H397  1.061 .      S
C647  H398  1.080 .      S
C648  H399  1.077 .      S
C649  H400  1.050 .      S
N100  Zn2   2.311 1_554  S
H393  C639  1.081 1_556  S
Br51  C651  1.850 .      S
C652  H401  1.081 .      S
C653  H402  1.079 .      S
C654  H403  1.062 .      S
C655  H404  1.070 .      S
C656  C657  1.468 .      S
C659  H405  1.052 .      S
C660  H406  1.079 .      S
C661  H407  1.079 .      S
C662  H408  1.066 .      S
Br52  C664  1.786 .      S
C665  H409  1.075 .      S
C666  H410  1.078 .      S
C667  H411  1.071 .      S
C668  H412  1.059 .      S
C669  C670  1.514 .      S
C672  H413  1.048 .      S
C673  H414  1.054 .      S
C674  H415  1.072 .      S
C675  H416  1.054 .      S
Br53  C677  1.863 .      S
C678  H417  1.067 .      S
C679  H418  1.073 .      S
C680  H419  1.069 .      S
C681  H420  1.068 .      S
C682  C683  1.454 .      S
C685  H421  1.073 .      S
C686  H422  1.079 .      S
C687  H423  1.078 .      S
C688  H424  1.071 .      S
Br54  C690  1.907 .      S
C691  H425  1.081 .      S
C692  H426  1.081 .      S
C693  H427  1.079 .      S
C694  H428  1.064 .      S
C695  C696  1.482 .      S
C698  H429  1.065 .      S
C699  H430  1.078 .      S
C700  H431  1.080 .      S
C701  H432  1.049 .      S
Br55  C703  1.884 .      S
C704  H433  1.070 .      S
C705  H434  1.080 .      S
C706  H435  1.081 .      S
C707  H436  1.069 .      S
C708  C709  1.438 .      S
C711  H437  1.064 .      S
C712  H438  1.071 .      S
C713  H439  1.067 .      S
C714  H440  1.063 .      S
Br56  C716  1.918 .      S
C717  H441  1.078 .      S
C718  H442  1.081 .      S
C719  H443  1.080 .      S
C720  H444  1.079 .      S
C721  C722  1.444 .      S
C724  H445  1.061 .      S
C725  H446  1.073 .      S
C726  H447  1.070 .      S
C727  H448  1.060 .      S
C1    C2    1.359 .      A
C1    C6    1.346 .      A
C2    C3    1.364 .      A
C3    C4    1.371 .      A
C4    C5    1.373 .      A
C5    C6    1.377 .      A
C7    N1    1.405 .      A
C7    N2    1.417 .      A
N1    C8    1.342 .      A
C8    C9    1.366 .      A
C8    C13   1.372 .      A
C9    C10   1.383 .      A
C10   C11   1.379 .      A
C11   C12   1.379 .      A
C12   C13   1.369 .      A
C13   N2    1.356 .      A
C14   C15   1.360 .      A
C14   C19   1.365 .      A
C15   C16   1.368 .      A
C16   C17   1.371 .      A
C17   C18   1.352 .      A
C18   C19   1.340 .      A
C20   N3    1.372 .      A
C20   N4    1.400 .      A
N3    C21   1.342 .      A
C21   C22   1.372 .      A
C21   C26   1.370 .      A
C22   C23   1.377 .      A
C23   C24   1.377 .      A
C24   C25   1.369 .      A
C25   C26   1.357 .      A
C26   N4    1.342 .      A
C27   C28   1.380 .      A
C27   C32   1.389 .      A
C28   C29   1.376 .      A
C29   C30   1.375 .      A
C30   C31   1.381 .      A
C31   C32   1.379 .      A
C33   N5    1.414 .      A
C33   N6    1.423 .      A
N5    C34   1.330 .      A
C34   C35   1.365 .      A
C34   C39   1.355 .      A
C35   C36   1.376 .      A
C36   C37   1.375 .      A
C37   C38   1.366 .      A
C38   C39   1.347 .      A
C39   N6    1.348 .      A
C40   C41   1.374 .      A
C40   C45   1.361 .      A
C41   C42   1.377 .      A
C42   C43   1.374 .      A
C43   C44   1.373 .      A
C44   C45   1.384 .      A
C46   N7    1.401 .      A
C46   N8    1.409 .      A
N7    C47   1.345 .      A
C47   C48   1.367 .      A
C47   C52   1.370 .      A
C48   C49   1.384 .      A
C49   C50   1.385 .      A
C50   C51   1.382 .      A
C51   C52   1.369 .      A
C52   N8    1.349 .      A
C53   C54   1.364 .      A
C53   C58   1.385 .      A
C54   C55   1.360 .      A
C55   C56   1.370 .      A
C56   C57   1.364 .      A
C57   C58   1.371 .      A
C59   N9    1.411 .      A
C59   N10   1.407 .      A
N9    C60   1.343 .      A
C60   C61   1.370 .      A
C60   C65   1.374 .      A
C61   C62   1.378 .      A
C62   C63   1.383 .      A
C63   C64   1.385 .      A
C64   C65   1.359 .      A
C65   N10   1.356 .      A
C66   C67   1.371 .      A
C66   C71   1.369 .      A
C67   C68   1.357 .      A
C68   C69   1.364 .      A
C69   C70   1.371 .      A
C70   C71   1.359 .      A
C72   N11   1.385 .      A
C72   N12   1.440 .      A
N11   C73   1.321 .      A
C73   C74   1.363 .      A
C73   C78   1.369 1_655  A
C74   C75   1.366 1_655  A
C75   C74   1.366 1_455  A
C75   C76   1.385 .      A
C76   C77   1.369 .      A
C77   C78   1.358 .      A
C78   C73   1.369 1_455  A
C78   N12   1.360 1_455  A
N12   C78   1.360 1_655  A
C79   C80   1.373 .      A
C79   C84   1.383 .      A
C80   C81   1.369 1_655  A
C81   C80   1.369 1_455  A
C81   C82   1.372 .      A
C82   C83   1.380 .      A
C83   C84   1.370 1_455  A
C84   C83   1.370 1_655  A
C85   N13   1.420 1_655  A
C85   N14   1.435 .      A
N13   C85   1.420 1_455  A
N13   C86   1.341 .      A
C86   C87   1.347 .      A
C86   C91   1.377 1_455  A
C87   C88   1.374 .      A
C88   C89   1.383 .      A
C89   C90   1.352 1_455  A
C90   C89   1.352 1_655  A
C90   C91   1.343 .      A
C91   C86   1.377 1_655  A
C91   N14   1.325 .      A
C92   C93   1.377 .      A
C92   C97   1.386 .      A
C93   C94   1.374 .      A
C94   C95   1.375 .      A
C95   C96   1.379 .      A
C96   C97   1.378 .      A
C98   N15   1.412 .      A
C98   N16   1.428 .      A
N15   C99   1.349 .      A
C99   C100  1.321 .      A
C99   C104  1.352 .      A
C100  C101  1.389 .      A
C101  C102  1.360 .      A
C102  C103  1.346 .      A
C103  C104  1.345 .      A
C104  N16   1.300 .      A
C105  C106  1.349 .      A
C105  C110  1.333 .      A
C106  C107  1.360 .      A
C107  C108  1.361 .      A
C108  C109  1.354 .      A
C109  C110  1.373 .      A
C111  N17   1.393 .      A
C111  N18   1.422 .      A
N17   C112  1.358 .      A
C112  C113  1.369 .      A
C112  C117  1.378 .      A
C113  C114  1.382 .      A
C114  C115  1.383 .      A
C115  C116  1.376 .      A
C116  C117  1.363 .      A
C117  N18   1.343 .      A
C118  C119  1.358 .      A
C118  C123  1.348 .      A
C119  C120  1.358 .      A
C120  C121  1.360 .      A
C121  C122  1.349 .      A
C122  C123  1.356 .      A
C124  N19   1.373 .      A
C124  N20   1.400 .      A
N19   C125  1.330 .      A
C125  C126  1.313 .      A
C125  C130  1.336 .      A
C126  C127  1.374 .      A
C127  C128  1.353 .      A
C128  C129  1.366 .      A
C129  C130  1.363 .      A
C130  N20   1.335 .      A
C131  C132  1.380 .      A
C131  C136  1.383 1_545  A
C132  C133  1.367 .      A
C133  C134  1.366 1_545  A
C134  C133  1.366 1_565  A
C134  C135  1.377 .      A
C135  C136  1.403 .      A
C136  C131  1.383 1_565  A
C137  N21   1.397 1_545  A
C137  N22   1.403 .      A
N21   C137  1.397 1_565  A
N21   C138  1.357 .      A
C138  C139  1.374 .      A
C138  C143  1.367 1_565  A
C139  C140  1.382 .      A
C140  C141  1.385 1_565  A
C141  C140  1.385 1_545  A
C141  C142  1.383 .      A
C142  C143  1.378 .      A
C143  C138  1.367 1_545  A
C143  N22   1.355 .      A
C144  C145  1.379 .      A
C144  C149  1.417 .      A
C145  C146  1.358 .      A
C146  C147  1.359 .      A
C147  C148  1.387 .      A
C148  C149  1.373 .      A
C150  N23   1.408 .      A
C150  N24   1.415 .      A
N23   C151  1.353 .      A
C151  C152  1.378 .      A
C151  C156  1.383 .      A
C152  C153  1.385 .      A
C153  C154  1.390 .      A
C154  C155  1.381 .      A
C155  C156  1.364 .      A
C156  N24   1.347 .      A
C157  C158  1.376 1_455  A
C157  C162  1.362 .      A
C158  C157  1.376 1_655  A
C158  C159  1.382 .      A
C159  C160  1.371 .      A
C160  C161  1.374 1_655  A
C161  C160  1.374 1_455  A
C161  C162  1.376 .      A
C163  N25   1.389 .      A
C163  N26   1.389 .      A
N25   C164  1.342 .      A
C164  C165  1.361 .      A
C164  C169  1.356 .      A
C165  C166  1.380 .      A
C166  C167  1.381 .      A
C167  C168  1.378 .      A
C168  C169  1.365 .      A
C169  N26   1.339 .      A
C170  C171  1.349 .      A
C170  C175  1.346 .      A
C171  C172  1.349 .      A
C172  C173  1.355 .      A
C173  C174  1.344 .      A
C174  C175  1.363 .      A
C176  N27   1.406 .      A
C176  N28   1.422 .      A
N27   C177  1.344 .      A
C177  C178  1.365 1_455  A
C177  C182  1.381 .      A
C178  C177  1.365 1_655  A
C178  C179  1.376 .      A
C179  C180  1.381 .      A
C180  C181  1.381 1_655  A
C181  C180  1.381 1_455  A
C181  C182  1.352 .      A
C182  N28   1.354 .      A
C183  C184  1.331 .      A
C183  C188  1.350 .      A
C184  C185  1.378 .      A
C185  C186  1.361 .      A
C186  C187  1.360 .      A
C187  C188  1.376 .      A
C189  N29   1.389 .      A
C189  N30   1.421 .      A
N29   C190  1.335 .      A
C190  C191  1.361 1_455  A
C190  C195  1.361 .      A
C191  C190  1.361 1_655  A
C191  C192  1.368 .      A
C192  C193  1.365 1_655  A
C193  C192  1.365 1_455  A
C193  C194  1.372 .      A
C194  C195  1.336 .      A
C195  N30   1.362 .      A
C196  C197  1.380 .      A
C196  C201  1.379 .      A
C197  C198  1.377 .      A
C198  C199  1.373 .      A
C199  C200  1.372 .      A
C200  C201  1.373 .      A
C202  N31   1.430 .      A
C202  N32   1.413 .      A
N31   C203  1.346 .      A
C203  C204  1.367 .      A
C203  C208  1.383 .      A
C204  C205  1.385 .      A
C205  C206  1.385 .      A
C206  C207  1.380 .      A
C207  C208  1.368 .      A
C208  N32   1.354 .      A
C209  C210  1.363 .      A
C209  C214  1.316 .      A
C210  C211  1.372 .      A
C211  C212  1.359 1_545  A
C212  C211  1.359 1_565  A
C212  C213  1.362 1_565  A
C213  C212  1.362 1_545  A
C213  C214  1.360 .      A
C215  N33   1.388 .      A
C215  N34   1.394 .      A
N33   C216  1.345 .      A
C216  C217  1.366 .      A
C216  C221  1.385 .      A
C217  C218  1.386 .      A
C218  C219  1.383 .      A
C219  C220  1.379 .      A
C220  C221  1.367 .      A
C221  N34   1.359 .      A
C222  C223  1.347 .      A
C222  C227  1.388 .      A
C223  C224  1.341 .      A
C224  C225  1.354 .      A
C225  C226  1.358 .      A
C226  C227  1.362 .      A
C228  N35   1.402 .      A
C228  N36   1.404 .      A
N35   C229  1.323 .      A
C229  C230  1.353 .      A
C229  C234  1.369 .      A
C230  C231  1.369 .      A
C231  C232  1.377 .      A
C232  C233  1.393 .      A
C233  C234  1.352 .      A
C234  N36   1.355 .      A
C235  C236  1.380 .      A
C235  C240  1.380 .      A
C236  C237  1.369 .      A
C237  C238  1.368 .      A
C238  C239  1.377 .      A
C239  C240  1.395 .      A
C241  N37   1.412 1_545  A
C241  N38   1.406 .      A
N37   C241  1.412 1_565  A
N37   C242  1.340 .      A
C242  C243  1.373 .      A
C242  C247  1.376 1_565  A
C243  C244  1.377 .      A
C244  C245  1.378 1_565  A
C245  C244  1.378 1_545  A
C245  C246  1.378 .      A
C246  C247  1.374 .      A
C247  C242  1.376 1_545  A
C247  N38   1.350 .      A
C248  C249  1.379 .      A
C248  C253  1.377 .      A
C249  C250  1.378 .      A
C250  C251  1.376 .      A
C251  C252  1.377 .      A
C252  C253  1.382 .      A
C254  N39   1.415 .      A
C254  N40   1.420 .      A
N39   C255  1.339 .      A
C255  C256  1.362 .      A
C255  C260  1.372 .      A
C256  C257  1.374 .      A
C257  C258  1.372 .      A
C258  C259  1.381 .      A
C259  C260  1.359 .      A
C260  N40   1.348 .      A
C261  C262  1.381 .      A
C261  C266  1.387 .      A
C262  C263  1.376 .      A
C263  C264  1.375 .      A
C264  C265  1.378 .      A
C265  C266  1.380 .      A
C267  N41   1.400 .      A
C267  N42   1.409 .      A
N41   C268  1.329 .      A
C268  C269  1.342 .      A
C268  C273  1.344 .      A
C269  C270  1.371 .      A
C270  C271  1.370 .      A
C271  C272  1.361 .      A
C272  C273  1.354 .      A
C273  N42   1.325 .      A
C274  C275  1.383 .      A
C274  C279  1.348 .      A
C275  C276  1.378 .      A
C276  C277  1.378 .      A
C277  C278  1.377 .      A
C278  C279  1.376 .      A
C280  N43   1.390 .      A
C280  N44   1.423 .      A
N43   C281  1.319 .      A
C281  C282  1.356 .      A
C281  C286  1.345 .      A
C282  C283  1.369 .      A
C283  C284  1.370 .      A
C284  C285  1.359 .      A
C285  C286  1.328 .      A
C286  N44   1.342 .      A
C287  C288  1.350 .      A
C287  C292  1.352 .      A
C288  C289  1.362 .      A
C289  C290  1.362 .      A
C290  C291  1.356 .      A
C291  C292  1.360 .      A
C293  N45   1.406 .      A
C293  N46   1.411 .      A
N45   C294  1.317 .      A
C294  C295  1.363 .      A
C294  C299  1.363 .      A
C295  C296  1.370 .      A
C296  C297  1.376 .      A
C297  C298  1.385 .      A
C298  C299  1.348 .      A
C299  N46   1.367 .      A
C300  C301  1.379 .      A
C300  C305  1.416 1_655  A
C301  C302  1.365 .      A
C302  C303  1.365 1_645  A
C303  C302  1.365 1_465  A
C303  C304  1.376 .      A
C304  C305  1.372 1_565  A
C305  C300  1.416 1_455  A
C305  C304  1.372 1_545  A
C306  N47   1.388 1_445  A
C306  N48   1.395 1_455  A
N47   C306  1.388 1_665  A
N47   C307  1.353 .      A
C307  C308  1.378 .      A
C307  C312  1.367 1_565  A
C308  C309  1.384 1_565  A
C309  C308  1.384 1_545  A
C309  C310  1.386 .      A
C310  C311  1.382 .      A
C311  C312  1.382 .      A
C312  C307  1.367 1_545  A
C312  N48   1.349 .      A
N48   C306  1.395 1_655  A
C313  C314  1.380 .      A
C313  C318  1.388 .      A
C314  C315  1.364 .      A
C315  C316  1.361 .      A
C316  C317  1.379 .      A
C317  C318  1.380 .      A
C319  N49   1.421 .      A
C319  N50   1.416 .      A
N49   C320  1.317 .      A
C320  C321  1.350 .      A
C320  C325  1.344 .      A
C321  C322  1.325 .      A
C322  C323  1.360 .      A
C323  C324  1.383 .      A
C324  C325  1.353 .      A
C325  N50   1.343 .      A
C326  C327  1.351 1_655  A
C326  C331  1.351 .      A
C327  C326  1.351 1_455  A
C327  C328  1.373 .      A
C328  C329  1.364 .      A
C329  C330  1.361 .      A
C330  C331  1.352 1_455  A
C331  C330  1.352 1_655  A
C332  N51   1.394 .      A
C332  N52   1.398 .      A
N51   C333  1.365 .      A
C333  C334  1.377 .      A
C333  C338  1.384 .      A
C334  C335  1.385 .      A
C335  C336  1.388 .      A
C336  C337  1.382 .      A
C337  C338  1.370 .      A
C338  N52   1.345 .      A
C339  C340  1.379 .      A
C339  C344  1.376 .      A
C340  C341  1.365 .      A
C341  C342  1.368 .      A
C342  C343  1.385 .      A
C343  C344  1.372 .      A
C345  N53   1.409 .      A
C345  N54   1.426 .      A
N53   C346  1.347 .      A
C346  C347  1.369 .      A
C346  C351  1.372 .      A
C347  C348  1.385 .      A
C348  C349  1.387 .      A
C349  C350  1.379 .      A
C350  C351  1.369 .      A
C351  N54   1.349 .      A
C352  C353  1.372 .      A
C352  C357  1.376 .      A
C353  C354  1.359 .      A
C354  C355  1.375 .      A
C355  C356  1.377 .      A
C356  C357  1.377 .      A
C358  N55   1.431 .      A
C358  N56   1.403 .      A
N55   C359  1.349 .      A
C359  C360  1.372 .      A
C359  C364  1.378 .      A
C360  C361  1.383 .      A
C361  C362  1.384 .      A
C362  C363  1.380 .      A
C363  C364  1.364 .      A
C364  N56   1.356 .      A
C365  C366  1.378 1_554  A
C365  C370  1.396 .      A
C366  C365  1.378 1_556  A
C366  C367  1.368 1_556  A
C367  C366  1.368 1_554  A
C367  C368  1.368 .      A
C368  C369  1.378 .      A
C369  C370  1.383 .      A
C371  N57   1.416 .      A
C371  N58   1.399 .      A
N57   C372  1.344 .      A
C372  C373  1.372 .      A
C372  C377  1.371 .      A
C373  C374  1.383 .      A
C374  C375  1.386 .      A
C375  C376  1.383 .      A
C376  C377  1.375 .      A
C377  N58   1.350 .      A
C378  C379  1.360 .      A
C378  C383  1.388 .      A
C379  C380  1.354 .      A
C380  C381  1.360 .      A
C381  C382  1.365 .      A
C382  C383  1.348 .      A
C384  N59   1.402 .      A
C384  N60   1.410 .      A
N59   C385  1.354 .      A
C385  C386  1.368 .      A
C385  C390  1.361 .      A
C386  C387  1.380 .      A
C387  C388  1.383 .      A
C388  C389  1.378 .      A
C389  C390  1.359 .      A
C390  N60   1.339 .      A
C391  C392  1.379 .      A
C391  C396  1.388 .      A
C392  C393  1.368 .      A
C393  C394  1.364 .      A
C394  C395  1.376 .      A
C395  C396  1.377 .      A
C397  N61   1.403 .      A
C397  N62   1.404 .      A
N61   C398  1.333 .      A
C398  C399  1.350 .      A
C398  C403  1.354 .      A
C399  C400  1.371 .      A
C400  C401  1.369 .      A
C401  C402  1.377 .      A
C402  C403  1.371 .      A
C403  N62   1.342 .      A
C404  C405  1.366 .      A
C404  C409  1.362 .      A
C405  C406  1.360 .      A
C406  C407  1.343 .      A
C407  C408  1.371 .      A
C408  C409  1.333 .      A
C410  N63   1.409 .      A
C410  N64   1.379 .      A
N63   C411  1.345 .      A
C411  C412  1.358 .      A
C411  C416  1.370 .      A
C412  C413  1.386 .      A
C413  C414  1.380 .      A
C414  C415  1.375 .      A
C415  C416  1.361 .      A
C416  N64   1.346 .      A
C417  C418  1.369 .      A
C417  C422  1.367 1_455  A
C418  C419  1.368 .      A
C419  C420  1.370 1_455  A
C420  C419  1.370 1_655  A
C420  C421  1.373 .      A
C421  C422  1.374 .      A
C422  C417  1.367 1_655  A
C423  N65   1.422 .      A
C423  N66   1.411 .      A
N65   C424  1.349 .      A
C424  C425  1.362 .      A
C424  C429  1.374 .      A
C425  C426  1.375 .      A
C426  C427  1.373 .      A
C427  C428  1.372 .      A
C428  C429  1.363 .      A
C429  N66   1.349 .      A
C430  C431  1.380 .      A
C430  C435  1.387 .      A
C431  C432  1.373 .      A
C432  C433  1.371 .      A
C433  C434  1.377 .      A
C434  C435  1.368 .      A
C436  N67   1.424 .      A
C436  N68   1.425 .      A
N67   C437  1.332 .      A
C437  C438  1.349 .      A
C437  C442  1.361 .      A
C438  C439  1.373 .      A
C439  C440  1.383 .      A
C440  C441  1.381 .      A
C441  C442  1.369 .      A
C442  N68   1.354 .      A
C443  C444  1.378 .      A
C443  C448  1.415 .      A
C444  C445  1.363 .      A
C445  C446  1.364 1_545  A
C446  C445  1.364 1_565  A
C446  C447  1.381 .      A
C447  C448  1.376 1_565  A
C448  C447  1.376 1_545  A
C449  N69   1.400 .      A
C449  N70   1.393 1_545  A
N69   C450  1.346 .      A
C450  C451  1.379 .      A
C450  C455  1.370 1_545  A
C451  C452  1.379 .      A
C452  C453  1.379 1_545  A
C453  C452  1.379 1_565  A
C453  C454  1.380 .      A
C454  C455  1.358 .      A
C455  C450  1.370 1_565  A
C455  N70   1.351 .      A
N70   C449  1.393 1_565  A
C456  C457  1.378 .      A
C456  C461  1.384 .      A
C457  C458  1.375 .      A
C458  C459  1.376 .      A
C459  C460  1.378 .      A
C460  C461  1.374 .      A
C462  N71   1.423 .      A
C462  N72   1.404 .      A
N71   C463  1.335 .      A
C463  C464  1.358 .      A
C463  C468  1.344 .      A
C464  C465  1.368 .      A
C465  C466  1.371 .      A
C466  C467  1.376 .      A
C467  C468  1.337 .      A
C468  N72   1.324 .      A
C469  C470  1.377 .      A
C469  C474  1.377 .      A
C470  C471  1.362 .      A
C471  C472  1.364 .      A
C472  C473  1.385 .      A
C473  C474  1.379 .      A
C475  N73   1.420 .      A
C475  N74   1.420 .      A
N73   C476  1.352 .      A
C476  C477  1.364 .      A
C476  C481  1.362 .      A
C477  C478  1.389 .      A
C478  C479  1.366 .      A
C479  C480  1.362 .      A
C480  C481  1.336 .      A
C481  N74   1.320 .      A
C482  C483  1.346 .      A
C482  C487  1.370 1_455  A
C483  C484  1.355 .      A
C484  C485  1.376 1_455  A
C485  C484  1.376 1_655  A
C485  C486  1.351 .      A
C486  C487  1.355 .      A
C487  C482  1.370 1_655  A
C488  N75   1.413 .      A
C488  N76   1.424 1_655  A
N75   C489  1.348 .      A
C489  C490  1.332 .      A
C489  C494  1.376 .      A
C490  C491  1.368 .      A
C491  C492  1.366 .      A
C492  C493  1.347 .      A
C493  C494  1.351 .      A
C494  N76   1.326 1_655  A
N76   C488  1.424 1_455  A
N76   C494  1.326 1_455  A
C495  C496  1.359 1_455  A
C495  C500  1.384 .      A
C496  C495  1.359 1_655  A
C496  C497  1.367 .      A
C497  C498  1.361 1_655  A
C498  C497  1.361 1_455  A
C498  C499  1.356 .      A
C499  C500  1.366 .      A
C501  N77   1.391 .      A
C501  N78   1.389 .      A
N77   C502  1.356 .      A
C502  C503  1.371 .      A
C502  C507  1.368 .      A
C503  C504  1.381 .      A
C504  C505  1.379 .      A
C505  C506  1.380 .      A
C506  C507  1.361 .      A
C507  N78   1.343 .      A
C508  C509  1.377 .      A
C508  C513  1.367 .      A
C509  C510  1.379 .      A
C510  C511  1.376 .      A
C511  C512  1.378 .      A
C512  C513  1.379 .      A
C514  N79   1.426 .      A
C514  N80   1.409 .      A
N79   C515  1.315 .      A
C515  C516  1.350 .      A
C515  C520  1.344 .      A
C516  C517  1.368 .      A
C517  C518  1.367 .      A
C518  C519  1.384 .      A
C519  C520  1.352 .      A
C520  N80   1.366 .      A
C521  C522  1.381 .      A
C521  C526  1.394 .      A
C522  C523  1.373 .      A
C523  C524  1.372 .      A
C524  C525  1.378 .      A
C525  C526  1.374 .      A
C527  N81   1.429 .      A
C527  N82   1.424 1_655  A
N81   C528  1.342 .      A
C528  C529  1.331 .      A
C528  C533  1.345 .      A
C529  C530  1.334 .      A
C530  C531  1.360 1_655  A
C531  C530  1.360 1_455  A
C531  C532  1.378 .      A
C532  C533  1.358 1_455  A
C533  C532  1.358 1_655  A
C533  N82   1.330 1_655  A
N82   C527  1.424 1_455  A
N82   C533  1.330 1_455  A
C534  C535  1.365 .      A
C534  C539  1.371 .      A
C535  C536  1.364 .      A
C536  C537  1.364 .      A
C537  C538  1.371 .      A
C538  C539  1.377 .      A
C540  N83   1.403 .      A
C540  N84   1.424 .      A
N83   C541  1.347 .      A
C541  C542  1.371 .      A
C541  C546  1.379 .      A
C542  C543  1.387 .      A
C543  C544  1.386 .      A
C544  C545  1.380 .      A
C545  C546  1.359 .      A
C546  N84   1.350 .      A
C547  C548  1.359 .      A
C547  C552  1.392 .      A
C548  C549  1.363 .      A
C549  C550  1.354 .      A
C550  C551  1.375 .      A
C551  C552  1.378 .      A
C553  N85   1.409 .      A
C553  N86   1.426 1_655  A
N85   C554  1.348 .      A
C554  C555  1.359 .      A
C554  C559  1.375 1_655  A
C555  C556  1.379 1_655  A
C556  C555  1.379 1_455  A
C556  C557  1.378 .      A
C557  C558  1.371 .      A
C558  C559  1.362 .      A
C559  C554  1.375 1_455  A
C559  N86   1.350 .      A
N86   C553  1.426 1_455  A
C560  C561  1.351 .      A
C560  C565  1.364 .      A
C561  C562  1.369 .      A
C562  C563  1.353 .      A
C563  C564  1.357 .      A
C564  C565  1.368 .      A
C566  N87   1.420 .      A
C566  N88   1.381 .      A
N87   C567  1.340 .      A
C567  C568  1.367 .      A
C567  C572  1.368 .      A
C568  C569  1.377 .      A
C569  C570  1.383 .      A
C570  C571  1.385 .      A
C571  C572  1.374 .      A
C572  N88   1.362 .      A
C573  C574  1.348 .      A
C573  C578  1.330 .      A
C574  C575  1.379 .      A
C575  C576  1.341 .      A
C576  C577  1.353 .      A
C577  C578  1.368 .      A
C579  N89   1.378 .      A
C579  N90   1.409 .      A
N89   C580  1.329 .      A
C580  C581  1.358 .      A
C580  C585  1.369 .      A
C581  C582  1.362 .      A
C582  C583  1.399 .      A
C583  C584  1.375 .      A
C584  C585  1.350 .      A
C585  N90   1.344 .      A
C586  C587  1.377 .      A
C586  C591  1.375 .      A
C587  C588  1.368 .      A
C588  C589  1.374 .      A
C589  C590  1.370 .      A
C590  C591  1.351 .      A
C592  N91   1.377 .      A
C592  N92   1.384 .      A
N91   C593  1.335 .      A
C593  C594  1.370 .      A
C593  C598  1.357 .      A
C594  C595  1.376 .      A
C595  C596  1.381 .      A
C596  C597  1.384 .      A
C597  C598  1.354 .      A
C598  N92   1.349 .      A
C599  C600  1.350 1_655  A
C599  C604  1.355 .      A
C600  C599  1.350 1_455  A
C600  C601  1.360 .      A
C601  C602  1.366 1_456  A
C602  C601  1.366 1_654  A
C602  C603  1.334 .      A
C603  C604  1.340 1_554  A
C604  C603  1.340 1_556  A
C605  N93   1.393 .      A
C605  N94   1.406 .      A
N93   C606  1.359 .      A
C606  C607  1.348 1_556  A
C606  C611  1.378 .      A
C607  C606  1.348 1_554  A
C607  C608  1.371 .      A
C608  C609  1.371 1_554  A
C609  C608  1.371 1_556  A
C609  C610  1.380 .      A
C610  C611  1.360 .      A
C611  N94   1.334 .      A
C612  C613  1.369 .      A
C612  C617  1.360 .      A
C613  C614  1.369 .      A
C614  C615  1.362 .      A
C615  C616  1.377 .      A
C616  C617  1.365 .      A
C618  N95   1.429 .      A
C618  N96   1.401 .      A
N95   C619  1.349 .      A
C619  C620  1.364 .      A
C619  C624  1.386 .      A
C620  C621  1.378 .      A
C621  C622  1.375 .      A
C622  C623  1.375 .      A
C623  C624  1.396 .      A
C624  N96   1.374 .      A
C625  C626  1.354 .      A
C625  C630  1.368 .      A
C626  C627  1.349 .      A
C627  C628  1.335 .      A
C628  C629  1.350 .      A
C629  C630  1.338 .      A
C631  N97   1.414 .      A
C631  N98   1.392 .      A
N97   C632  1.335 .      A
C632  C633  1.357 .      A
C632  C637  1.375 .      A
C633  C634  1.370 .      A
C634  C635  1.388 .      A
C635  C636  1.378 .      A
C636  C637  1.366 .      A
C637  N98   1.353 .      A
C638  C639  1.378 .      A
C638  C643  1.387 .      A
C639  C640  1.371 .      A
C640  C641  1.376 .      A
C641  C642  1.378 .      A
C642  C643  1.371 .      A
C644  N99   1.409 .      A
C644  N100  1.425 .      A
N99   C645  1.338 .      A
C645  C646  1.365 .      A
C645  C650  1.364 .      A
C646  C647  1.377 .      A
C647  C648  1.381 .      A
C648  C649  1.382 .      A
C649  C650  1.350 .      A
C650  N100  1.350 .      A
C651  C652  1.375 .      A
C651  C656  1.380 .      A
C652  C653  1.366 .      A
C653  C654  1.371 .      A
C654  C655  1.367 .      A
C655  C656  1.368 .      A
C657  N101  1.404 .      A
C657  N102  1.393 .      A
N101  C658  1.329 .      A
C658  C659  1.347 .      A
C658  C663  1.354 .      A
C659  C660  1.369 .      A
C660  C661  1.376 .      A
C661  C662  1.386 .      A
C662  C663  1.360 .      A
C663  N102  1.344 .      A
C664  C665  1.370 .      A
C664  C669  1.369 .      A
C665  C666  1.355 .      A
C666  C667  1.349 .      A
C667  C668  1.382 .      A
C668  C669  1.376 .      A
C670  N103  1.445 .      A
C670  N104  1.396 .      A
N103  C671  1.351 .      A
C671  C672  1.347 .      A
C671  C676  1.350 .      A
C672  C673  1.382 .      A
C673  C674  1.363 .      A
C674  C675  1.353 .      A
C675  C676  1.357 .      A
C676  N104  1.322 .      A
C677  C678  1.363 .      A
C677  C682  1.369 .      A
C678  C679  1.369 .      A
C679  C680  1.364 .      A
C680  C681  1.365 .      A
C681  C682  1.366 .      A
C683  N105  1.396 .      A
C683  N106  1.384 .      A
N105  C684  1.342 .      A
C684  C685  1.371 .      A
C684  C689  1.370 .      A
C685  C686  1.381 .      A
C686  C687  1.387 .      A
C687  C688  1.387 .      A
C688  C689  1.370 .      A
C689  N106  1.353 .      A
C690  C691  1.379 .      A
C690  C695  1.395 .      A
C691  C692  1.373 .      A
C692  C693  1.371 .      A
C693  C694  1.377 .      A
C694  C695  1.374 .      A
C696  N107  1.425 .      A
C696  N108  1.433 .      A
N107  C697  1.350 .      A
C697  C698  1.359 .      A
C697  C702  1.361 .      A
C698  C699  1.398 .      A
C699  C700  1.371 .      A
C700  C701  1.366 .      A
C701  C702  1.334 .      A
C702  N108  1.324 .      A
C703  C704  1.371 .      A
C703  C708  1.339 .      A
C704  C705  1.381 .      A
C705  C706  1.372 .      A
C706  C707  1.375 .      A
C707  C708  1.376 .      A
C709  N109  1.426 .      A
C709  N110  1.382 .      A
N109  C710  1.339 .      A
C710  C711  1.354 .      A
C710  C715  1.367 .      A
C711  C712  1.363 .      A
C712  C713  1.370 .      A
C713  C714  1.372 .      A
C714  C715  1.370 .      A
C715  N110  1.349 .      A
C716  C717  1.385 .      A
C716  C721  1.353 .      A
C717  C718  1.378 .      A
C718  C719  1.377 .      A
C719  C720  1.377 .      A
C720  C721  1.378 .      A
C722  N111  1.397 .      A
C722  N112  1.396 .      A
N111  C723  1.333 .      A
C723  C724  1.358 .      A
C723  C728  1.358 .      A
C724  C725  1.364 .      A
C725  C726  1.369 .      A
C726  C727  1.378 .      A
C727  C728  1.356 .      A
C728  N112  1.347 .      A
