data_str_m1_o12038_CFI
_audit_creation_date              2015-10-01T06:41:06-0700
_symmetry_space_group_name_H-M    P1
_symmetry_Int_Tables_number       1
_space_group_crystal_system       triclinic
loop_
_symmetry_equiv_pos_as_xyz
  x,y,z
_cell_length_a                    10.8294476
_cell_length_b                    30.8787465
_cell_length_c                    29.5026625
_cell_angle_alpha                 119.275473
_cell_angle_beta                  89.3236597
_cell_angle_gamma                 99.9364038
_cell_volume                      8446.24451642

loop_
_atom_site_label
_atom_site_type_symbol
_atom_site_description
_atom_site_fract_x
_atom_site_fract_y
_atom_site_fract_z
_atom_type_partial_charge
Zn1   Zn    Zn3+2 0.191188 0.713325 0.094034 0.000000
Zn2   Zn    Zn3+2 0.645315 0.675116 0.795500 0.000000
Zn3   Zn    Zn3+2 0.779563 0.912092 0.985932 0.000000
Zn4   Zn    Zn3+2 0.121224 0.581793 0.223267 0.000000
Zn5   Zn    Zn3+2 0.662836 0.677997 0.366781 0.000000
Zn6   Zn    Zn3+2 0.755810 0.854093 0.169402 0.000000
Zn7   Zn    Zn3+2 0.668254 0.738842 0.609298 0.000000
Zn8   Zn    Zn3+2 0.387482 0.229546 0.750900 0.000000
Zn9   Zn    Zn3+2 0.404041 0.237330 0.969067 0.000000
Zn10  Zn    Zn3+2 0.953557 0.355895 0.808955 0.000000
Zn11  Zn    Zn3+2 0.102447 0.578347 0.840300 0.000000
Zn12  Zn    Zn3+2 0.329434 0.012374 0.561288 0.000000
Zn13  Zn    Zn3+2 0.318521 0.007099 0.936635 0.000000
Zn14  Zn    Zn3+2 0.960710 0.362604 0.027316 0.000000
Zn15  Zn    Zn3+2 0.241538 0.881554 0.684234 0.000000
Zn16  Zn    Zn3+2 0.796141 0.921835 0.417238 0.000000
N1    N     N_2   0.365535 0.483717 0.965643 0.000000
C1    C     C_R   0.338385 0.523741 0.011871 0.000000
C2    C     C_R   0.326911 0.518997 0.055722 0.000000
C3    C     C_R   0.278325 0.554692 0.098781 0.000000
C4    C     C_R   0.244669 0.594432 0.097438 0.000000
C5    C     C_R   0.258999 0.598916 0.053798 0.000000
C6    C     C_R   0.307605 0.564460 0.011127 0.000000
C7    C     C_R   0.178579 0.629843 0.138393 0.000000
N2    N     N_R   0.124509 0.622407 0.178162 0.000000
C8    C     C_R   0.040243 0.652878 0.190849 0.000000
C9    C     C_R   0.973829 0.665591 0.232401 0.000000
C10   C     C_R   0.894434 0.699331 0.244143 0.000000
N3    N     N_2   0.825519 0.714502 0.288230 0.000000
C11   C     C_R   0.902711 0.726323 0.218510 0.000000
C12   C     C_R   0.988167 0.719644 0.182428 0.000000
C13   C     C_R   0.051906 0.680525 0.166322 0.000000
N4    N     N_R   0.143549 0.669180 0.133681 0.000000
H1    H     H_    0.347693 0.449468 0.964650 0.000000
H2    H     H_    0.344094 0.484869 0.932525 0.000000
H3    H     H_    0.344729 0.484886 0.053819 0.000000
H4    H     H_    0.247909 0.549684 0.130428 0.000000
H5    H     H_    0.226740 0.629477 0.053956 0.000000
H6    H     H_    0.313576 0.567530 0.976173 0.000000
H7    H     H_    0.009824 0.656796 0.258150 0.000000
H8    H     H_    0.751969 0.731265 0.287806 0.000000
H9    H     H_    0.820407 0.694671 0.307735 0.000000
H10   H     H_    0.851848 0.756963 0.231372 0.000000
H11   H     H_    0.008694 0.748442 0.173270 0.000000
N5    N     N_2   0.637304 0.582854 0.075950 0.000000
C14   C     C_R   0.709473 0.628410 0.083270 0.000000
C15   C     C_R   0.652425 0.663786 0.081225 0.000000
C16   C     C_R   0.722817 0.709018 0.088660 0.000000
C17   C     C_R   0.851554 0.717076 0.096316 0.000000
C18   C     C_R   0.906544 0.679106 0.092549 0.000000
C19   C     C_R   0.837518 0.636483 0.089693 0.000000
C20   C     C_R   0.936875 0.765205 0.113005 0.000000
N6    N     N_R   0.900459 0.811741 0.142833 0.000000
C21   C     C_R   0.010577 0.841496 0.167477 0.000000
C22   C     C_R   0.027870 0.891727 0.202081 0.000000
C23   C     C_R   0.146933 0.917055 0.225928 0.000000
N7    N     N_2   0.169678 0.969501 0.260716 0.000000
C24   C     C_R   0.243696 0.890405 0.215928 0.000000
C25   C     C_R   0.222942 0.839348 0.179718 0.000000
C26   C     C_R   0.106777 0.816083 0.153265 0.000000
N8    N     N_R   0.066659 0.767211 0.116543 0.000000
H12   H     H_    0.550275 0.573541 0.056467 0.000000
H13   H     H_    0.688773 0.554621 0.063082 0.000000
H14   H     H_    0.552675 0.654509 0.072959 0.000000
H15   H     H_    0.678830 0.736451 0.085942 0.000000
H16   H     H_    0.005504 0.684231 0.093851 0.000000
H17   H     H_    0.885022 0.610349 0.093110 0.000000
H18   H     H_    0.948770 0.909489 0.208681 0.000000
H19   H     H_    0.263587 0.985904 0.267641 0.000000
H20   H     H_    0.111074 0.987869 0.252135 0.000000
H21   H     H_    0.335770 0.909554 0.236325 0.000000
H22   H     H_    0.294389 0.818579 0.174272 0.000000
N9    N     N_2   0.311023 0.940773 0.085557 0.000000
C27   C     C_R   0.343401 0.908444 0.102336 0.000000
C28   C     C_R   0.261018 0.864729 0.091369 0.000000
C29   C     C_R   0.298363 0.830620 0.103027 0.000000
C30   C     C_R   0.417520 0.839853 0.124250 0.000000
C31   C     C_R   0.494601 0.885776 0.140661 0.000000
C32   C     C_R   0.459023 0.919827 0.128393 0.000000
C33   C     C_R   0.461310 0.800499 0.129234 0.000000
N10   N     N_R   0.382713 0.755749 0.120231 0.000000
C34   C     C_R   0.461695 0.736793 0.137335 0.000000
C35   C     C_R   0.435634 0.692748 0.136906 0.000000
C36   C     C_R   0.525438 0.679940 0.157862 0.000000
N11   N     N_2   0.496322 0.639991 0.168184 0.000000
C37   C     C_R   0.642541 0.709700 0.174983 0.000000
C38   C     C_R   0.671429 0.754191 0.173142 0.000000
C39   C     C_R   0.575944 0.767162 0.155437 0.000000
N12   N     N_R   0.582845 0.807061 0.148829 0.000000
H23   H     H_    0.233577 0.924592 0.058915 0.000000
H24   H     H_    0.387596 0.957653 0.075069 0.000000
H25   H     H_    0.170842 0.856538 0.071269 0.000000
H26   H     H_    0.242503 0.794350 0.091802 0.000000
H27   H     H_    0.581970 0.893849 0.162582 0.000000
H28   H     H_    0.521355 0.954819 0.137804 0.000000
H29   H     H_    0.346662 0.671018 0.121694 0.000000
H30   H     H_    0.533410 0.653294 0.205510 0.000000
H31   H     H_    0.402436 0.624145 0.161292 0.000000
H32   H     H_    0.705776 0.695783 0.189612 0.000000
H33   H     H_    0.763476 0.778162 0.184936 0.000000
N13   N     N_2   0.287876 0.720380 0.990792 0.000000
C40   C     C_R   0.400931 0.736250 0.976340 0.000000
C41   C     C_R   0.433440 0.705489 0.927600 0.000000
C42   C     C_R   0.523723 0.724781 0.906479 0.000000
C43   C     C_R   0.577214 0.775212 0.931884 0.000000
C44   C     C_R   0.540211 0.806364 0.981427 0.000000
C45   C     C_R   0.453455 0.786220 0.002611 0.000000
C46   C     C_R   0.676692 0.788368 0.903671 0.000000
N14   N     N_R   0.698244 0.750378 0.855530 0.000000
C47   C     C_R   0.801202 0.772816 0.844397 0.000000
C48   C     C_R   0.869509 0.748760 0.803215 0.000000
C49   C     C_R   0.981499 0.775882 0.801120 0.000000
N15   N     N_2   0.049734 0.754614 0.757328 0.000000
C50   C     C_R   0.027613 0.823663 0.842134 0.000000
C51   C     C_R   0.956438 0.847144 0.883988 0.000000
C52   C     C_R   0.840591 0.821333 0.883072 0.000000
N16   N     N_R   0.762604 0.834299 0.921525 0.000000
H34   H     H_    0.237384 0.693815 0.956627 0.000000
H35   H     H_    0.244129 0.750213 0.012159 0.000000
H36   H     H_    0.386004 0.666602 0.905108 0.000000
H37   H     H_    0.553353 0.699981 0.869408 0.000000
H38   H     H_    0.578408 0.846048 0.007476 0.000000
H39   H     H_    0.421465 0.811214 0.038619 0.000000
H40   H     H_    0.837631 0.709848 0.773578 0.000000
H41   H     H_    0.102477 0.781709 0.750721 0.000000
H42   H     H_    0.992418 0.725980 0.725775 0.000000
H43   H     H_    0.119809 0.841967 0.839982 0.000000
H44   H     H_    0.997592 0.879597 0.920099 0.000000
N17   N     N_2   0.332182 0.863461 0.808843 0.000000
C53   C     C_R   0.407919 0.827077 0.785390 0.000000
C54   C     C_R   0.487539 0.818858 0.814557 0.000000
C55   C     C_R   0.559275 0.782562 0.789725 0.000000
C56   C     C_R   0.560929 0.757164 0.736776 0.000000
C57   C     C_R   0.487597 0.767785 0.708421 0.000000
C58   C     C_R   0.407155 0.801514 0.732569 0.000000
C59   C     C_R   0.626923 0.714958 0.707601 0.000000
N18   N     N_R   0.653923 0.682611 0.725491 0.000000
C60   C     C_R   0.692758 0.646393 0.682247 0.000000
C61   C     C_R   0.729760 0.604030 0.677084 0.000000
C62   C     C_R   0.759713 0.569517 0.628471 0.000000
N19   N     N_2   0.794248 0.524803 0.621176 0.000000
C63   C     C_R   0.751549 0.577795 0.586450 0.000000
C64   C     C_R   0.715584 0.621114 0.592450 0.000000
C65   C     C_R   0.688950 0.655820 0.641238 0.000000
N20   N     N_R   0.651029 0.700038 0.655703 0.000000
H45   H     H_    0.317208 0.872220 0.846284 0.000000
H46   H     H_    0.254316 0.856635 0.785105 0.000000
H47   H     H_    0.494754 0.840851 0.856365 0.000000
H48   H     H_    0.617982 0.776153 0.811987 0.000000
H49   H     H_    0.494164 0.745236 0.667874 0.000000
H50   H     H_    0.343233 0.810497 0.713269 0.000000
H51   H     H_    0.735109 0.597663 0.709839 0.000000
H52   H     H_    0.782617 0.496308 0.582893 0.000000
H53   H     H_    0.759912 0.514658 0.647998 0.000000
H54   H     H_    0.771509 0.549650 0.548368 0.000000
H55   H     H_    0.701911 0.625088 0.558797 0.000000
N21   N     N_2   0.988871 0.714031 0.952125 0.000000
C66   C     C_R   0.935090 0.753497 0.988345 0.000000
C67   C     C_R   0.827439 0.761275 0.972992 0.000000
C68   C     C_R   0.798612 0.807469 0.001601 0.000000
C69   C     C_R   0.849629 0.839096 0.050035 0.000000
C70   C     C_R   0.951100 0.830390 0.068692 0.000000
C71   C     C_R   0.997510 0.787640 0.036343 0.000000
C72   C     C_R   0.795080 0.882590 0.079416 0.000000
N22   N     N_R   0.766941 0.912562 0.059402 0.000000
C73   C     C_R   0.730566 0.950430 0.102252 0.000000
C74   C     C_R   0.704152 0.994461 0.107537 0.000000
C75   C     C_R   0.675024 0.029783 0.156110 0.000000
N23   N     N_2   0.654459 0.076737 0.164110 0.000000
C76   C     C_R   0.667720 0.019629 0.197296 0.000000
C77   C     C_R   0.693415 0.974694 0.191258 0.000000
C78   C     C_R   0.729108 0.941360 0.143653 0.000000
N24   N     N_R   0.765747 0.897187 0.129951 0.000000
H56   H     H_    0.922508 0.683717 0.927188 0.000000
H57   H     H_    0.065370 0.709684 0.967902 0.000000
H58   H     H_    0.775998 0.734720 0.936212 0.000000
H59   H     H_    0.743339 0.822609 0.987264 0.000000
H60   H     H_    0.999363 0.859978 0.105069 0.000000
H61   H     H_    0.081909 0.780641 0.047554 0.000000
H62   H     H_    0.709561 0.002006 0.075369 0.000000
H63   H     H_    0.597061 0.093523 0.193307 0.000000
H64   H     H_    0.640405 0.077960 0.130352 0.000000
H65   H     H_    0.642447 0.047297 0.234566 0.000000
H66   H     H_    0.685205 0.966669 0.223078 0.000000
N25   N     N_2   0.553162 0.531358 0.107661 0.000000
C79   C     C_R   0.640766 0.558036 0.151064 0.000000
C80   C     C_R   0.598172 0.586434 0.198557 0.000000
C81   C     C_R   0.682873 0.617163 0.240632 0.000000
C82   C     C_R   0.804437 0.611562 0.237906 0.000000
C83   C     C_R   0.848558 0.582428 0.190707 0.000000
C84   C     C_R   0.766988 0.556938 0.146676 0.000000
C85   C     C_R   0.868311 0.620028 0.284610 0.000000
N26   N     N_R   0.811977 0.635796 0.331246 0.000000
C86   C     C_R   0.874986 0.615871 0.353460 0.000000
C87   C     C_R   0.844217 0.609921 0.395518 0.000000
C88   C     C_R   0.918572 0.585601 0.409819 0.000000
N27   N     N_2   0.884739 0.575244 0.450193 0.000000
C89   C     C_R   0.025288 0.570672 0.384276 0.000000
C90   C     C_R   0.055521 0.577001 0.341858 0.000000
C91   C     C_R   0.975769 0.597877 0.325839 0.000000
N28   N     N_R   0.976216 0.600443 0.281354 0.000000
H67   H     H_    0.465840 0.537668 0.119531 0.000000
H68   H     H_    0.563400 0.494833 0.082750 0.000000
H69   H     H_    0.498288 0.584539 0.202834 0.000000
H70   H     H_    0.654706 0.641658 0.277543 0.000000
H71   H     H_    0.944163 0.576699 0.188388 0.000000
H72   H     H_    0.802229 0.534089 0.110132 0.000000
H73   H     H_    0.761961 0.621672 0.415485 0.000000
H74   H     H_    0.922052 0.546256 0.448978 0.000000
H75   H     H_    0.791241 0.574779 0.457010 0.000000
H76   H     H_    0.082913 0.552382 0.396603 0.000000
H77   H     H_    0.135121 0.563438 0.320501 0.000000
N29   N     N_2   0.060500 0.684455 0.461209 0.000000
C92   C     C_R   0.146788 0.682738 0.425082 0.000000
C93   C     C_R   0.105083 0.675445 0.377631 0.000000
C94   C     C_R   0.183357 0.661909 0.338254 0.000000
C95   C     C_R   0.304460 0.662322 0.348026 0.000000
C96   C     C_R   0.348475 0.670432 0.395231 0.000000
C97   C     C_R   0.268842 0.679795 0.433768 0.000000
C98   C     C_R   0.373890 0.638245 0.304304 0.000000
N30   N     N_R   0.304903 0.594924 0.262570 0.000000
C99   C     C_R   0.376187 0.560622 0.256498 0.000000
C100  C     C_R   0.340007 0.508868 0.234137 0.000000
C101  C     C_R   0.428318 0.482116 0.235893 0.000000
N31   N     N_2   0.408715 0.429727 0.203705 0.000000
C102  C     C_R   0.541378 0.506453 0.265780 0.000000
C103  C     C_R   0.571076 0.558201 0.292651 0.000000
C104  C     C_R   0.488439 0.584298 0.286611 0.000000
N32   N     N_R   0.493341 0.634112 0.315893 0.000000
H78   H     H_    0.063239 0.653903 0.465803 0.000000
H79   H     H_    0.971065 0.683866 0.449529 0.000000
H80   H     H_    0.015504 0.682970 0.372014 0.000000
H81   H     H_    0.155839 0.649509 0.298503 0.000000
H82   H     H_    0.441614 0.665308 0.400212 0.000000
H83   H     H_    0.302197 0.683074 0.469659 0.000000
H84   H     H_    0.247633 0.489217 0.214119 0.000000
H85   H     H_    0.473422 0.414968 0.214401 0.000000
H86   H     H_    0.415905 0.422223 0.165893 0.000000
H87   H     H_    0.605624 0.484702 0.268670 0.000000
H88   H     H_    0.652107 0.576923 0.320298 0.000000
N33   N     N_2   0.128791 0.811209 0.540888 0.000000
C105  C     C_R   0.004701 0.801605 0.523526 0.000000
C106  C     C_R   0.918593 0.815009 0.559784 0.000000
C107  C     C_R   0.801561 0.784999 0.545815 0.000000
C108  C     C_R   0.771368 0.748972 0.495919 0.000000
C109  C     C_R   0.851121 0.741090 0.457707 0.000000
C110  C     C_R   0.971859 0.765951 0.472663 0.000000
C111  C     C_R   0.671850 0.709439 0.486936 0.000000
N34   N     N_R   0.634196 0.696875 0.525071 0.000000
C112  C     C_R   0.560040 0.651225 0.495493 0.000000
C113  C     C_R   0.499349 0.619050 0.511696 0.000000
C114  C     C_R   0.426690 0.573785 0.474402 0.000000
N35   N     N_2   0.362530 0.539583 0.489258 0.000000
C115  C     C_R   0.416462 0.561802 0.422377 0.000000
C116  C     C_R   0.480962 0.594199 0.406425 0.000000
C117  C     C_R   0.554015 0.638484 0.443625 0.000000
N36   N     N_R   0.626635 0.674709 0.436695 0.000000
H89   H     H_    0.142066 0.831713 0.580879 0.000000
H90   H     H_    0.158752 0.777319 0.522182 0.000000
H91   H     H_    0.952510 0.841942 0.599621 0.000000
H92   H     H_    0.731781 0.782423 0.570876 0.000000
H93   H     H_    0.827867 0.708384 0.419463 0.000000
H94   H     H_    0.044856 0.751289 0.447885 0.000000
H95   H     H_    0.510611 0.628015 0.551826 0.000000
H96   H     H_    0.339920 0.502910 0.459056 0.000000
H97   H     H_    0.399846 0.544486 0.523736 0.000000
H98   H     H_    0.358269 0.526542 0.393956 0.000000
H99   H     H_    0.472349 0.585088 0.366268 0.000000
N37   N     N_2   0.724631 0.421542 0.916376 0.000000
C118  C     C_R   0.648872 0.374398 0.899284 0.000000
C119  C     C_R   0.686595 0.342744 0.914288 0.000000
C120  C     C_R   0.614619 0.296519 0.899611 0.000000
C121  C     C_R   0.503380 0.283737 0.871383 0.000000
C122  C     C_R   0.468545 0.313827 0.853611 0.000000
C123  C     C_R   0.537784 0.360713 0.869968 0.000000
C124  C     C_R   0.420979 0.237455 0.857741 0.000000
N38   N     N_R   0.383325 0.219336 0.891418 0.000000
C125  C     C_R   0.291824 0.180060 0.861266 0.000000
C126  C     C_R   0.215652 0.149674 0.875480 0.000000
C127  C     C_R   0.112858 0.117860 0.842249 0.000000
N39   N     N_2   0.018687 0.095605 0.861073 0.000000
C128  C     C_R   0.096611 0.111678 0.792992 0.000000
C129  C     C_R   0.182655 0.139177 0.777646 0.000000
C130  C     C_R   0.276404 0.175095 0.813177 0.000000
N40   N     N_R   0.358937 0.210790 0.809190 0.000000
H100  H     H_    0.757599 0.435775 0.953847 0.000000
H101  H     H_    0.696645 0.446295 0.906934 0.000000
H102  H     H_    0.770335 0.355143 0.939131 0.000000
H103  H     H_    0.641864 0.271020 0.910966 0.000000
H104  H     H_    0.384496 0.301709 0.828463 0.000000
H105  H     H_    0.500410 0.386572 0.861936 0.000000
H106  H     H_    0.230299 0.151440 0.912048 0.000000
H107  H     H_    0.929856 0.086289 0.843294 0.000000
H108  H     H_    0.029608 0.110023 0.900693 0.000000
H109  H     H_    0.016065 0.086023 0.766683 0.000000
H110  H     H_    0.174838 0.132304 0.739369 0.000000
N41   N     N_2   0.967615 0.168798 0.871775 0.000000
C131  C     C_R   0.016390 0.204224 0.856592 0.000000
C132  C     C_R   0.951617 0.204807 0.817620 0.000000
C133  C     C_R   0.996852 0.239860 0.802858 0.000000
C134  C     C_R   0.114165 0.269436 0.821777 0.000000
C135  C     C_R   0.179063 0.269614 0.861905 0.000000
C136  C     C_R   0.127773 0.237635 0.880106 0.000000
C137  C     C_R   0.168519 0.293406 0.792346 0.000000
N42   N     N_R   0.098407 0.319132 0.778778 0.000000
C138  C     C_R   0.146640 0.314901 0.734924 0.000000
C139  C     C_R   0.107067 0.331534 0.703368 0.000000
C140  C     C_R   0.162687 0.319337 0.657278 0.000000
N43   N     N_2   0.124014 0.335887 0.623894 0.000000
C141  C     C_R   0.253716 0.289516 0.643087 0.000000
C142  C     C_R   0.291182 0.272635 0.675381 0.000000
C143  C     C_R   0.238277 0.287182 0.721959 0.000000
N44   N     N_R   0.258703 0.274143 0.758245 0.000000
H111  H     H_    0.875861 0.151588 0.857709 0.000000
H112  H     H_    0.997046 0.178130 0.908785 0.000000
H113  H     H_    0.867922 0.176468 0.798143 0.000000
H114  H     H_    0.945225 0.242468 0.773848 0.000000
H115  H     H_    0.267475 0.294776 0.880282 0.000000
H116  H     H_    0.177473 0.237179 0.911122 0.000000
H117  H     H_    0.033769 0.352635 0.713776 0.000000
H118  H     H_    0.143305 0.314559 0.585792 0.000000
H119  H     H_    0.035933 0.344949 0.629582 0.000000
H120  H     H_    0.293927 0.278655 0.606199 0.000000
H121  H     H_    0.355676 0.247217 0.662875 0.000000
N45   N     N_2   0.408037 0.469910 0.842656 0.000000
C144  C     C_R   0.476756 0.430699 0.821582 0.000000
C145  C     C_R   0.416884 0.382210 0.787139 0.000000
C146  C     C_R   0.480997 0.343138 0.771777 0.000000
C147  C     C_R   0.601465 0.352104 0.791268 0.000000
C148  C     C_R   0.666598 0.400610 0.819505 0.000000
C149  C     C_R   0.603381 0.440397 0.836154 0.000000
C150  C     C_R   0.656962 0.308702 0.778176 0.000000
N46   N     N_R   0.581804 0.260912 0.756066 0.000000
C151  C     C_R   0.665506 0.231398 0.729784 0.000000
C152  C     C_R   0.645532 0.179689 0.699425 0.000000
C153  C     C_R   0.738461 0.158866 0.666947 0.000000
N47   N     N_2   0.722756 0.106300 0.633224 0.000000
C154  C     C_R   0.847699 0.189783 0.666637 0.000000
C155  C     C_R   0.872360 0.240701 0.702717 0.000000
C156  C     C_R   0.781063 0.260116 0.735200 0.000000
N48   N     N_R   0.782537 0.308997 0.769154 0.000000
H122  H     H_    0.312445 0.457275 0.839278 0.000000
H123  H     H_    0.445928 0.498709 0.878792 0.000000
H124  H     H_    0.319914 0.375135 0.773372 0.000000
H125  H     H_    0.442431 0.304800 0.743552 0.000000
H126  H     H_    0.764753 0.406298 0.829594 0.000000
H127  H     H_    0.652312 0.478949 0.860602 0.000000
H128  H     H_    0.560305 0.156770 0.700810 0.000000
H129  H     H_    0.667621 0.084822 0.646233 0.000000
H130  H     H_    0.804337 0.094432 0.617910 0.000000
H131  H     H_    0.917758 0.173243 0.640445 0.000000
H132  H     H_    0.958011 0.264642 0.703571 0.000000
N49   N     N_2   0.845596 0.201674 0.574235 0.000000
C157  C     C_R   0.733156 0.184076 0.589288 0.000000
C158  C     C_R   0.670338 0.218225 0.626603 0.000000
C159  C     C_R   0.564387 0.201181 0.643628 0.000000
C160  C     C_R   0.520094 0.150172 0.623576 0.000000
C161  C     C_R   0.579611 0.115922 0.584344 0.000000
C162  C     C_R   0.687899 0.132838 0.567929 0.000000
C163  C     C_R   0.403917 0.133240 0.640981 0.000000
N50   N     N_R   0.339844 0.166522 0.679206 0.000000
C164  C     C_R   0.221757 0.139825 0.667760 0.000000
C165  C     C_R   0.112780 0.156065 0.688040 0.000000
C166  C     C_R   0.010228 0.118333 0.679794 0.000000
N51   N     N_2   0.907673 0.130075 0.710046 0.000000
C167  C     C_R   0.013676 0.067708 0.646856 0.000000
C168  C     C_R   0.119391 0.053473 0.621614 0.000000
C169  C     C_R   0.221088 0.090995 0.631682 0.000000
N52   N     N_R   0.334367 0.085074 0.613219 0.000000
H133  H     H_    0.878864 0.239760 0.598133 0.000000
H134  H     H_    0.910588 0.179419 0.568704 0.000000
H135  H     H_    0.705653 0.258365 0.643365 0.000000
H136  H     H_    0.517608 0.227960 0.673515 0.000000
H137  H     H_    0.543872 0.075971 0.567759 0.000000
H138  H     H_    0.737258 0.105957 0.538415 0.000000
H139  H     H_    0.113539 0.195194 0.716437 0.000000
H140  H     H_    0.830996 0.101159 0.695339 0.000000
H141  H     H_    0.892261 0.165787 0.723093 0.000000
H142  H     H_    0.934400 0.039013 0.642560 0.000000
H143  H     H_    0.124676 0.014010 0.599434 0.000000
N53   N     N_2   0.353312 0.104074 0.741766 0.000000
C170  C     C_R   0.368278 0.106325 0.790193 0.000000
C171  C     C_R   0.292031 0.071911 0.799528 0.000000
C172  C     C_R   0.305597 0.074102 0.846853 0.000000
C173  C     C_R   0.396147 0.109160 0.885027 0.000000
C174  C     C_R   0.467713 0.145606 0.876465 0.000000
C175  C     C_R   0.459147 0.142341 0.827968 0.000000
C176  C     C_R   0.383478 0.120894 0.939114 0.000000
N54   N     N_R   0.347807 0.086681 0.957797 0.000000
C177  C     C_R   0.313776 0.118093 0.005387 0.000000
C178  C     C_R   0.257419 0.105035 0.039609 0.000000
C179  C     C_R   0.221051 0.142032 0.085244 0.000000
N55   N     N_2   0.165523 0.129330 0.121622 0.000000
C180  C     C_R   0.236319 0.191308 0.094681 0.000000
C181  C     C_R   0.288603 0.203719 0.058608 0.000000
C182  C     C_R   0.329387 0.166559 0.014819 0.000000
N56   N     N_R   0.377327 0.170334 0.974467 0.000000
H144  H     H_    0.279847 0.077076 0.716615 0.000000
H145  H     H_    0.384422 0.136827 0.740482 0.000000
H146  H     H_    0.215963 0.045634 0.770991 0.000000
H147  H     H_    0.232731 0.054538 0.857221 0.000000
H148  H     H_    0.520693 0.179005 0.909627 0.000000
H149  H     H_    0.512624 0.170535 0.820496 0.000000
H150  H     H_    0.237884 0.066756 0.029823 0.000000
H151  H     H_    0.110771 0.154055 0.145886 0.000000
H152  H     H_    0.129343 0.091381 0.106307 0.000000
H153  H     H_    0.204969 0.219857 0.129824 0.000000
H154  H     H_    0.295657 0.241377 0.064870 0.000000
N57   N     N_2   0.838586 0.122051 0.994348 0.000000
C183  C     C_R   0.919662 0.163024 0.994668 0.000000
C184  C     C_R   0.044975 0.161810 0.987397 0.000000
C185  C     C_R   0.120501 0.201011 0.984468 0.000000
C186  C     C_R   0.073332 0.240367 0.987813 0.000000
C187  C     C_R   0.957400 0.245125 0.004207 0.000000
C188  C     C_R   0.876099 0.205912 0.004892 0.000000
C189  C     C_R   0.158248 0.285503 0.995557 0.000000
N58   N     N_R   0.116836 0.329595 0.028418 0.000000
C190  C     C_R   0.199720 0.349344 0.070449 0.000000
C191  C     C_R   0.169486 0.375610 0.120972 0.000000
C192  C     C_R   0.231985 0.370796 0.158520 0.000000
N59   N     N_2   0.191806 0.390984 0.209251 0.000000
C193  C     C_R   0.330531 0.344314 0.145968 0.000000
C194  C     C_R   0.371496 0.324347 0.096388 0.000000
C195  C     C_R   0.298205 0.323828 0.058438 0.000000
N60   N     N_R   0.280355 0.286239 0.008637 0.000000
H155  H     H_    0.877185 0.090178 0.980707 0.000000
H156  H     H_    0.748600 0.116474 0.979074 0.000000
H157  H     H_    0.083843 0.130512 0.984120 0.000000
H158  H     H_    0.218779 0.205298 0.985708 0.000000
H159  H     H_    0.933754 0.279761 0.013891 0.000000
H160  H     H_    0.780225 0.209234 0.014384 0.000000
H161  H     H_    0.086710 0.392521 0.129816 0.000000
H162  H     H_    0.257181 0.395467 0.236983 0.000000
H163  H     H_    0.144841 0.420300 0.219300 0.000000
H164  H     H_    0.375163 0.338993 0.174984 0.000000
H165  H     H_    0.446595 0.303068 0.086469 0.000000
N61   N     N_2   0.555819 0.465898 0.974150 0.000000
C196  C     C_R   0.565866 0.428540 0.987141 0.000000
C197  C     C_R   0.664855 0.436831 0.020521 0.000000
C198  C     C_R   0.700593 0.396611 0.020607 0.000000
C199  C     C_R   0.627654 0.349385 0.992543 0.000000
C200  C     C_R   0.511338 0.343458 0.969517 0.000000
C201  C     C_R   0.484508 0.382353 0.963266 0.000000
C202  C     C_R   0.668180 0.309676 0.997379 0.000000
N62   N     N_R   0.784198 0.319790 0.022569 0.000000
C203  C     C_R   0.760707 0.295522 0.050069 0.000000
C204  C     C_R   0.838205 0.301219 0.089793 0.000000
C205  C     C_R   0.789588 0.279691 0.119220 0.000000
N63   N     N_2   0.861351 0.288833 0.163583 0.000000
C206  C     C_R   0.667572 0.251762 0.106994 0.000000
C207  C     C_R   0.593016 0.245278 0.065369 0.000000
C208  C     C_R   0.642026 0.268079 0.037514 0.000000
N64   N     N_R   0.581715 0.274113 0.001814 0.000000
H166  H     H_    0.635485 0.493500 0.985895 0.000000
H167  H     H_    0.527081 0.450136 0.935454 0.000000
H168  H     H_    0.725052 0.473265 0.039514 0.000000
H169  H     H_    0.785592 0.401659 0.042764 0.000000
H170  H     H_    0.447204 0.307425 0.952657 0.000000
H171  H     H_    0.402269 0.376181 0.938939 0.000000
H172  H     H_    0.930886 0.324770 0.100166 0.000000
H173  H     H_    0.807773 0.286576 0.191668 0.000000
H174  H     H_    0.934059 0.319534 0.176775 0.000000
H175  H     H_    0.628798 0.236778 0.131547 0.000000
H176  H     H_    0.497180 0.226342 0.057974 0.000000
N65   N     N_2   0.118609 0.507228 0.036677 0.000000
C209  C     C_R   0.127336 0.500992 0.986472 0.000000
C210  C     C_R   0.101111 0.537694 0.976748 0.000000
C211  C     C_R   0.086199 0.527286 0.926137 0.000000
C212  C     C_R   0.112110 0.483521 0.885669 0.000000
C213  C     C_R   0.144356 0.447605 0.895791 0.000000
C214  C     C_R   0.151080 0.456244 0.946282 0.000000
C215  C     C_R   0.063344 0.468203 0.833062 0.000000
N66   N     N_R   0.065725 0.500552 0.812819 0.000000
C216  C     C_R   0.004020 0.469468 0.765317 0.000000
C217  C     C_R   0.973406 0.482503 0.729189 0.000000
C218  C     C_R   0.894592 0.446311 0.685652 0.000000
N67   N     N_2   0.866134 0.456978 0.646162 0.000000
C219  C     C_R   0.841971 0.399738 0.680939 0.000000
C220  C     C_R   0.870049 0.388131 0.718950 0.000000
C221  C     C_R   0.955625 0.423149 0.759926 0.000000
N68   N     N_R   0.993966 0.420293 0.801546 0.000000
H177  H     H_    0.070870 0.534248 0.062282 0.000000
H178  H     H_    0.123429 0.476075 0.040221 0.000000
H179  H     H_    0.069345 0.570235 0.007277 0.000000
H180  H     H_    0.032760 0.548549 0.917531 0.000000
H181  H     H_    0.152034 0.410843 0.863828 0.000000
H182  H     H_    0.156805 0.425314 0.953216 0.000000
H183  H     H_    0.009994 0.519641 0.734377 0.000000
H184  H     H_    0.833711 0.425190 0.610933 0.000000
H185  H     H_    0.933495 0.484153 0.644794 0.000000
H186  H     H_    0.778161 0.372406 0.647357 0.000000
H187  H     H_    0.827986 0.352324 0.715942 0.000000
N69   N     N_2   0.672191 0.160655 0.857597 0.000000
C222  C     C_R   0.749901 0.206505 0.867972 0.000000
C223  C     C_R   0.738212 0.229222 0.838367 0.000000
C224  C     C_R   0.817214 0.274183 0.851147 0.000000
C225  C     C_R   0.910596 0.295285 0.890933 0.000000
C226  C     C_R   0.921721 0.272514 0.920068 0.000000
C227  C     C_R   0.837513 0.229273 0.909545 0.000000
C228  C     C_R   0.964277 0.348460 0.913186 0.000000
N70   N     N_R   0.955843 0.373804 0.885794 0.000000
C229  C     C_R   0.944627 0.420134 0.923621 0.000000
C230  C     C_R   0.922449 0.460032 0.917999 0.000000
C231  C     C_R   0.893700 0.501577 0.961585 0.000000
N71   N     N_2   0.857817 0.541114 0.957091 0.000000
C232  C     C_R   0.894748 0.503300 0.009434 0.000000
C233  C     C_R   0.919602 0.463302 0.014581 0.000000
C234  C     C_R   0.949685 0.422759 0.971207 0.000000
N72   N     N_R   0.967717 0.378621 0.966504 0.000000
H188  H     H_    0.663519 0.133274 0.819449 0.000000
H189  H     H_    0.690703 0.148182 0.882945 0.000000
H190  H     H_    0.665578 0.213994 0.807026 0.000000
H191  H     H_    0.798554 0.295704 0.833732 0.000000
H192  H     H_    0.991736 0.290728 0.952651 0.000000
H193  H     H_    0.835823 0.211402 0.932662 0.000000
H194  H     H_    0.908889 0.456882 0.880514 0.000000
H195  H     H_    0.806962 0.562539 0.986868 0.000000
H196  H     H_    0.823708 0.530480 0.919980 0.000000
H197  H     H_    0.871571 0.535299 0.042656 0.000000
H198  H     H_    0.919422 0.465418 0.052115 0.000000
N73   N     N_2   0.616413 0.668808 0.940186 0.000000
C235  C     C_R   0.730063 0.656982 0.948819 0.000000
C236  C     C_R   0.773866 0.616508 0.909886 0.000000
C237  C     C_R   0.887492 0.606814 0.918329 0.000000
C238  C     C_R   0.960071 0.639058 0.964587 0.000000
C239  C     C_R   0.917112 0.679233 0.003227 0.000000
C240  C     C_R   0.802539 0.688698 0.995073 0.000000
C241  C     C_R   0.092719 0.638608 0.965646 0.000000
N74   N     N_R   0.146644 0.613523 0.919445 0.000000
C242  C     C_R   0.262847 0.616120 0.936028 0.000000
C243  C     C_R   0.353131 0.592789 0.905706 0.000000
C244  C     C_R   0.468151 0.601021 0.930832 0.000000
N75   N     N_2   0.563621 0.576525 0.902985 0.000000
C245  C     C_R   0.492215 0.634382 0.983620 0.000000
C246  C     C_R   0.398000 0.656763 0.013422 0.000000
C247  C     C_R   0.281841 0.645532 0.988902 0.000000
N76   N     N_R   0.176887 0.663047 0.010168 0.000000
H199  H     H_    0.587338 0.653332 0.901442 0.000000
H200  H     H_    0.611986 0.706107 0.964899 0.000000
H201  H     H_    0.729447 0.596332 0.870833 0.000000
H202  H     H_    0.926129 0.578312 0.885964 0.000000
H203  H     H_    0.983514 0.707005 0.035136 0.000000
H204  H     H_    0.775412 0.723666 0.022199 0.000000
H205  H     H_    0.334133 0.568398 0.864062 0.000000
H206  H     H_    0.616157 0.564724 0.922203 0.000000
H207  H     H_    0.543046 0.553879 0.863517 0.000000
H208  H     H_    0.587287 0.643006 0.000019 0.000000
H209  H     H_    0.414169 0.682817 0.053887 0.000000
N77   N     N_2   0.164334 0.824586 0.985179 0.000000
C248  C     C_R   0.104044 0.778232 0.942958 0.000000
C249  C     C_R   0.984947 0.773092 0.923135 0.000000
C250  C     C_R   0.931360 0.727794 0.880513 0.000000
C251  C     C_R   0.989608 0.688353 0.858697 0.000000
C252  C     C_R   0.106573 0.692677 0.879597 0.000000
C253  C     C_R   0.167436 0.739047 0.918483 0.000000
C254  C     C_R   0.908781 0.640048 0.825576 0.000000
N78   N     N_R   0.785760 0.633696 0.805183 0.000000
C255  C     C_R   0.745066 0.584312 0.789652 0.000000
C256  C     C_R   0.623657 0.563002 0.785303 0.000000
C257  C     C_R   0.591600 0.513049 0.773429 0.000000
N79   N     N_2   0.464866 0.489394 0.767095 0.000000
C258  C     C_R   0.684858 0.488597 0.775376 0.000000
C259  C     C_R   0.803985 0.516445 0.795784 0.000000
C260  C     C_R   0.834854 0.562833 0.798754 0.000000
N80   N     N_R   0.940781 0.596951 0.821516 0.000000
H210  H     H_    0.118300 0.854234 0.995673 0.000000
H211  H     H_    0.260722 0.831861 0.985224 0.000000
H212  H     H_    0.937505 0.804974 0.939562 0.000000
H213  H     H_    0.837658 0.716633 0.865796 0.000000
H214  H     H_    0.147491 0.660029 0.868433 0.000000
H215  H     H_    0.264744 0.745401 0.929307 0.000000
H216  H     H_    0.564982 0.589483 0.802005 0.000000
H217  H     H_    0.455413 0.452571 0.759125 0.000000
H218  H     H_    0.416171 0.510342 0.797888 0.000000
H219  H     H_    0.660563 0.450503 0.768696 0.000000
H220  H     H_    0.861588 0.504958 0.815605 0.000000
N81   N     N_2   0.383594 0.411630 0.619243 0.000000
C261  C     C_R   0.383256 0.458482 0.664346 0.000000
C262  C     C_R   0.476522 0.499575 0.675336 0.000000
C263  C     C_R   0.475713 0.545533 0.719373 0.000000
C264  C     C_R   0.384716 0.550068 0.753889 0.000000
C265  C     C_R   0.286208 0.509914 0.740360 0.000000
C266  C     C_R   0.286944 0.463872 0.696493 0.000000
C267  C     C_R   0.375857 0.599995 0.797770 0.000000
N82   N     N_R   0.448981 0.641199 0.796107 0.000000
C268  C     C_R   0.357393 0.662374 0.789389 0.000000
C269  C     C_R   0.366219 0.686129 0.760543 0.000000
C270  C     C_R   0.255976 0.687686 0.738657 0.000000
N83   N     N_2   0.260602 0.703846 0.701925 0.000000
C271  C     C_R   0.140347 0.666899 0.746603 0.000000
C272  C     C_R   0.133382 0.641669 0.774136 0.000000
C273  C     C_R   0.242407 0.640675 0.796105 0.000000
N84   N     N_R   0.253970 0.605494 0.808927 0.000000
H221  H     H_    0.470831 0.407386 0.605343 0.000000
H222  H     H_    0.331659 0.381261 0.620856 0.000000
H223  H     H_    0.548756 0.496069 0.648806 0.000000
H224  H     H_    0.543178 0.578397 0.725343 0.000000
H225  H     H_    0.209186 0.514584 0.764662 0.000000
H226  H     H_    0.211143 0.432212 0.686973 0.000000
H227  H     H_    0.456151 0.695939 0.748958 0.000000
H228  H     H_    0.246025 0.740204 0.719637 0.000000
H229  H     H_    0.341202 0.698481 0.682906 0.000000
H230  H     H_    0.056825 0.663931 0.724915 0.000000
H231  H     H_    0.049901 0.614710 0.767944 0.000000
N85   N     N_2   0.240242 0.754212 0.422400 0.000000
C274  C     C_R   0.250431 0.800523 0.468256 0.000000
C275  C     C_R   0.162780 0.830160 0.474862 0.000000
C276  C     C_R   0.167526 0.874614 0.520457 0.000000
C277  C     C_R   0.252309 0.886463 0.560621 0.000000
C278  C     C_R   0.328834 0.853517 0.556210 0.000000
C279  C     C_R   0.337278 0.812885 0.508293 0.000000
C280  C     C_R   0.259372 0.933016 0.608429 0.000000
N86   N     N_R   0.304754 0.977928 0.608696 0.000000
C281  C     C_R   0.352978 0.007994 0.658036 0.000000
C282  C     C_R   0.448230 0.048834 0.673250 0.000000
C283  C     C_R   0.521594 0.065334 0.718606 0.000000
N87   N     N_2   0.637315 0.098642 0.728820 0.000000
C284  C     C_R   0.486473 0.045715 0.751433 0.000000
C285  C     C_R   0.383275 0.007055 0.737277 0.000000
C286  C     C_R   0.327061 0.984645 0.687253 0.000000
N88   N     N_R   0.269169 0.935601 0.656715 0.000000
H232  H     H_    0.179660 0.753062 0.395402 0.000000
H233  H     H_    0.326590 0.746632 0.410245 0.000000
H234  H     H_    0.088404 0.818100 0.444923 0.000000
H235  H     H_    0.098411 0.897845 0.526460 0.000000
H236  H     H_    0.363268 0.855061 0.591203 0.000000
H237  H     H_    0.394682 0.785986 0.504070 0.000000
H238  H     H_    0.476088 0.062317 0.646614 0.000000
H239  H     H_    0.706558 0.090537 0.745322 0.000000
H240  H     H_    0.628324 0.135665 0.750796 0.000000
H241  H     H_    0.543352 0.058942 0.787191 0.000000
H242  H     H_    0.365408 0.989762 0.761163 0.000000
N89   N     N_2   0.055612 0.188170 0.510097 0.000000
C287  C     C_R   0.049653 0.143540 0.512745 0.000000
C288  C     C_R   0.152383 0.136211 0.533320 0.000000
C289  C     C_R   0.148349 0.091568 0.533699 0.000000
C290  C     C_R   0.041759 0.054207 0.513665 0.000000
C291  C     C_R   0.936616 0.062515 0.495394 0.000000
C292  C     C_R   0.940510 0.107332 0.495146 0.000000
C293  C     C_R   0.050521 0.003673 0.503521 0.000000
N90   N     N_R   0.159333 0.994244 0.519145 0.000000
C294  C     C_R   0.147210 0.945575 0.488680 0.000000
C295  C     C_R   0.242703 0.920819 0.481052 0.000000
C296  C     C_R   0.233353 0.877390 0.435541 0.000000
N91   N     N_2   0.331764 0.851655 0.424636 0.000000
C297  C     C_R   0.128050 0.858676 0.400495 0.000000
C298  C     C_R   0.026613 0.882891 0.413717 0.000000
C299  C     C_R   0.039690 0.926115 0.457774 0.000000
N92   N     N_R   0.969628 0.960307 0.466400 0.000000
H243  H     H_    0.122382 0.218063 0.536373 0.000000
H244  H     H_    0.969224 0.196002 0.505919 0.000000
H245  H     H_    0.237576 0.164685 0.547452 0.000000
H246  H     H_    0.231681 0.084593 0.546729 0.000000
H247  H     H_    0.852783 0.033370 0.479625 0.000000
H248  H     H_    0.859503 0.113356 0.479457 0.000000
H249  H     H_    0.326828 0.935680 0.507044 0.000000
H250  H     H_    0.291680 0.815044 0.402532 0.000000
H251  H     H_    0.385965 0.860435 0.457488 0.000000
H252  H     H_    0.127057 0.825062 0.364217 0.000000
H253  H     H_    0.945287 0.877475 0.391164 0.000000
N93   N     N_2   0.617004 0.838834 0.563089 0.000000
C300  C     C_R   0.640784 0.884797 0.562695 0.000000
C301  C     C_R   0.733255 0.891682 0.533441 0.000000
C302  C     C_R   0.732273 0.927747 0.519364 0.000000
C303  C     C_R   0.639776 0.956291 0.535247 0.000000
C304  C     C_R   0.566569 0.956853 0.572709 0.000000
C305  C     C_R   0.562757 0.919757 0.585049 0.000000
C306  C     C_R   0.595749 0.973824 0.502876 0.000000
N94   N     N_R   0.647866 0.962158 0.456090 0.000000
C307  C     C_R   0.570234 0.978037 0.434459 0.000000
C308  C     C_R   0.576388 0.975753 0.386888 0.000000
C309  C     C_R   0.484681 0.993320 0.371568 0.000000
N95   N     N_2   0.488651 0.992546 0.323466 0.000000
C310  C     C_R   0.388535 0.011654 0.403216 0.000000
C311  C     C_R   0.382534 0.012987 0.450824 0.000000
C312  C     C_R   0.475406 0.996403 0.465871 0.000000
N96   N     N_R   0.485205 0.993667 0.509932 0.000000
H254  H     H_    0.636623 0.810202 0.528209 0.000000
H255  H     H_    0.527564 0.830132 0.571472 0.000000
H256  H     H_    0.795855 0.865057 0.516356 0.000000
H257  H     H_    0.794127 0.929151 0.491311 0.000000
H258  H     H_    0.497603 0.980660 0.585233 0.000000
H259  H     H_    0.487035 0.916738 0.606748 0.000000
H260  H     H_    0.650648 0.961160 0.362336 0.000000
H261  H     H_    0.441354 0.017881 0.321591 0.000000
H262  H     H_    0.576268 0.991291 0.309522 0.000000
H263  H     H_    0.317450 0.024882 0.390407 0.000000
H264  H     H_    0.307558 0.026806 0.475325 0.000000
N97   N     N_2   0.785031 0.011617 0.766848 0.000000
C313  C     C_R   0.686497 0.990256 0.785066 0.000000
C314  C     C_R   0.640503 0.939103 0.757649 0.000000
C315  C     C_R   0.528046 0.919588 0.768585 0.000000
C316  C     C_R   0.469756 0.950941 0.809841 0.000000
C317  C     C_R   0.525838 0.000626 0.842256 0.000000
C318  C     C_R   0.633024 0.020899 0.828941 0.000000
C319  C     C_R   0.336793 0.938831 0.811170 0.000000
N98   N     N_R   0.288639 0.967777 0.857750 0.000000
C320  C     C_R   0.185824 0.976179 0.842226 0.000000
C321  C     C_R   0.102145 0.003101 0.873631 0.000000
C322  C     C_R   0.022845 0.019031 0.851531 0.000000
N99   N     N_2   0.915327 0.035095 0.877162 0.000000
C323  C     C_R   0.033114 0.008157 0.799805 0.000000
C324  C     C_R   0.106496 0.974961 0.767774 0.000000
C325  C     C_R   0.178129 0.957354 0.790234 0.000000
N100  N     N_R   0.259461 0.926178 0.767493 0.000000
H265  H     H_    0.807064 0.987764 0.729875 0.000000
H266  H     H_    0.787205 0.048851 0.777546 0.000000
H267  H     H_    0.689625 0.915108 0.726288 0.000000
H268  H     H_    0.481316 0.881009 0.743958 0.000000
H269  H     H_    0.476327 0.025277 0.873783 0.000000
H270  H     H_    0.670752 0.061024 0.850991 0.000000
H271  H     H_    0.102251 0.013891 0.914341 0.000000
H272  H     H_    0.837629 0.024835 0.851929 0.000000
H273  H     H_    0.900136 0.026448 0.906536 0.000000
H274  H     H_    0.983555 0.023852 0.782476 0.000000
H275  H     H_    0.109006 0.964207 0.727020 0.000000
N101  N     N_2   0.830709 0.805189 0.758723 0.000000
C326  C     C_R   0.874012 0.851472 0.804026 0.000000
C327  C     C_R   0.996743 0.874835 0.810099 0.000000
C328  C     C_R   0.046681 0.912853 0.858805 0.000000
C329  C     C_R   0.970905 0.935313 0.897799 0.000000
C330  C     C_R   0.844556 0.915128 0.889500 0.000000
C331  C     C_R   0.797870 0.871274 0.844146 0.000000
C332  C     C_R   0.024963 0.962564 0.951467 0.000000
N102  N     N_R   0.151636 0.985499 0.967180 0.000000
C333  C     C_R   0.162238 0.989657 0.014853 0.000000
C334  C     C_R   0.269244 0.008310 0.048496 0.000000
C335  C     C_R   0.256946 0.014079 0.097809 0.000000
N103  N     N_2   0.361372 0.037301 0.135108 0.000000
C336  C     C_R   0.141834 0.997711 0.111053 0.000000
C337  C     C_R   0.036926 0.976175 0.075615 0.000000
C338  C     C_R   0.049206 0.972827 0.027656 0.000000
N104  N     N_R   0.959770 0.953846 0.987883 0.000000
H276  H     H_    0.901720 0.789155 0.736960 0.000000
H277  H     H_    0.765448 0.781659 0.765866 0.000000
H278  H     H_    0.058052 0.856057 0.780641 0.000000
H279  H     H_    0.143692 0.919197 0.868690 0.000000
H280  H     H_    0.785678 0.929720 0.921188 0.000000
H281  H     H_    0.700602 0.853846 0.839830 0.000000
H282  H     H_    0.358875 0.020765 0.037898 0.000000
H283  H     H_    0.356621 0.026915 0.163428 0.000000
H284  H     H_    0.446473 0.039122 0.119692 0.000000
H285  H     H_    0.133785 0.002264 0.149639 0.000000
H286  H     H_    0.948170 0.964819 0.086897 0.000000
N105  N     N_2   0.864553 0.182439 0.113447 0.000000
C339  C     C_R   0.799704 0.134306 0.075973 0.000000
C340  C     C_R   0.679408 0.128606 0.056385 0.000000
C341  C     C_R   0.613846 0.081223 0.021178 0.000000
C342  C     C_R   0.668027 0.039519 0.006245 0.000000
C343  C     C_R   0.789116 0.045288 0.025101 0.000000
C344  C     C_R   0.855463 0.092777 0.059623 0.000000
C345  C     C_R   0.591414 0.989124 0.977198 0.000000
N106  N     N_R   0.466033 0.980397 0.958156 0.000000
C346  C     C_R   0.428090 0.932239 0.947026 0.000000
C347  C     C_R   0.310619 0.902634 0.930970 0.000000
C348  C     C_R   0.299849 0.851683 0.914609 0.000000
N107  N     N_2   0.186210 0.818812 0.891483 0.000000
C349  C     C_R   0.399786 0.832643 0.920348 0.000000
C350  C     C_R   0.510837 0.865237 0.942401 0.000000
C351  C     C_R   0.523588 0.913325 0.954700 0.000000
N108  N     N_R   0.630729 0.946833 0.973964 0.000000
H287  H     H_    0.804705 0.205786 0.135495 0.000000
H288  H     H_    0.938591 0.181241 0.134081 0.000000
H289  H     H_    0.635744 0.161113 0.068987 0.000000
H290  H     H_    0.517921 0.076550 0.007278 0.000000
H291  H     H_    0.830442 0.012407 0.014173 0.000000
H292  H     H_    0.949571 0.097275 0.075124 0.000000
H293  H     H_    0.230473 0.916807 0.927754 0.000000
H294  H     H_    0.190224 0.781163 0.874626 0.000000
H295  H     H_    0.117308 0.832517 0.915054 0.000000
H296  H     H_    0.391745 0.792816 0.906988 0.000000
H297  H     H_    0.591691 0.855169 0.946666 0.000000
N109  N     N_2   0.529130 0.398073 0.072141 0.000000
C352  C     C_R   0.425029 0.421744 0.079479 0.000000
C353  C     C_R   0.323273 0.399173 0.042941 0.000000
C354  C     C_R   0.215607 0.419364 0.053339 0.000000
C355  C     C_R   0.208185 0.461735 0.100561 0.000000
C356  C     C_R   0.315274 0.486875 0.134466 0.000000
C357  C     C_R   0.422824 0.466685 0.124152 0.000000
C358  C     C_R   0.082781 0.470199 0.118334 0.000000
N110  N     N_R   0.983307 0.429741 0.095532 0.000000
C359  C     C_R   0.906002 0.439671 0.134049 0.000000
C360  C     C_R   0.799571 0.408929 0.135303 0.000000
C361  C     C_R   0.754564 0.420172 0.183058 0.000000
N111  N     N_2   0.652594 0.386928 0.186153 0.000000
C362  C     C_R   0.816296 0.461565 0.228201 0.000000
C363  C     C_R   0.917437 0.493826 0.225341 0.000000
C364  C     C_R   0.956694 0.483386 0.177480 0.000000
N112  N     N_R   0.063903 0.506094 0.168484 0.000000
H298  H     H_    0.590772 0.415056 0.105021 0.000000
H299  H     H_    0.501800 0.359570 0.056403 0.000000
H300  H     H_    0.325654 0.364451 0.007108 0.000000
H301  H     H_    0.136249 0.400962 0.024736 0.000000
H302  H     H_    0.316710 0.522112 0.169450 0.000000
H303  H     H_    0.504393 0.485478 0.152093 0.000000
H304  H     H_    0.752280 0.376523 0.101073 0.000000
H305  H     H_    0.650391 0.388985 0.222029 0.000000
H306  H     H_    0.637111 0.351141 0.154203 0.000000
H307  H     H_    0.789483 0.467382 0.265864 0.000000
H308  H     H_    0.975609 0.521193 0.259614 0.000000
N113  N     N_2   0.693128 0.929359 0.843221 0.000000
C365  C     C_R   0.747720 0.905514 0.795579 0.000000
C366  C     C_R   0.686143 0.860686 0.756303 0.000000
C367  C     C_R   0.743153 0.834314 0.711924 0.000000
C368  C     C_R   0.865523 0.851874 0.707544 0.000000
C369  C     C_R   0.930809 0.892865 0.748389 0.000000
C370  C     C_R   0.872496 0.919688 0.792939 0.000000
C371  C     C_R   0.929527 0.820302 0.663370 0.000000
N114  N     N_R   0.857419 0.775485 0.626075 0.000000
C372  C     C_R   0.943929 0.751636 0.597051 0.000000
C373  C     C_R   0.926752 0.700929 0.564259 0.000000
C374  C     C_R   0.032235 0.680340 0.548321 0.000000
N115  N     N_2   0.022433 0.627471 0.522582 0.000000
C375  C     C_R   0.147234 0.711670 0.555886 0.000000
C376  C     C_R   0.161588 0.763603 0.587364 0.000000
C377  C     C_R   0.059989 0.782113 0.612295 0.000000
N116  N     N_R   0.058091 0.827930 0.654670 0.000000
H309  H     H_    0.597131 0.918391 0.840779 0.000000
H310  H     H_    0.730218 0.967138 0.866561 0.000000
H311  H     H_    0.600013 0.844316 0.763504 0.000000
H312  H     H_    0.699009 0.796506 0.684944 0.000000
H313  H     H_    0.027600 0.895788 0.743939 0.000000
H314  H     H_    0.922758 0.944948 0.829056 0.000000
H315  H     H_    0.835173 0.677838 0.555356 0.000000
H316  H     H_    0.107632 0.616247 0.519680 0.000000
H317  H     H_    0.951119 0.609575 0.534413 0.000000
H318  H     H_    0.226197 0.694960 0.538405 0.000000
H319  H     H_    0.251032 0.787792 0.593751 0.000000
N117  N     N_2   0.101727 0.608231 0.597215 0.000000
C378  C     C_R   0.177031 0.654056 0.605941 0.000000
C379  C     C_R   0.137605 0.698921 0.635953 0.000000
C380  C     C_R   0.214601 0.744258 0.647899 0.000000
C381  C     C_R   0.329463 0.744959 0.626283 0.000000
C382  C     C_R   0.366830 0.699278 0.595179 0.000000
C383  C     C_R   0.290710 0.654104 0.584916 0.000000
C384  C     C_R   0.421317 0.792184 0.638967 0.000000
N118  N     N_R   0.391279 0.840295 0.659848 0.000000
C385  C     C_R   0.504308 0.868460 0.663534 0.000000
C386  C     C_R   0.529687 0.918517 0.679509 0.000000
C387  C     C_R   0.642444 0.938634 0.668258 0.000000
N119  N     N_2   0.663086 0.987195 0.674151 0.000000
C388  C     C_R   0.734821 0.910506 0.650098 0.000000
C389  C     C_R   0.713792 0.862438 0.642907 0.000000
C390  C     C_R   0.595815 0.840793 0.647523 0.000000
N120  N     N_R   0.549038 0.792019 0.632537 0.000000
H320  H     H_    0.009530 0.610239 0.605272 0.000000
H321  H     H_    0.118793 0.576571 0.564425 0.000000
H322  H     H_    0.045291 0.698358 0.649799 0.000000
H323  H     H_    0.177768 0.778259 0.671148 0.000000
H324  H     H_    0.456464 0.699446 0.578798 0.000000
H325  H     H_    0.318410 0.618329 0.560323 0.000000
H326  H     H_    0.455202 0.937979 0.691777 0.000000
H327  H     H_    0.750023 0.996865 0.663612 0.000000
H328  H     H_    0.647627 0.012530 0.711050 0.000000
H329  H     H_    0.825204 0.926727 0.643496 0.000000
H330  H     H_    0.789932 0.844628 0.633801 0.000000
N121  N     N_2   0.153362 0.735113 0.246305 0.000000
C391  C     C_R   0.074558 0.757161 0.285041 0.000000
C392  C     C_R   0.052360 0.741061 0.320705 0.000000
C393  C     C_R   0.972611 0.760689 0.357822 0.000000
C394  C     C_R   0.905386 0.792805 0.356399 0.000000
C395  C     C_R   0.925814 0.808326 0.318788 0.000000
C396  C     C_R   0.021064 0.794669 0.287411 0.000000
C397  C     C_R   0.802867 0.802400 0.389922 0.000000
N122  N     N_R   0.714018 0.761300 0.386661 0.000000
C398  C     C_R   0.611517 0.781665 0.393507 0.000000
C399  C     C_R   0.500559 0.752534 0.370937 0.000000
C400  C     C_R   0.422699 0.770859 0.351628 0.000000
N123  N     N_2   0.303765 0.743562 0.330916 0.000000
C401  C     C_R   0.452686 0.818500 0.356971 0.000000
C402  C     C_R   0.557208 0.850677 0.387175 0.000000
C403  C     C_R   0.637319 0.831071 0.403865 0.000000
N124  N     N_R   0.758932 0.847312 0.407069 0.000000
H331  H     H_    0.188514 0.708554 0.250897 0.000000
H332  H     H_    0.215296 0.762392 0.242959 0.000000
H333  H     H_    0.100446 0.714844 0.321671 0.000000
H334  H     H_    0.950905 0.747435 0.384911 0.000000
H335  H     H_    0.880188 0.835189 0.315351 0.000000
H336  H     H_    0.041072 0.808104 0.259953 0.000000
H337  H     H_    0.484445 0.714598 0.363057 0.000000
H338  H     H_    0.260383 0.764878 0.321153 0.000000
H339  H     H_    0.302577 0.706213 0.305810 0.000000
H340  H     H_    0.390285 0.831942 0.340441 0.000000
H341  H     H_    0.586401 0.886215 0.388058 0.000000
N125  N     N_2   0.377182 0.703891 0.216821 0.000000
C404  C     C_R   0.459507 0.750724 0.241468 0.000000
C405  C     C_R   0.553048 0.759541 0.276986 0.000000
C406  C     C_R   0.642812 0.802837 0.296041 0.000000
C407  C     C_R   0.644841 0.835920 0.276813 0.000000
C408  C     C_R   0.543865 0.828563 0.244278 0.000000
C409  C     C_R   0.448759 0.787080 0.228705 0.000000
C410  C     C_R   0.747260 0.879431 0.290204 0.000000
N126  N     N_R   0.801640 0.913113 0.340915 0.000000
C411  C     C_R   0.867288 0.951055 0.335163 0.000000
C412  C     C_R   0.941791 0.994349 0.373266 0.000000
C413  C     C_R   0.997477 0.030126 0.360203 0.000000
N127  N     N_2   0.081577 0.073510 0.396871 0.000000
C414  C     C_R   0.971791 0.023356 0.310946 0.000000
C415  C     C_R   0.898649 0.978984 0.272542 0.000000
C416  C     C_R   0.851973 0.941678 0.284769 0.000000
N128  N     N_R   0.781150 0.895093 0.253851 0.000000
H342  H     H_    0.369945 0.682646 0.234983 0.000000
H343  H     H_    0.301253 0.702648 0.195968 0.000000
H344  H     H_    0.556228 0.732055 0.289290 0.000000
H345  H     H_    0.711226 0.807656 0.324010 0.000000
H346  H     H_    0.538059 0.855947 0.232010 0.000000
H347  H     H_    0.365708 0.782447 0.206346 0.000000
H348  H     H_    0.958782 0.999784 0.411848 0.000000
H349  H     H_    0.085492 0.104615 0.392192 0.000000
H350  H     H_    0.080763 0.079239 0.434209 0.000000
H351  H     H_    0.012626 0.052492 0.301955 0.000000
H352  H     H_    0.880743 0.974910 0.234570 0.000000

loop_
_geom_bond_atom_site_label_1
_geom_bond_atom_site_label_2
_geom_bond_distance
_geom_bond_site_symmetry_2
_ccdc_geom_bond_type
Zn1   N4    2.190 .      S
Zn1   N8    2.168 .      S
Zn1   N10   2.174 .      S
Zn1   N76   2.174 .      S
Zn2   N14   2.099 .      S
Zn2   N18   2.187 .      S
Zn2   N78   2.252 .      S
Zn2   N82   2.206 .      S
Zn3   N16   2.192 .      S
Zn3   N22   2.163 1_556  S
Zn3   N104  2.130 .      S
Zn3   N108  2.203 .      S
Zn4   N2    2.227 .      S
Zn4   N28   2.240 1_455  S
Zn4   N30   2.187 .      S
Zn4   N112  2.071 .      S
Zn5   N26   2.181 .      S
Zn5   N32   2.163 .      S
Zn5   N36   2.143 .      S
Zn5   N122  2.304 .      S
Zn6   N6    2.110 .      S
Zn6   N12   2.052 .      S
Zn6   N24   2.145 .      S
Zn6   N128  2.167 .      S
Zn7   N20   2.206 .      S
Zn7   N34   2.167 .      S
Zn7   N114  2.097 .      S
Zn7   N120  2.108 .      S
Zn8   N40   2.071 .      S
Zn8   N44   2.062 .      S
Zn8   N46   2.133 .      S
Zn8   N50   2.045 .      S
Zn9   N38   2.081 .      S
Zn9   N56   2.122 .      S
Zn9   N60   2.092 1_556  S
Zn9   N64   2.035 1_556  S
Zn10  N42   2.033 1_655  S
Zn10  N48   2.090 .      S
Zn10  N68   2.078 .      S
Zn10  N70   2.053 .      S
Zn11  N66   2.088 .      S
Zn11  N74   2.056 .      S
Zn11  N80   2.094 1_455  S
Zn11  N84   2.121 .      S
Zn12  N52   1.997 .      S
Zn12  N86   2.123 1_545  S
Zn12  N90   2.066 1_545  S
Zn12  N96   2.212 1_545  S
Zn13  N54   2.183 .      S
Zn13  N98   2.028 1_545  S
Zn13  N102  2.158 1_545  S
Zn13  N106  2.151 1_545  S
Zn14  N58   2.128 1_655  S
Zn14  N62   2.092 .      S
Zn14  N72   2.079 1_554  S
Zn14  N110  2.041 .      S
Zn15  N88   2.164 .      S
Zn15  N100  2.140 .      S
Zn15  N116  2.223 .      S
Zn15  N118  2.135 .      S
Zn16  N92   2.157 .      S
Zn16  N94   2.166 .      S
Zn16  N124  2.134 .      S
Zn16  N126  2.134 .      S
N1    C1    1.393 1_556  S
N1    H1    1.028 .      S
N1    H2    1.026 .      S
C1    N1    1.393 1_554  S
C2    H3    1.078 .      S
C3    H4    1.059 .      S
C4    C7    1.458 .      S
C5    H5    1.059 .      S
C6    H6    1.081 1_554  S
C9    H7    1.024 1_655  S
C10   N3    1.404 .      S
N3    H8    1.025 .      S
N3    H9    1.020 .      S
C11   H10   1.080 .      S
C12   H11   1.039 1_655  S
H6    C6    1.081 1_556  S
H7    C9    1.024 1_455  S
H11   C12   1.039 1_455  S
N5    C14   1.401 .      S
N5    H12   1.029 .      S
N5    H13   1.027 .      S
C15   H14   1.068 .      S
C16   H15   1.076 .      S
C17   C20   1.458 .      S
C18   H16   1.054 1_655  S
C19   H17   1.072 .      S
C22   H18   1.061 1_455  S
C23   N7    1.407 .      S
N7    H19   1.029 .      S
N7    H20   1.028 .      S
C24   H21   1.081 .      S
C25   H22   1.050 .      S
H16   C18   1.054 1_455  S
H18   C22   1.061 1_655  S
N9    C27   1.405 .      S
N9    H23   1.028 .      S
N9    H24   1.028 .      S
C28   H25   1.073 .      S
C29   H26   1.067 .      S
C30   C33   1.449 .      S
C31   H27   1.073 .      S
C32   H28   1.077 .      S
C35   H29   1.036 .      S
C36   N11   1.395 .      S
N11   H30   1.027 .      S
N11   H31   1.025 .      S
C37   H32   1.063 .      S
C38   H33   1.079 .      S
N13   C40   1.381 .      S
N13   H34   1.019 .      S
N13   H35   1.023 1_556  S
C41   H36   1.078 .      S
C42   H37   1.069 .      S
C43   C46   1.475 .      S
C44   H38   1.084 1_556  S
C45   H39   1.061 .      S
C48   H40   1.079 .      S
C49   N15   1.401 1_655  S
N15   C49   1.401 1_455  S
N15   H41   1.028 .      S
N15   H42   1.026 1_455  S
C50   H43   1.077 .      S
C51   H44   1.073 .      S
H35   N13   1.023 1_554  S
H38   C44   1.084 1_554  S
H42   N15   1.026 1_655  S
N17   C53   1.399 .      S
N17   H45   1.019 .      S
N17   H46   1.027 .      S
C54   H47   1.074 .      S
C55   H48   1.027 .      S
C56   C59   1.470 .      S
C57   H49   1.059 .      S
C58   H50   1.054 .      S
C61   H51   1.080 .      S
C62   N19   1.406 .      S
N19   H52   1.029 .      S
N19   H53   1.029 .      S
C63   H54   1.081 .      S
C64   H55   1.073 .      S
N21   C66   1.387 .      S
N21   H56   1.020 .      S
N21   H57   1.015 1_655  S
C67   H58   1.071 .      S
C68   H59   1.026 1_554  S
C69   C72   1.424 .      S
C70   H60   1.072 .      S
C71   H61   1.066 1_655  S
N22   Zn3   2.163 1_554  S
C74   H62   1.081 1_565  S
C75   N23   1.408 .      S
N23   H63   1.029 .      S
N23   H64   1.029 .      S
C76   H65   1.081 .      S
C77   H66   1.081 .      S
H57   N21   1.015 1_455  S
H59   C68   1.026 1_556  S
H61   C71   1.066 1_455  S
H62   C74   1.081 1_545  S
N25   C79   1.395 .      S
N25   H67   1.022 .      S
N25   H68   1.027 .      S
C80   H69   1.082 .      S
C81   H70   1.057 .      S
C82   C85   1.433 .      S
C83   H71   1.076 .      S
C84   H72   1.070 .      S
C87   H73   1.078 .      S
C88   N27   1.406 .      S
N27   H74   1.029 .      S
N27   H75   1.029 .      S
C89   H76   1.081 .      S
C90   H77   1.081 .      S
N28   Zn4   2.240 1_655  S
N29   C92   1.397 .      S
N29   H78   1.022 .      S
N29   H79   1.026 1_455  S
C93   H80   1.069 .      S
C94   H81   1.068 .      S
C95   C98   1.419 .      S
C96   H82   1.070 .      S
C97   H83   1.074 .      S
C100  H84   1.082 .      S
C101  N31   1.396 .      S
N31   H85   1.027 .      S
N31   H86   1.027 .      S
C102  H87   1.078 .      S
C103  H88   1.072 .      S
H79   N29   1.026 1_655  S
N33   C105  1.373 .      S
N33   H89   1.027 .      S
N33   H90   1.026 .      S
C106  H91   1.075 .      S
C107  H92   1.071 .      S
C108  C111  1.399 .      S
C109  H93   1.077 .      S
C110  H94   1.073 1_655  S
C113  H95   1.079 .      S
C114  N35   1.408 .      S
N35   H96   1.029 .      S
N35   H97   1.029 .      S
C115  H98   1.081 .      S
C116  H99   1.077 .      S
H94   C110  1.073 1_455  S
N37   C118  1.388 .      S
N37   H100  1.011 .      S
N37   H101  1.022 .      S
C119  H102  1.062 .      S
C120  H103  1.077 .      S
C121  C124  1.417 .      S
C122  H104  1.070 .      S
C123  H105  1.075 .      S
C126  H106  1.066 .      S
C127  N39   1.392 .      S
N39   H107  1.026 1_455  S
N39   H108  1.027 .      S
C128  H109  1.080 .      S
C129  H110  1.044 .      S
H107  N39   1.026 1_655  S
N41   C131  1.397 1_655  S
N41   H111  1.027 .      S
N41   H112  1.023 .      S
C131  N41   1.397 1_455  S
C132  H113  1.079 .      S
C133  H114  1.070 .      S
C134  C137  1.454 .      S
C135  H115  1.076 .      S
C136  H116  1.074 .      S
N42   Zn10  2.033 1_455  S
C139  H117  1.061 .      S
C140  N43   1.408 .      S
N43   H118  1.029 .      S
N43   H119  1.029 .      S
C141  H120  1.081 .      S
C142  H121  1.068 .      S
N45   C144  1.404 .      S
N45   H122  1.029 .      S
N45   H123  1.026 .      S
C145  H124  1.077 .      S
C146  H125  1.069 .      S
C147  C150  1.440 .      S
C148  H126  1.068 .      S
C149  H127  1.082 .      S
C152  H128  1.075 .      S
C153  N47   1.408 .      S
N47   H129  1.025 .      S
N47   H130  1.029 .      S
C154  H131  1.081 .      S
C155  H132  1.074 .      S
N49   C157  1.404 .      S
N49   H133  1.029 .      S
N49   H134  1.024 .      S
C158  H135  1.081 .      S
C159  H136  1.067 .      S
C160  C163  1.463 .      S
C161  H137  1.077 .      S
C162  H138  1.081 .      S
C165  H139  1.081 .      S
C166  N51   1.400 1_455  S
N51   C166  1.400 1_655  S
N51   H140  1.024 .      S
N51   H141  1.019 .      S
C167  H142  1.081 1_455  S
C168  H143  1.077 .      S
H142  C167  1.081 1_655  S
N53   C170  1.406 .      S
N53   H144  1.029 .      S
N53   H145  1.028 .      S
C171  H146  1.079 .      S
C172  H147  1.045 .      S
C173  C176  1.464 .      S
C174  H148  1.083 .      S
C175  H149  1.074 .      S
C178  H150  1.052 .      S
C179  N55   1.408 .      S
N55   H151  1.029 .      S
N55   H152  1.029 .      S
C180  H153  1.081 .      S
C181  H154  1.073 .      S
N57   C183  1.406 .      S
N57   H155  1.028 .      S
N57   H156  1.029 .      S
C184  H157  1.081 .      S
C185  H158  1.048 .      S
C186  C189  1.446 .      S
C187  H159  1.042 .      S
C188  H160  1.081 .      S
N58   Zn14  2.128 1_455  S
C191  H161  1.080 .      S
C192  N59   1.408 .      S
N59   H162  1.029 .      S
N59   H163  1.029 .      S
C193  H164  1.081 .      S
C194  H165  1.081 .      S
N60   Zn9   2.092 1_554  S
N61   C196  1.402 .      S
N61   H166  1.027 .      S
N61   H167  1.025 .      S
C197  H168  1.069 .      S
C198  H169  1.079 .      S
C199  C202  1.440 .      S
C200  H170  1.081 .      S
C201  H171  1.080 .      S
C204  H172  1.081 .      S
C205  N63   1.408 .      S
N63   H173  1.029 .      S
N63   H174  1.029 .      S
C206  H175  1.081 .      S
C207  H176  1.067 .      S
N64   Zn9   2.035 1_554  S
N65   C209  1.401 1_554  S
N65   H177  1.028 .      S
N65   H178  1.027 .      S
C209  N65   1.401 1_556  S
C210  H179  1.080 1_556  S
C211  H180  1.062 .      S
C212  C215  1.458 .      S
C213  H181  1.081 .      S
C214  H182  1.082 .      S
C217  H183  1.081 1_655  S
C218  N67   1.407 .      S
N67   H184  1.029 .      S
N67   H185  1.029 .      S
C219  H186  1.081 .      S
C220  H187  1.081 .      S
H179  C210  1.080 1_554  S
H183  C217  1.081 1_455  S
N69   C222  1.406 .      S
N69   H188  1.017 .      S
N69   H189  1.029 .      S
C223  H190  1.077 .      S
C224  H191  1.063 .      S
C225  C228  1.446 .      S
C226  H192  1.075 .      S
C227  H193  1.065 .      S
C230  H194  1.071 .      S
C231  N71   1.408 .      S
N71   H195  1.029 .      S
N71   H196  1.029 .      S
C232  H197  1.064 .      S
C233  H198  1.077 .      S
N72   Zn14  2.079 1_556  S
N73   C235  1.402 .      S
N73   H199  1.028 .      S
N73   H200  1.028 .      S
C236  H201  1.075 .      S
C237  H202  1.076 .      S
C238  C241  1.440 1_655  S
C239  H203  1.073 .      S
C240  H204  1.073 1_556  S
C241  C238  1.440 1_455  S
C243  H205  1.080 .      S
C244  N75   1.399 .      S
N75   H206  1.029 .      S
N75   H207  1.025 .      S
C245  H208  1.075 1_556  S
C246  H209  1.058 .      S
H204  C240  1.073 1_554  S
H208  C245  1.075 1_554  S
N77   C248  1.407 .      S
N77   H210  1.029 .      S
N77   H211  1.029 .      S
C249  H212  1.082 .      S
C250  H213  1.039 .      S
C251  C254  1.446 .      S
C252  H214  1.071 .      S
C253  H215  1.061 .      S
C256  H216  1.045 .      S
C257  N79   1.407 .      S
N79   H217  1.028 .      S
N79   H218  1.026 .      S
C258  H219  1.077 .      S
C259  H220  1.070 .      S
N80   Zn11  2.094 1_655  S
N81   C261  1.408 .      S
N81   H221  1.029 .      S
N81   H222  1.029 .      S
C262  H223  1.081 .      S
C263  H224  1.080 .      S
C264  C267  1.469 .      S
C265  H225  1.076 .      S
C266  H226  1.081 .      S
C269  H227  1.072 .      S
C270  N83   1.395 .      S
N83   H228  1.022 .      S
N83   H229  1.025 .      S
C271  H230  1.079 .      S
C272  H231  1.067 .      S
N85   C274  1.394 .      S
N85   H232  1.021 .      S
N85   H233  1.021 .      S
C275  H234  1.077 .      S
C276  H235  1.079 .      S
C277  C280  1.429 .      S
C278  H236  1.078 .      S
C279  H237  1.080 .      S
N86   Zn12  2.123 1_565  S
C282  H238  1.074 .      S
C283  N87   1.407 .      S
N87   H239  1.027 .      S
N87   H240  1.024 .      S
C284  H241  1.080 .      S
C285  H242  1.072 1_545  S
H242  C285  1.072 1_565  S
N89   C287  1.409 .      S
N89   H243  1.029 .      S
N89   H244  1.029 1_455  S
C288  H245  1.081 .      S
C289  H246  1.079 .      S
C290  C293  1.458 .      S
C291  H247  1.081 .      S
C292  H248  1.081 .      S
N90   Zn12  2.066 1_565  S
C295  H249  1.075 .      S
C296  N91   1.380 .      S
N91   H250  1.004 .      S
N91   H251  1.029 .      S
C297  H252  1.064 .      S
C298  H253  1.049 1_455  S
H244  N89   1.029 1_655  S
H253  C298  1.049 1_655  S
N93   C300  1.404 .      S
N93   H254  1.027 .      S
N93   H255  1.020 .      S
C301  H256  1.081 .      S
C302  H257  1.071 .      S
C303  C306  1.428 .      S
C304  H258  1.073 .      S
C305  H259  1.054 .      S
C308  H260  1.080 .      S
C309  N95   1.408 .      S
N95   H261  1.029 1_565  S
N95   H262  1.029 .      S
C310  H263  1.081 .      S
C311  H264  1.081 .      S
N96   Zn12  2.212 1_565  S
H261  N95   1.029 1_545  S
N97   C313  1.397 1_545  S
N97   H265  1.029 1_545  S
N97   H266  1.029 .      S
C313  N97   1.397 1_565  S
C314  H267  1.069 .      S
C315  H268  1.076 .      S
C316  C319  1.429 .      S
C317  H269  1.081 .      S
C318  H270  1.081 .      S
N98   Zn13  2.028 1_565  S
C321  H271  1.078 .      S
C322  N99   1.409 1_455  S
N99   C322  1.409 1_655  S
N99   H272  1.027 .      S
N99   H273  1.028 .      S
C323  H274  1.060 1_455  S
C324  H275  1.081 .      S
H265  N97   1.029 1_565  S
H274  C323  1.060 1_655  S
N101  C326  1.401 .      S
N101  H276  1.028 .      S
N101  H277  1.020 .      S
C327  H278  1.076 1_655  S
C328  H279  1.052 .      S
C329  C332  1.451 1_655  S
C330  H280  1.075 .      S
C331  H281  1.075 .      S
C332  C329  1.451 1_455  S
N102  Zn13  2.158 1_565  S
C334  H282  1.081 .      S
C335  N103  1.408 .      S
N103  H283  1.029 .      S
N103  H284  1.028 .      S
C336  H285  1.081 1_565  S
C337  H286  1.071 1_455  S
H278  C327  1.076 1_455  S
H285  C336  1.081 1_545  S
H286  C337  1.071 1_655  S
N105  C339  1.406 .      S
N105  H287  1.027 .      S
N105  H288  1.029 .      S
C340  H289  1.079 .      S
C341  H290  1.081 .      S
C342  C345  1.453 1_544  S
C343  H291  1.081 .      S
C344  H292  1.080 .      S
C345  C342  1.453 1_566  S
N106  Zn13  2.151 1_565  S
C347  H293  1.062 .      S
C348  N107  1.386 .      S
N107  H294  1.026 .      S
N107  H295  1.014 .      S
C349  H296  1.079 .      S
C350  H297  1.007 .      S
N109  C352  1.406 .      S
N109  H298  1.029 .      S
N109  H299  1.029 .      S
C353  H300  1.081 .      S
C354  H301  1.074 .      S
C355  C358  1.469 .      S
C356  H302  1.070 .      S
C357  H303  1.081 .      S
C360  H304  1.063 .      S
C361  N111  1.407 .      S
N111  H305  1.029 .      S
N111  H306  1.029 .      S
C362  H307  1.080 .      S
C363  H308  1.063 .      S
N113  C365  1.409 .      S
N113  H309  1.028 .      S
N113  H310  1.027 .      S
C366  H311  1.053 .      S
C367  H312  1.064 .      S
C368  C371  1.449 .      S
C369  H313  1.049 1_655  S
C370  H314  1.046 .      S
C373  H315  1.068 .      S
C374  N115  1.408 .      S
N115  H316  1.029 .      S
N115  H317  1.029 1_455  S
C375  H318  1.070 .      S
C376  H319  1.072 .      S
H313  C369  1.049 1_455  S
H317  N115  1.029 1_655  S
N117  C378  1.409 .      S
N117  H320  1.029 .      S
N117  H321  1.029 .      S
C379  H322  1.076 .      S
C380  H323  1.080 .      S
C381  C384  1.493 .      S
C382  H324  1.080 .      S
C383  H325  1.078 .      S
C386  H326  1.044 .      S
C387  N119  1.400 .      S
N119  H327  1.029 .      S
N119  H328  1.016 1_565  S
C388  H329  1.081 .      S
C389  H330  1.030 .      S
H328  N119  1.016 1_545  S
N121  C391  1.384 .      S
N121  H331  1.026 .      S
N121  H332  1.027 .      S
C392  H333  1.047 .      S
C393  H334  1.069 .      S
C394  C397  1.449 .      S
C395  H335  1.080 .      S
C396  H336  1.081 .      S
C399  H337  1.059 .      S
C400  N123  1.372 .      S
N123  H338  1.016 .      S
N123  H339  1.019 .      S
C401  H340  1.081 .      S
C402  H341  1.076 .      S
N125  C404  1.399 .      S
N125  H342  1.024 .      S
N125  H343  1.017 .      S
C405  H344  1.079 .      S
C406  H345  1.053 .      S
C407  C410  1.473 .      S
C408  H346  1.081 .      S
C409  H347  1.069 .      S
C412  H348  1.079 .      S
C413  N127  1.407 1_655  S
N127  C413  1.407 1_455  S
N127  H349  1.029 .      S
N127  H350  1.027 .      S
C414  H351  1.081 1_655  S
C415  H352  1.080 .      S
H351  C414  1.081 1_455  S
C1    C2    1.373 .      A
C1    C6    1.365 .      A
C2    C3    1.386 .      A
C3    C4    1.357 .      A
C4    C5    1.365 .      A
C5    C6    1.364 .      A
C7    N2    1.405 .      A
C7    N4    1.401 .      A
N2    C8    1.342 .      A
C8    C9    1.334 1_455  A
C8    C13   1.354 .      A
C9    C8    1.334 1_655  A
C9    C10   1.376 .      A
C10   C11   1.365 .      A
C11   C12   1.364 .      A
C12   C13   1.371 1_655  A
C13   C12   1.371 1_455  A
C13   N4    1.343 .      A
C14   C15   1.370 .      A
C14   C19   1.364 .      A
C15   C16   1.385 .      A
C16   C17   1.375 .      A
C17   C18   1.361 .      A
C18   C19   1.361 .      A
C20   N6    1.395 .      A
C20   N8    1.399 1_655  A
N6    C21   1.336 1_655  A
C21   N6    1.336 1_455  A
C21   C22   1.356 .      A
C21   C26   1.352 .      A
C22   C23   1.380 .      A
C23   C24   1.384 .      A
C24   C25   1.383 .      A
C25   C26   1.368 .      A
C26   N8    1.351 .      A
N8    C20   1.399 1_455  A
C27   C28   1.374 .      A
C27   C32   1.374 .      A
C28   C29   1.377 .      A
C29   C30   1.362 .      A
C30   C31   1.368 .      A
C31   C32   1.379 .      A
C33   N10   1.395 .      A
C33   N12   1.385 .      A
N10   C34   1.342 .      A
C34   C35   1.334 .      A
C34   C39   1.349 .      A
C35   C36   1.368 .      A
C36   C37   1.366 .      A
C37   C38   1.383 .      A
C38   C39   1.365 .      A
C39   N12   1.328 .      A
C40   C41   1.364 .      A
C40   C45   1.358 1_556  A
C41   C42   1.359 .      A
C42   C43   1.371 .      A
C43   C44   1.402 .      A
C44   C45   1.351 1_556  A
C45   C40   1.358 1_554  A
C45   C44   1.351 1_554  A
C46   N14   1.380 .      A
C46   N16   1.407 .      A
N14   C47   1.334 .      A
C47   C48   1.364 .      A
C47   C52   1.359 .      A
C48   C49   1.369 .      A
C49   C50   1.380 1_655  A
C50   C49   1.380 1_455  A
C50   C51   1.393 1_455  A
C51   C50   1.393 1_655  A
C51   C52   1.358 .      A
C52   N16   1.346 .      A
C53   C54   1.362 .      A
C53   C58   1.359 .      A
C54   C55   1.371 .      A
C55   C56   1.364 .      A
C56   C57   1.346 .      A
C57   C58   1.387 .      A
C59   N18   1.408 .      A
C59   N20   1.402 .      A
N18   C60   1.345 .      A
C60   C61   1.371 .      A
C60   C65   1.378 .      A
C61   C62   1.383 .      A
C62   C63   1.389 .      A
C63   C64   1.385 .      A
C64   C65   1.375 .      A
C65   N20   1.354 .      A
C66   C67   1.356 .      A
C66   C71   1.375 1_556  A
C67   C68   1.347 1_556  A
C68   C67   1.347 1_554  A
C68   C69   1.330 .      A
C69   C70   1.358 .      A
C70   C71   1.375 .      A
C71   C66   1.375 1_554  A
C72   N22   1.391 .      A
C72   N24   1.381 .      A
N22   C73   1.350 .      A
C73   C74   1.371 .      A
C73   C78   1.380 .      A
C74   C75   1.386 1_565  A
C75   C74   1.386 1_545  A
C75   C76   1.394 .      A
C76   C77   1.387 1_545  A
C77   C76   1.387 1_565  A
C77   C78   1.376 .      A
C78   N24   1.351 .      A
C79   C80   1.367 .      A
C79   C84   1.376 .      A
C80   C81   1.363 .      A
C81   C82   1.353 .      A
C82   C83   1.373 .      A
C83   C84   1.369 .      A
C85   N26   1.389 .      A
C85   N28   1.387 .      A
N26   C86   1.350 .      A
C86   C87   1.370 .      A
C86   C91   1.382 .      A
C87   C88   1.385 .      A
C88   C89   1.393 1_655  A
C89   C88   1.393 1_455  A
C89   C90   1.385 .      A
C90   C91   1.373 1_455  A
C91   C90   1.373 1_655  A
C91   N28   1.353 .      A
C92   C93   1.373 .      A
C92   C97   1.376 .      A
C93   C94   1.366 .      A
C94   C95   1.343 .      A
C95   C96   1.365 .      A
C96   C97   1.364 .      A
C98   N30   1.389 .      A
C98   N32   1.384 .      A
N30   C99   1.358 .      A
C99   C100  1.379 .      A
C99   C104  1.373 .      A
C100  C101  1.384 .      A
C101  C102  1.379 .      A
C102  C103  1.369 .      A
C103  C104  1.369 .      A
C104  N32   1.337 .      A
C105  C106  1.364 1_455  A
C105  C110  1.361 1_455  A
C106  C105  1.364 1_655  A
C106  C107  1.367 .      A
C107  C108  1.340 .      A
C108  C109  1.363 .      A
C109  C110  1.353 .      A
C110  C105  1.361 1_655  A
C111  N34   1.394 .      A
C111  N36   1.367 .      A
N34   C112  1.348 .      A
C112  C113  1.371 .      A
C112  C117  1.380 .      A
C113  C114  1.386 .      A
C114  C115  1.393 .      A
C115  C116  1.386 .      A
C116  C117  1.371 .      A
C117  N36   1.352 .      A
C118  C119  1.372 .      A
C118  C123  1.366 .      A
C119  C120  1.361 .      A
C120  C121  1.356 .      A
C121  C122  1.372 .      A
C122  C123  1.357 .      A
C124  N38   1.386 .      A
C124  N40   1.364 .      A
N38   C125  1.340 .      A
C125  C126  1.359 .      A
C125  C130  1.360 .      A
C126  C127  1.368 .      A
C127  C128  1.379 .      A
C128  C129  1.374 .      A
C129  C130  1.364 .      A
C130  N40   1.346 .      A
C131  C132  1.363 1_455  A
C131  C136  1.375 .      A
C132  C131  1.363 1_655  A
C132  C133  1.369 .      A
C133  C134  1.370 1_655  A
C134  C133  1.370 1_455  A
C134  C135  1.381 .      A
C135  C136  1.376 .      A
C137  N42   1.376 .      A
C137  N44   1.383 .      A
N42   C138  1.344 .      A
C138  C139  1.366 .      A
C138  C143  1.352 .      A
C139  C140  1.383 .      A
C140  C141  1.386 .      A
C141  C142  1.383 .      A
C142  C143  1.373 .      A
C143  N44   1.347 .      A
C144  C145  1.374 .      A
C144  C149  1.379 .      A
C145  C146  1.375 .      A
C146  C147  1.359 .      A
C147  C148  1.365 .      A
C148  C149  1.383 .      A
C150  N46   1.386 .      A
C150  N48   1.382 .      A
N46   C151  1.353 .      A
C151  C152  1.373 .      A
C151  C156  1.364 .      A
C152  C153  1.394 .      A
C153  C154  1.389 .      A
C154  C155  1.379 .      A
C155  C156  1.370 .      A
C156  N48   1.340 .      A
C157  C158  1.372 .      A
C157  C162  1.380 .      A
C158  C159  1.372 .      A
C159  C160  1.377 .      A
C160  C161  1.376 .      A
C161  C162  1.380 .      A
C163  N50   1.380 .      A
C163  N52   1.374 .      A
N50   C164  1.343 .      A
C164  C165  1.377 .      A
C164  C169  1.354 .      A
C165  C166  1.390 .      A
C166  C167  1.387 .      A
C167  C168  1.375 .      A
C168  C169  1.369 .      A
C169  N52   1.341 .      A
C170  C171  1.366 .      A
C170  C175  1.372 .      A
C171  C172  1.373 .      A
C172  C173  1.367 .      A
C173  C174  1.380 .      A
C174  C175  1.387 .      A
C176  N54   1.412 .      A
C176  N56   1.378 .      A
N54   C177  1.352 1_556  A
C177  N54   1.352 1_554  A
C177  C178  1.361 .      A
C177  C182  1.361 .      A
C178  C179  1.383 .      A
C179  C180  1.386 .      A
C180  C181  1.382 .      A
C181  C182  1.376 .      A
C182  N56   1.342 1_554  A
N56   C182  1.342 1_556  A
C183  C184  1.375 1_655  A
C183  C188  1.374 1_556  A
C184  C183  1.375 1_455  A
C184  C185  1.379 .      A
C185  C186  1.358 .      A
C186  C187  1.346 1_456  A
C187  C186  1.346 1_654  A
C187  C188  1.377 .      A
C188  C183  1.374 1_554  A
C189  N58   1.380 1_556  A
C189  N60   1.375 1_556  A
N58   C189  1.380 1_554  A
N58   C190  1.346 .      A
C190  C191  1.373 .      A
C190  C195  1.375 .      A
C191  C192  1.386 .      A
C192  C193  1.393 .      A
C193  C194  1.383 .      A
C194  C195  1.372 .      A
C195  N60   1.343 .      A
N60   C189  1.375 1_554  A
C196  C197  1.367 1_556  A
C196  C201  1.380 .      A
C197  C196  1.367 1_554  A
C197  C198  1.364 .      A
C198  C199  1.369 1_554  A
C199  C198  1.369 1_556  A
C199  C200  1.379 .      A
C200  C201  1.378 .      A
C202  N62   1.374 1_556  A
C202  N64   1.372 1_556  A
N62   C202  1.374 1_554  A
N62   C203  1.345 .      A
C203  C204  1.371 .      A
C203  C208  1.355 .      A
C204  C205  1.380 .      A
C205  C206  1.391 .      A
C206  C207  1.388 .      A
C207  C208  1.371 .      A
C208  N64   1.349 .      A
N64   C202  1.372 1_554  A
C209  C210  1.371 .      A
C209  C214  1.376 .      A
C210  C211  1.370 .      A
C211  C212  1.369 .      A
C212  C213  1.379 .      A
C213  C214  1.379 .      A
C215  N66   1.389 .      A
C215  N68   1.380 1_455  A
N66   C216  1.348 .      A
C216  C217  1.372 1_455  A
C216  C221  1.366 1_455  A
C217  C216  1.372 1_655  A
C217  C218  1.386 .      A
C218  C219  1.391 .      A
C219  C220  1.385 .      A
C220  C221  1.375 .      A
C221  C216  1.366 1_655  A
C221  N68   1.349 .      A
N68   C215  1.380 1_655  A
C222  C223  1.380 .      A
C222  C227  1.361 .      A
C223  C224  1.374 .      A
C224  C225  1.370 .      A
C225  C226  1.368 .      A
C226  C227  1.375 .      A
C228  N70   1.385 .      A
C228  N72   1.378 .      A
N70   C229  1.342 .      A
C229  C230  1.381 .      A
C229  C234  1.367 .      A
C230  C231  1.382 .      A
C231  C232  1.387 1_556  A
C232  C231  1.387 1_554  A
C232  C233  1.386 .      A
C233  C234  1.369 1_554  A
C234  C233  1.369 1_556  A
C234  N72   1.350 .      A
C235  C236  1.376 .      A
C235  C240  1.375 .      A
C236  C237  1.369 .      A
C237  C238  1.378 .      A
C238  C239  1.363 1_556  A
C239  C238  1.363 1_554  A
C239  C240  1.372 1_554  A
C240  C239  1.372 1_556  A
C241  N74   1.380 .      A
C241  N76   1.395 1_556  A
N74   C242  1.331 .      A
C242  C243  1.367 .      A
C242  C247  1.363 .      A
C243  C244  1.376 .      A
C244  C245  1.379 .      A
C245  C246  1.385 1_556  A
C246  C245  1.385 1_554  A
C246  C247  1.361 1_554  A
C247  C246  1.361 1_556  A
C247  N76   1.357 1_556  A
N76   C241  1.395 1_554  A
N76   C247  1.357 1_554  A
C248  C249  1.374 1_455  A
C248  C253  1.370 .      A
C249  C248  1.374 1_655  A
C249  C250  1.375 .      A
C250  C251  1.336 .      A
C251  C252  1.372 1_655  A
C252  C251  1.372 1_455  A
C252  C253  1.373 .      A
C254  N78   1.410 .      A
C254  N80   1.381 .      A
N78   C255  1.349 .      A
C255  C256  1.342 .      A
C255  C260  1.364 .      A
C256  C257  1.383 .      A
C257  C258  1.379 .      A
C258  C259  1.377 .      A
C259  C260  1.373 .      A
C260  N80   1.336 .      A
C261  C262  1.378 .      A
C261  C266  1.377 .      A
C262  C263  1.379 .      A
C263  C264  1.383 .      A
C264  C265  1.380 .      A
C265  C266  1.379 .      A
C267  N82   1.400 .      A
C267  N84   1.375 .      A
N82   C268  1.344 .      A
C268  C269  1.362 .      A
C268  C273  1.369 .      A
C269  C270  1.383 .      A
C270  C271  1.378 .      A
C271  C272  1.367 .      A
C272  C273  1.366 .      A
C273  N84   1.337 .      A
C274  C275  1.378 .      A
C274  C279  1.374 .      A
C275  C276  1.367 .      A
C276  C277  1.366 .      A
C277  C278  1.378 .      A
C278  C279  1.372 .      A
C280  N86   1.385 .      A
C280  N88   1.392 .      A
N86   C281  1.335 1_565  A
C281  N86   1.335 1_545  A
C281  C282  1.365 .      A
C281  C286  1.369 1_545  A
C282  C283  1.378 .      A
C283  C284  1.391 .      A
C284  C285  1.383 .      A
C285  C286  1.380 1_545  A
C286  C281  1.369 1_565  A
C286  C285  1.380 1_565  A
C286  N88   1.360 .      A
C287  C288  1.376 .      A
C287  C292  1.381 1_455  A
C288  C289  1.377 .      A
C289  C290  1.379 .      A
C290  C291  1.380 1_455  A
C291  C290  1.380 1_655  A
C291  C292  1.381 .      A
C292  C287  1.381 1_655  A
C293  N90   1.396 1_545  A
C293  N92   1.394 1_445  A
N90   C293  1.396 1_565  A
N90   C294  1.303 .      A
C294  C295  1.343 .      A
C294  C299  1.340 .      A
C295  C296  1.344 .      A
C296  C297  1.385 .      A
C297  C298  1.381 .      A
C298  C299  1.317 .      A
C299  N92   1.328 1_455  A
N92   C293  1.394 1_665  A
N92   C299  1.328 1_655  A
C300  C301  1.371 .      A
C300  C305  1.386 .      A
C301  C302  1.367 .      A
C302  C303  1.375 .      A
C303  C304  1.347 .      A
C304  C305  1.356 .      A
C306  N94   1.385 .      A
C306  N96   1.405 .      A
N94   C307  1.347 .      A
C307  C308  1.372 .      A
C307  C312  1.378 .      A
C308  C309  1.386 .      A
C309  C310  1.393 1_565  A
C310  C309  1.393 1_545  A
C310  C311  1.386 .      A
C311  C312  1.372 1_545  A
C312  C311  1.372 1_565  A
C312  N96   1.350 .      A
C313  C314  1.373 .      A
C313  C318  1.371 1_565  A
C314  C315  1.370 .      A
C315  C316  1.363 .      A
C316  C317  1.376 1_565  A
C317  C316  1.376 1_545  A
C317  C318  1.368 .      A
C318  C313  1.371 1_545  A
C319  N98   1.379 .      A
C319  N100  1.391 .      A
N98   C320  1.321 .      A
C320  C321  1.363 1_565  A
C320  C325  1.346 .      A
C321  C320  1.363 1_545  A
C321  C322  1.370 .      A
C322  C323  1.401 .      A
C323  C324  1.375 1_545  A
C324  C323  1.375 1_565  A
C324  C325  1.359 .      A
C325  N100  1.341 .      A
C326  C327  1.367 .      A
C326  C331  1.378 .      A
C327  C328  1.373 1_655  A
C328  C327  1.373 1_455  A
C328  C329  1.368 1_455  A
C329  C328  1.368 1_655  A
C329  C330  1.373 .      A
C330  C331  1.374 .      A
C332  N102  1.399 .      A
C332  N104  1.387 1_455  A
N102  C333  1.353 1_556  A
C333  N102  1.353 1_554  A
C333  C334  1.377 1_565  A
C333  C338  1.368 .      A
C334  C333  1.377 1_545  A
C334  C335  1.384 .      A
C335  C336  1.388 1_545  A
C336  C335  1.388 1_565  A
C336  C337  1.383 .      A
C337  C338  1.374 .      A
C338  N104  1.348 1_454  A
N104  C332  1.387 1_655  A
N104  C338  1.348 1_656  A
C339  C340  1.379 .      A
C339  C344  1.377 .      A
C340  C341  1.377 .      A
C341  C342  1.377 .      A
C342  C343  1.379 .      A
C343  C344  1.377 .      A
C345  N106  1.406 .      A
C345  N108  1.402 .      A
N106  C346  1.343 .      A
C346  C347  1.367 .      A
C346  C351  1.344 .      A
C347  C348  1.385 .      A
C348  C349  1.366 .      A
C349  C350  1.358 .      A
C350  C351  1.326 .      A
C351  N108  1.329 .      A
C352  C353  1.375 .      A
C352  C357  1.373 .      A
C353  C354  1.378 .      A
C354  C355  1.382 .      A
C355  C356  1.380 .      A
C356  C357  1.376 .      A
C358  N110  1.380 1_455  A
C358  N112  1.388 .      A
N110  C358  1.380 1_655  A
N110  C359  1.346 .      A
C359  C360  1.374 .      A
C359  C364  1.354 .      A
C360  C361  1.381 .      A
C361  C362  1.384 .      A
C362  C363  1.379 .      A
C363  C364  1.366 .      A
C364  N112  1.343 1_655  A
N112  C364  1.343 1_455  A
C365  C366  1.354 .      A
C365  C370  1.360 .      A
C366  C367  1.368 .      A
C367  C368  1.372 .      A
C368  C369  1.332 .      A
C369  C370  1.382 .      A
C371  N114  1.376 .      A
C371  N116  1.413 1_655  A
N114  C372  1.325 .      A
C372  C373  1.358 .      A
C372  C377  1.363 1_655  A
C373  C374  1.370 1_655  A
C374  C373  1.370 1_455  A
C374  C375  1.384 .      A
C375  C376  1.385 .      A
C376  C377  1.366 .      A
C377  C372  1.363 1_455  A
C377  N116  1.358 .      A
N116  C371  1.413 1_455  A
C378  C379  1.372 .      A
C378  C383  1.372 .      A
C379  C380  1.379 .      A
C380  C381  1.393 .      A
C381  C382  1.385 .      A
C382  C383  1.383 .      A
C384  N118  1.400 .      A
C384  N120  1.394 .      A
N118  C385  1.345 .      A
C385  C386  1.353 .      A
C385  C390  1.350 .      A
C386  C387  1.385 .      A
C387  C388  1.369 .      A
C388  C389  1.370 .      A
C389  C390  1.374 .      A
C390  N120  1.346 .      A
C391  C392  1.370 .      A
C391  C396  1.354 .      A
C392  C393  1.350 1_455  A
C393  C392  1.350 1_655  A
C393  C394  1.344 .      A
C394  C395  1.410 .      A
C395  C396  1.358 1_655  A
C396  C395  1.358 1_455  A
C397  N122  1.417 .      A
C397  N124  1.393 .      A
N122  C398  1.334 .      A
C398  C399  1.325 .      A
C398  C403  1.378 .      A
C399  C400  1.359 .      A
C400  C401  1.380 .      A
C401  C402  1.354 .      A
C402  C403  1.358 .      A
C403  N124  1.313 .      A
C404  C405  1.360 .      A
C404  C409  1.369 .      A
C405  C406  1.370 .      A
C406  C407  1.387 .      A
C407  C408  1.376 .      A
C408  C409  1.376 .      A
C410  N126  1.398 .      A
C410  N128  1.398 .      A
N126  C411  1.346 .      A
C411  C412  1.372 .      A
C411  C416  1.375 .      A
C412  C413  1.383 1_565  A
C413  C412  1.383 1_545  A
C413  C414  1.388 .      A
C414  C415  1.384 1_545  A
C415  C414  1.384 1_565  A
C415  C416  1.383 .      A
C416  N128  1.357 .      A
