data_str_m1_o12435_OKO
_audit_creation_date              2015-10-01T06:34:09-0700
_symmetry_space_group_name_H-M    P1
_symmetry_Int_Tables_number       1
_space_group_crystal_system       triclinic
loop_
_symmetry_equiv_pos_as_xyz
  x,y,z
_cell_length_a                    26.7898475
_cell_length_b                    26.5320418
_cell_length_c                    24.3353884
_cell_angle_alpha                 94.3938711
_cell_angle_beta                  107.025069
_cell_angle_gamma                 66.6655264
_cell_volume                      15171.2605137

loop_
_atom_site_label
_atom_site_type_symbol
_atom_site_description
_atom_site_fract_x
_atom_site_fract_y
_atom_site_fract_z
_atom_type_partial_charge
Zn1   Zn    Zn3+2 0.038911 0.380001 0.847321 0.000000
Zn2   Zn    Zn3+2 0.047053 0.006903 0.833967 0.000000
Zn3   Zn    Zn3+2 0.569741 0.261360 0.269364 0.000000
Zn4   Zn    Zn3+2 0.813978 0.190686 0.425864 0.000000
Zn5   Zn    Zn3+2 0.429705 0.237361 0.415718 0.000000
Zn6   Zn    Zn3+2 0.070279 0.386752 0.463393 0.000000
Zn7   Zn    Zn3+2 0.066067 0.012558 0.466537 0.000000
Zn8   Zn    Zn3+2 0.549946 0.267875 0.675215 0.000000
Zn9   Zn    Zn3+2 0.816378 0.426266 0.427634 0.000000
Zn10  Zn    Zn3+2 0.801910 0.425336 0.681454 0.000000
Zn11  Zn    Zn3+2 0.432957 0.521408 0.645451 0.000000
Zn12  Zn    Zn3+2 0.452815 0.514330 0.219650 0.000000
Zn13  Zn    Zn3+2 0.239105 0.615133 0.009560 0.000000
Zn14  Zn    Zn3+2 0.374369 0.032481 0.352642 0.000000
Zn15  Zn    Zn3+2 0.299321 0.592873 0.381453 0.000000
Zn16  Zn    Zn3+2 0.607769 0.637621 0.273187 0.000000
Zn17  Zn    Zn3+2 0.799803 0.197577 0.683288 0.000000
Zn18  Zn    Zn3+2 0.476268 0.789524 0.430381 0.000000
Zn19  Zn    Zn3+2 0.588219 0.647203 0.674235 0.000000
Zn20  Zn    Zn3+2 0.439463 0.816768 0.804377 0.000000
Zn21  Zn    Zn3+2 0.442747 0.804297 0.071119 0.000000
Zn22  Zn    Zn3+2 0.220320 0.833652 0.325193 0.000000
Zn23  Zn    Zn3+2 0.188080 0.433344 0.307032 0.000000
Zn24  Zn    Zn3+2 0.177031 0.432393 0.062460 0.000000
Zn25  Zn    Zn3+2 0.387716 0.259792 0.805224 0.000000
Zn26  Zn    Zn3+2 0.391219 0.244326 0.073316 0.000000
Zn27  Zn    Zn3+2 0.180253 0.847886 0.057412 0.000000
Zn28  Zn    Zn3+2 0.346687 0.038358 0.110092 0.000000
Zn29  Zn    Zn3+2 0.150829 0.458676 0.709102 0.000000
Zn30  Zn    Zn3+2 0.341413 0.047773 0.728031 0.000000
Zn31  Zn    Zn3+2 0.243263 0.628326 0.760378 0.000000
Zn32  Zn    Zn3+2 0.211086 0.136019 0.491644 0.000000
Zn33  Zn    Zn3+2 0.182451 0.852988 0.689245 0.000000
Zn34  Zn    Zn3+2 0.192715 0.135904 0.888911 0.000000
Br1   Br    Br    0.955460 0.283383 0.641026 0.000000
C1    C     C_R   0.016627 0.256639 0.709354 0.000000
C2    C     C_R   0.047784 0.200594 0.720785 0.000000
C3    C     C_R   0.090977 0.181122 0.771520 0.000000
C4    C     C_R   0.098921 0.218727 0.811483 0.000000
N1    N     N_R   0.135192 0.209796 0.864916 0.000000
C5    C     C_R   0.121997 0.261006 0.886335 0.000000
N2    N     N_R   0.081770 0.301075 0.846394 0.000000
C6    C     C_R   0.068190 0.273076 0.800158 0.000000
C7    C     C_R   0.028910 0.293657 0.748192 0.000000
H1    H     H_    0.039667 0.172098 0.689014 0.000000
H2    H     H_    0.116188 0.137873 0.779083 0.000000
H3    H     H_    0.140924 0.268790 0.930026 0.000000
H4    H     H_    0.006814 0.337171 0.738257 0.000000
Br2   Br    Br    0.982234 0.208744 0.911300 0.000000
C8    C     C_R   0.953679 0.263987 0.851861 0.000000
C9    C     C_R   0.918113 0.259945 0.799418 0.000000
C10   C     C_R   0.894358 0.302753 0.758831 0.000000
C11   C     C_R   0.899284 0.351674 0.774415 0.000000
N3    N     N_R   0.878653 0.398353 0.741399 0.000000
C12   C     C_R   0.916726 0.421559 0.765880 0.000000
N4    N     N_R   0.958207 0.391728 0.813437 0.000000
C13   C     C_R   0.943363 0.350267 0.819496 0.000000
C14   C     C_R   0.971731 0.306510 0.859201 0.000000
H5    H     H_    0.910786 0.222676 0.789415 0.000000
H6    H     H_    0.878621 0.295265 0.714938 0.000000
H7    H     H_    0.916446 0.456452 0.745974 0.000000
H8    H     H_    0.007071 0.304415 0.895360 0.000000
Br3   Br    Br    0.335278 0.932332 0.856885 0.000000
C15   C     C_R   0.256884 0.974389 0.834183 0.000000
C16   C     C_R   0.219306 0.967999 0.783891 0.000000
C17   C     C_R   0.161558 0.993400 0.776875 0.000000
C18   C     C_R   0.144414 0.026431 0.820067 0.000000
N5    N     N_R   0.095561 0.047283 0.835692 0.000000
C19   C     C_R   0.102202 0.087785 0.871058 0.000000
N6    N     N_R   0.154373 0.088510 0.880168 0.000000
C20   C     C_R   0.180806 0.045629 0.853829 0.000000
C21   C     C_R   0.237467 0.015888 0.868527 0.000000
H9    H     H_    0.234244 0.941492 0.751514 0.000000
H10   H     H_    0.133298 0.986895 0.738433 0.000000
H11   H     H_    0.070466 0.115243 0.889986 0.000000
H12   H     H_    0.266438 0.024757 0.904988 0.000000
Br4   Br    Br    0.809676 0.984671 0.295867 0.000000
C22   C     C_R   0.757007 0.057261 0.301131 0.000000
C23   C     C_R   0.699577 0.071873 0.273730 0.000000
C24   C     C_R   0.660818 0.124553 0.276926 0.000000
C25   C     C_R   0.681148 0.162158 0.305663 0.000000
N7    N     N_R   0.652132 0.216093 0.311692 0.000000
C26   C     C_R   0.691342 0.229582 0.353337 0.000000
N8    N     N_R   0.743958 0.187339 0.369574 0.000000
C27   C     C_R   0.736318 0.145995 0.337607 0.000000
C28   C     C_R   0.775899 0.094390 0.334301 0.000000
H13   H     H_    0.684904 0.041750 0.250195 0.000000
H14   H     H_    0.616032 0.134959 0.258382 0.000000
H15   H     H_    0.682611 0.269921 0.370472 0.000000
H16   H     H_    0.820231 0.082556 0.357004 0.000000
Br5   Br    Br    0.701984 0.280453 0.180919 0.000000
C29   C     C_R   0.724987 0.309487 0.253511 0.000000
C30   C     C_R   0.715123 0.364801 0.256781 0.000000
C31   C     C_R   0.737411 0.384910 0.307862 0.000000
C32   C     C_R   0.768487 0.348754 0.354735 0.000000
N9    N     N_R   0.799732 0.358032 0.405484 0.000000
C33   C     C_R   0.820855 0.308869 0.436484 0.000000
N10   N     N_R   0.805264 0.269059 0.405755 0.000000
C34   C     C_R   0.773842 0.295542 0.353556 0.000000
C35   C     C_R   0.753883 0.274519 0.301926 0.000000
H17   H     H_    0.692399 0.391686 0.218616 0.000000
H18   H     H_    0.732668 0.427133 0.309631 0.000000
H19   H     H_    0.847156 0.302269 0.480621 0.000000
H20   H     H_    0.763102 0.231400 0.297046 0.000000
Br6   Br    Br    0.566940 0.427679 0.413869 0.000000
C36   C     C_R   0.539570 0.372197 0.412082 0.000000
C37   C     C_R   0.495903 0.378824 0.435248 0.000000
C38   C     C_R   0.473255 0.339310 0.427994 0.000000
C39   C     C_R   0.492321 0.296826 0.394004 0.000000
N11   N     N_R   0.470653 0.259236 0.373592 0.000000
C40   C     C_R   0.491130 0.240411 0.327376 0.000000
N12   N     N_R   0.527656 0.262547 0.322196 0.000000
C41   C     C_R   0.528941 0.295785 0.365923 0.000000
C42   C     C_R   0.558241 0.328580 0.378964 0.000000
H21   H     H_    0.478607 0.415487 0.457585 0.000000
H22   H     H_    0.437272 0.345376 0.442312 0.000000
H23   H     H_    0.480052 0.211157 0.298293 0.000000
H24   H     H_    0.589348 0.325533 0.357808 0.000000
Br7   Br    Br    0.589840 0.008015 0.559475 0.000000
C43   C     C_R   0.554906 0.083677 0.570503 0.000000
C44   C     C_R   0.565714 0.097710 0.627140 0.000000
C45   C     C_R   0.550609 0.151582 0.639775 0.000000
C46   C     C_R   0.523775 0.189356 0.595024 0.000000
N13   N     N_R   0.517336 0.241356 0.599062 0.000000
C47   C     C_R   0.492244 0.261624 0.543226 0.000000
N14   N     N_R   0.478953 0.224524 0.504646 0.000000
C48   C     C_R   0.504515 0.177701 0.539171 0.000000
C49   C     C_R   0.522596 0.123352 0.525234 0.000000
H25   H     H_    0.589847 0.066126 0.661122 0.000000
H26   H     H_    0.561654 0.163612 0.683182 0.000000
H27   H     H_    0.483793 0.303113 0.531739 0.000000
H28   H     H_    0.515542 0.111630 0.481302 0.000000
Br8   Br    Br    0.998434 0.284011 0.245558 0.000000
C50   C     C_R   0.966829 0.321270 0.304421 0.000000
C51   C     C_R   0.909658 0.334604 0.295917 0.000000
C52   C     C_R   0.883866 0.362403 0.336593 0.000000
C53   C     C_R   0.916541 0.373885 0.386433 0.000000
N15   N     N_R   0.898399 0.403629 0.429241 0.000000
C54   C     C_R   0.945769 0.411355 0.462462 0.000000
N16   N     N_R   0.991827 0.387249 0.441143 0.000000
C55   C     C_R   0.971814 0.363848 0.393549 0.000000
C56   C     C_R   0.998695 0.337329 0.353051 0.000000
H29   H     H_    0.884749 0.324688 0.256274 0.000000
H30   H     H_    0.838951 0.378292 0.327188 0.000000
H31   H     H_    0.946372 0.434970 0.500684 0.000000
H32   H     H_    0.042555 0.329885 0.358385 0.000000
Br9   Br    Br    0.377259 0.223837 0.593289 0.000000
C57   C     C_R   0.297993 0.258547 0.558195 0.000000
C58   C     C_R   0.268989 0.314743 0.546092 0.000000
C59   C     C_R   0.210892 0.337030 0.520256 0.000000
C60   C     C_R   0.184543 0.300998 0.503990 0.000000
N17   N     N_R   0.129905 0.311605 0.476162 0.000000
C61   C     C_R   0.130011 0.260503 0.463438 0.000000
N18   N     N_R   0.181982 0.218888 0.486657 0.000000
C62   C     C_R   0.214491 0.246241 0.511797 0.000000
C63   C     C_R   0.269742 0.224567 0.542346 0.000000
H33   H     H_    0.291590 0.341138 0.556248 0.000000
H34   H     H_    0.188111 0.380700 0.510814 0.000000
H35   H     H_    0.092349 0.253739 0.439971 0.000000
H36   H     H_    0.291135 0.182437 0.554268 0.000000
Br10  Br    Br    0.031915 0.125459 0.265606 0.000000
C64   C     C_R   0.982471 0.125100 0.307934 0.000000
C65   C     C_R   0.929760 0.167947 0.299659 0.000000
C66   C     C_R   0.895080 0.170236 0.333020 0.000000
C67   C     C_R   0.912990 0.128516 0.373077 0.000000
N19   N     N_R   0.890088 0.127346 0.415520 0.000000
C68   C     C_R   0.931641 0.081120 0.448652 0.000000
N20   N     N_R   0.979235 0.056025 0.428859 0.000000
C69   C     C_R   0.964922 0.086219 0.380727 0.000000
C70   C     C_R   0.000800 0.083941 0.349410 0.000000
H37   H     H_    0.916700 0.201068 0.268615 0.000000
H38   H     H_    0.857063 0.205469 0.329781 0.000000
H39   H     H_    0.930650 0.070622 0.490252 0.000000
H40   H     H_    0.042945 0.052178 0.358226 0.000000
Br11  Br    Br    0.027249 0.305046 0.552847 0.000000
C71   C     C_R   0.043428 0.231734 0.528915 0.000000
C72   C     C_R   0.000832 0.213260 0.504505 0.000000
C73   C     C_R   0.014207 0.158477 0.491287 0.000000
C74   C     C_R   0.069626 0.124657 0.497599 0.000000
N21   N     N_R   0.092159 0.073272 0.479440 0.000000
C75   C     C_R   0.140937 0.071457 0.471227 0.000000
N22   N     N_R   0.151653 0.116166 0.490221 0.000000
C76   C     C_R   0.107551 0.147658 0.508564 0.000000
C77   C     C_R   0.098162 0.197669 0.531744 0.000000
H41   H     H_    0.957072 0.241208 0.497629 0.000000
H42   H     H_    0.981046 0.145166 0.472933 0.000000
H43   H     H_    0.167849 0.039330 0.450582 0.000000
H44   H     H_    0.132121 0.210999 0.550003 0.000000
Br12  Br    Br    0.591160 0.530827 0.555897 0.000000
C78   C     C_R   0.656021 0.483744 0.533364 0.000000
C79   C     C_R   0.657701 0.481555 0.476624 0.000000
C80   C     C_R   0.708446 0.455462 0.463812 0.000000
C81   C     C_R   0.756239 0.440697 0.508945 0.000000
N23   N     N_R   0.808717 0.430787 0.507536 0.000000
C82   C     C_R   0.839198 0.420928 0.564936 0.000000
N24   N     N_R   0.805845 0.426023 0.600510 0.000000
C83   C     C_R   0.754392 0.438985 0.563293 0.000000
C84   C     C_R   0.704347 0.456144 0.576268 0.000000
H45   H     H_    0.620438 0.501800 0.442076 0.000000
H46   H     H_    0.710696 0.451716 0.420300 0.000000
H47   H     H_    0.884500 0.409916 0.580351 0.000000
H48   H     H_    0.702735 0.453947 0.619326 0.000000
Br13  Br    Br    0.690737 0.511417 0.873794 0.000000
C85   C     C_R   0.631768 0.517629 0.804722 0.000000
C86   C     C_R   0.611085 0.476646 0.790584 0.000000
C87   C     C_R   0.565316 0.483599 0.742610 0.000000
C88   C     C_R   0.540150 0.532475 0.710727 0.000000
N25   N     N_R   0.492119 0.552173 0.666475 0.000000
C89   C     C_R   0.494915 0.597316 0.646319 0.000000
N26   N     N_R   0.543209 0.604932 0.675804 0.000000
C90   C     C_R   0.567383 0.566582 0.718736 0.000000
C91   C     C_R   0.610970 0.562474 0.767390 0.000000
H49   H     H_    0.630216 0.439425 0.817498 0.000000
H50   H     H_    0.552504 0.450070 0.730455 0.000000
H51   H     H_    0.461406 0.624853 0.612709 0.000000
H52   H     H_    0.628714 0.593063 0.776790 0.000000
Br14  Br    Br    0.540932 0.445152 0.897247 0.000000
C92   C     C_R   0.465636 0.479634 0.848705 0.000000
C93   C     C_R   0.421018 0.501661 0.872636 0.000000
C94   C     C_R   0.367413 0.533091 0.838717 0.000000
C95   C     C_R   0.361183 0.545194 0.782710 0.000000
N27   N     N_R   0.316483 0.582915 0.745922 0.000000
C96   C     C_R   0.335693 0.583250 0.699854 0.000000
N28   N     N_R   0.389020 0.543710 0.704852 0.000000
C97   C     C_R   0.404356 0.522077 0.758635 0.000000
C98   C     C_R   0.456419 0.486664 0.790420 0.000000
H53   H     H_    0.428294 0.495138 0.918084 0.000000
H54   H     H_    0.332607 0.548792 0.856985 0.000000
H55   H     H_    0.310844 0.611596 0.663091 0.000000
H56   H     H_    0.490161 0.467366 0.772073 0.000000
Br15  Br    Br    0.145557 0.550423 0.471447 0.000000
C99   C     C_R   0.211720 0.564661 0.508309 0.000000
C100  C     C_R   0.240008 0.547687 0.565286 0.000000
C101  C     C_R   0.296889 0.538470 0.586704 0.000000
C102  C     C_R   0.322197 0.554068 0.553279 0.000000
N29   N     N_R   0.377143 0.546578 0.565045 0.000000
C103  C     C_R   0.380933 0.557255 0.512205 0.000000
N30   N     N_R   0.330125 0.571815 0.468971 0.000000
C104  C     C_R   0.294427 0.570313 0.497326 0.000000
C105  C     C_R   0.239638 0.575222 0.474135 0.000000
H57   H     H_    0.219835 0.534611 0.590476 0.000000
H58   H     H_    0.321358 0.514875 0.626428 0.000000
H59   H     H_    0.420587 0.552076 0.505425 0.000000
H60   H     H_    0.221479 0.579067 0.429277 0.000000
Br16  Br    Br    0.652291 0.316227 0.527862 0.000000
C106  C     C_R   0.592223 0.358746 0.560065 0.000000
C107  C     C_R   0.568859 0.415472 0.554458 0.000000
C108  C     C_R   0.526857 0.447106 0.579690 0.000000
C109  C     C_R   0.513658 0.420005 0.615147 0.000000
N31   N     N_R   0.477801 0.440776 0.647691 0.000000
C110  C     C_R   0.486062 0.395186 0.677811 0.000000
N32   N     N_R   0.523443 0.347624 0.662273 0.000000
C111  C     C_R   0.538890 0.364860 0.622544 0.000000
C112  C     C_R   0.573668 0.332897 0.591346 0.000000
H61   H     H_    0.583222 0.434356 0.528867 0.000000
H62   H     H_    0.507359 0.491215 0.573717 0.000000
H63   H     H_    0.463936 0.396295 0.708858 0.000000
H64   H     H_    0.587937 0.288904 0.592766 0.000000
Br17  Br    Br    0.436106 0.396229 0.994872 0.000000
C113  C     C_R   0.479737 0.378560 0.072975 0.000000
C114  C     C_R   0.522087 0.326810 0.088927 0.000000
C115  C     C_R   0.552240 0.313460 0.145855 0.000000
C116  C     C_R   0.535802 0.350287 0.185657 0.000000
N33   N     N_R   0.548159 0.340707 0.242450 0.000000
C117  C     C_R   0.522653 0.392686 0.260748 0.000000
N34   N     N_R   0.494984 0.432287 0.217387 0.000000
C118  C     C_R   0.500487 0.403094 0.170155 0.000000
C119  C     C_R   0.469577 0.417866 0.113425 0.000000
H65   H     H_    0.530563 0.296220 0.057290 0.000000
H66   H     H_    0.587802 0.275375 0.158956 0.000000
H67   H     H_    0.517343 0.402279 0.302396 0.000000
H68   H     H_    0.437788 0.458254 0.099702 0.000000
Br18  Br    Br    0.465840 0.645427 0.507950 0.000000
C120  C     C_R   0.461143 0.607570 0.439739 0.000000
C121  C     C_R   0.505521 0.578653 0.416341 0.000000
C122  C     C_R   0.496554 0.554313 0.363755 0.000000
C123  C     C_R   0.443070 0.556167 0.338871 0.000000
N35   N     N_R   0.420232 0.538610 0.287802 0.000000
C124  C     C_R   0.366121 0.550176 0.290361 0.000000
N36   N     N_R   0.356652 0.572307 0.340491 0.000000
C125  C     C_R   0.403798 0.578109 0.367689 0.000000
C126  C     C_R   0.409401 0.607579 0.414450 0.000000
H69   H     H_    0.547114 0.575446 0.438918 0.000000
H70   H     H_    0.530887 0.532825 0.345164 0.000000
H71   H     H_    0.332062 0.548014 0.255636 0.000000
H72   H     H_    0.374406 0.629919 0.431808 0.000000
Br19  Br    Br    0.699831 0.486311 0.121072 0.000000
C127  C     C_R   0.632858 0.509009 0.145262 0.000000
C128  C     C_R   0.594627 0.484069 0.124647 0.000000
C129  C     C_R   0.548222 0.497713 0.145428 0.000000
C130  C     C_R   0.542353 0.534353 0.188117 0.000000
N37   N     N_R   0.504221 0.550322 0.218471 0.000000
C131  C     C_R   0.516745 0.589826 0.252067 0.000000
N38   N     N_R   0.561739 0.596960 0.244390 0.000000
C132  C     C_R   0.577122 0.561304 0.204632 0.000000
C133  C     C_R   0.622629 0.550163 0.183831 0.000000
H73   H     H_    0.601090 0.453819 0.092251 0.000000
H74   H     H_    0.516850 0.481827 0.126840 0.000000
H75   H     H_    0.494242 0.612774 0.281926 0.000000
H76   H     H_    0.650387 0.571714 0.197854 0.000000
Br20  Br    Br    0.327613 0.427492 0.260561 0.000000
C134  C     C_R   0.312573 0.471892 0.194723 0.000000
C135  C     C_R   0.259902 0.512749 0.168717 0.000000
C136  C     C_R   0.254526 0.550852 0.128991 0.000000
C137  C     C_R   0.301182 0.545078 0.112879 0.000000
N39   N     N_R   0.305975 0.581997 0.081528 0.000000
C138  C     C_R   0.360816 0.577066 0.108047 0.000000
N40   N     N_R   0.388566 0.537129 0.151093 0.000000
C139  C     C_R   0.351669 0.514863 0.148919 0.000000
C140  C     C_R   0.359371 0.474294 0.185662 0.000000
H77   H     H_    0.223811 0.518224 0.182734 0.000000
H78   H     H_    0.216772 0.587954 0.116724 0.000000
H79   H     H_    0.380320 0.602805 0.099485 0.000000
H80   H     H_    0.399684 0.450872 0.214818 0.000000
Br21  Br    Br    0.447537 0.638669 0.037799 0.000000
C141  C     C_R   0.383301 0.653632 0.972680 0.000000
C142  C     C_R   0.385506 0.657108 0.916661 0.000000
C143  C     C_R   0.339564 0.660079 0.869967 0.000000
C144  C     C_R   0.294857 0.654331 0.881513 0.000000
N41   N     N_R   0.253965 0.640822 0.845030 0.000000
C145  C     C_R   0.231421 0.625368 0.881642 0.000000
N42   N     N_R   0.256023 0.629870 0.938383 0.000000
C146  C     C_R   0.294829 0.648921 0.936571 0.000000
C147  C     C_R   0.335636 0.653374 0.982317 0.000000
H81   H     H_    0.423586 0.655860 0.909286 0.000000
H82   H     H_    0.341594 0.661018 0.826381 0.000000
H83   H     H_    0.202500 0.605117 0.868915 0.000000
H84   H     H_    0.332701 0.651411 0.024677 0.000000
Br22  Br    Br    0.328497 0.436996 0.861971 0.000000
C148  C     C_R   0.279414 0.453874 0.909288 0.000000
C149  C     C_R   0.259574 0.415273 0.917363 0.000000
C150  C     C_R   0.225965 0.424649 0.953378 0.000000
C151  C     C_R   0.210154 0.474349 0.977771 0.000000
N43   N     N_R   0.182134 0.489822 0.017726 0.000000
C152  C     C_R   0.174988 0.543582 0.024213 0.000000
N44   N     N_R   0.204564 0.558975 0.995637 0.000000
C153  C     C_R   0.225622 0.514222 0.966395 0.000000
C154  C     C_R   0.264589 0.503171 0.936082 0.000000
H85   H     H_    0.273517 0.376516 0.897908 0.000000
H86   H     H_    0.214558 0.393000 0.964087 0.000000
H87   H     H_    0.153338 0.568752 0.053741 0.000000
H88   H     H_    0.284918 0.530160 0.934004 0.000000
Br23  Br    Br    0.943843 0.836217 0.955944 0.000000
C155  C     C_R   0.021539 0.787006 0.980097 0.000000
C156  C     C_R   0.035652 0.730636 0.980735 0.000000
C157  C     C_R   0.091914 0.694270 0.994496 0.000000
C158  C     C_R   0.132582 0.715801 0.010336 0.000000
N45   N     N_R   0.188969 0.689231 0.020419 0.000000
C159  C     C_R   0.207811 0.730493 0.027553 0.000000
N46   N     N_R   0.166366 0.781254 0.026743 0.000000
C160  C     C_R   0.118878 0.770970 0.012848 0.000000
C161  C     C_R   0.063500 0.807695 0.995140 0.000000
H89   H     H_    0.002404 0.715119 0.968287 0.000000
H90   H     H_    0.103129 0.650688 0.992430 0.000000
H91   H     H_    0.250952 0.723462 0.031314 0.000000
H92   H     H_    0.052754 0.850869 0.988883 0.000000
Br24  Br    Br    0.640933 0.946172 0.447328 0.000000
C162  C     C_R   0.581631 0.927631 0.456089 0.000000
C163  C     C_R   0.595111 0.883240 0.491808 0.000000
C164  C     C_R   0.553127 0.866219 0.492965 0.000000
C165  C     C_R   0.501635 0.890030 0.453508 0.000000
N47   N     N_R   0.460097 0.871584 0.437502 0.000000
C166  C     C_R   0.414823 0.916248 0.406446 0.000000
N48   N     N_R   0.428615 0.959611 0.399577 0.000000
C167  C     C_R   0.484864 0.940018 0.428176 0.000000
C168  C     C_R   0.525193 0.960378 0.430362 0.000000
H93   H     H_    0.638090 0.862225 0.518418 0.000000
H94   H     H_    0.559730 0.836025 0.524326 0.000000
H95   H     H_    0.373124 0.916556 0.386169 0.000000
H96   H     H_    0.514543 0.000167 0.413937 0.000000
Br25  Br    Br    0.105334 0.092316 0.141242 0.000000
C169  C     C_R   0.182388 0.053173 0.181751 0.000000
C170  C     C_R   0.197281 0.037141 0.239246 0.000000
C171  C     C_R   0.253267 0.019466 0.272288 0.000000
C172  C     C_R   0.292103 0.021198 0.246799 0.000000
N49   N     N_R   0.345154 0.018393 0.272153 0.000000
C173  C     C_R   0.363461 0.023519 0.227286 0.000000
N50   N     N_R   0.323643 0.030762 0.175701 0.000000
C174  C     C_R   0.278236 0.031613 0.189375 0.000000
C175  C     C_R   0.223330 0.046712 0.155100 0.000000
H97   H     H_    0.164714 0.041258 0.259045 0.000000
H98   H     H_    0.265030 0.007485 0.317109 0.000000
H99   H     H_    0.403195 0.026562 0.231448 0.000000
H100  H     H_    0.211291 0.056462 0.109649 0.000000
Br26  Br    Br    0.637707 0.068311 0.377075 0.000000
C176  C     C_R   0.559847 0.079752 0.354453 0.000000
C177  C     C_R   0.542418 0.040059 0.324651 0.000000
C178  C     C_R   0.488900 0.042059 0.319733 0.000000
C179  C     C_R   0.454013 0.085207 0.343764 0.000000
N51   N     N_R   0.406896 0.089661 0.356616 0.000000
C180  C     C_R   0.390308 0.140287 0.380257 0.000000
N52   N     N_R   0.427489 0.165178 0.385635 0.000000
C181  C     C_R   0.468050 0.128332 0.364401 0.000000
C182  C     C_R   0.522291 0.124931 0.373671 0.000000
H101  H     H_    0.572667 0.004427 0.310789 0.000000
H102  H     H_    0.478827 0.006895 0.305143 0.000000
H103  H     H_    0.353434 0.157458 0.395982 0.000000
H104  H     H_    0.537130 0.153557 0.400138 0.000000
Br27  Br    Br    0.167011 0.192274 0.191914 0.000000
C183  C     C_R   0.194086 0.173560 0.271551 0.000000
C184  C     C_R   0.155265 0.192174 0.302912 0.000000
C185  C     C_R   0.169972 0.173189 0.358624 0.000000
C186  C     C_R   0.223223 0.134087 0.380038 0.000000
N53   N     N_R   0.242905 0.104530 0.429104 0.000000
C187  C     C_R   0.292255 0.063493 0.424914 0.000000
N54   N     N_R   0.306550 0.071032 0.377958 0.000000
C188  C     C_R   0.261610 0.115522 0.349958 0.000000
C189  C     C_R   0.249547 0.137765 0.296201 0.000000
H105  H     H_    0.112599 0.219600 0.282472 0.000000
H106  H     H_    0.138656 0.183861 0.381636 0.000000
H107  H     H_    0.318898 0.030331 0.456678 0.000000
H108  H     H_    0.279818 0.124359 0.271712 0.000000
Br28  Br    Br    0.017471 0.823340 0.373462 0.000000
C190  C     C_R   0.090794 0.772844 0.371386 0.000000
C191  C     C_R   0.104122 0.716982 0.373615 0.000000
C192  C     C_R   0.157432 0.680132 0.372659 0.000000
C193  C     C_R   0.197144 0.700132 0.370425 0.000000
N55   N     N_R   0.251519 0.672729 0.369149 0.000000
C194  C     C_R   0.265934 0.713111 0.355659 0.000000
N56   N     N_R   0.223178 0.763930 0.349814 0.000000
C195  C     C_R   0.181474 0.754671 0.361541 0.000000
C196  C     C_R   0.129526 0.792122 0.364602 0.000000
H109  H     H_    0.072466 0.702054 0.375424 0.000000
H110  H     H_    0.164128 0.637895 0.368624 0.000000
H111  H     H_    0.306331 0.705431 0.348812 0.000000
H112  H     H_    0.118762 0.835305 0.363061 0.000000
Br29  Br    Br    0.055737 0.630096 0.131851 0.000000
C197  C     C_R   0.120634 0.607315 0.197528 0.000000
C198  C     C_R   0.155450 0.636213 0.211105 0.000000
C199  C     C_R   0.201827 0.620427 0.259185 0.000000
C200  C     C_R   0.211758 0.575940 0.292449 0.000000
N57   N     N_R   0.253107 0.555041 0.341159 0.000000
C201  C     C_R   0.249520 0.507564 0.352389 0.000000
N58   N     N_R   0.204395 0.500255 0.314576 0.000000
C202  C     C_R   0.180773 0.544915 0.277546 0.000000
C203  C     C_R   0.133263 0.561246 0.230446 0.000000
H113  H     H_    0.146275 0.671135 0.184122 0.000000
H114  H     H_    0.230005 0.641694 0.268836 0.000000
H115  H     H_    0.280648 0.478583 0.386305 0.000000
H116  H     H_    0.104467 0.541185 0.219412 0.000000
Br30  Br    Br    0.723533 0.740284 0.547459 0.000000
C204  C     C_R   0.680531 0.729277 0.473571 0.000000
C205  C     C_R   0.708160 0.698242 0.435198 0.000000
C206  C     C_R   0.677426 0.684434 0.384818 0.000000
C207  C     C_R   0.619126 0.706627 0.371578 0.000000
N59   N     N_R   0.582310 0.692632 0.329342 0.000000
C208  C     C_R   0.530631 0.724761 0.337145 0.000000
N60   N     N_R   0.534802 0.755109 0.385478 0.000000
C209  C     C_R   0.591434 0.742694 0.405756 0.000000
C210  C     C_R   0.622096 0.749457 0.459819 0.000000
H117  H     H_    0.753961 0.681633 0.446433 0.000000
H118  H     H_    0.699372 0.657694 0.356833 0.000000
H119  H     H_    0.491497 0.721601 0.311858 0.000000
H120  H     H_    0.602740 0.763132 0.493390 0.000000
Br31  Br    Br    0.657952 0.827245 0.339049 0.000000
C211  C     C_R   0.608685 0.805943 0.277105 0.000000
C212  C     C_R   0.554450 0.843445 0.250916 0.000000
C213  C     C_R   0.519284 0.828704 0.204621 0.000000
C214  C     C_R   0.540359 0.777466 0.183321 0.000000
N61   N     N_R   0.513233 0.754597 0.139323 0.000000
C215  C     C_R   0.544017 0.699027 0.154491 0.000000
N62   N     N_R   0.588993 0.688228 0.203939 0.000000
C216  C     C_R   0.587954 0.738504 0.217062 0.000000
C217  C     C_R   0.625022 0.751957 0.261456 0.000000
H121  H     H_    0.539423 0.884311 0.266827 0.000000
H122  H     H_    0.475756 0.856017 0.188433 0.000000
H123  H     H_    0.530024 0.667492 0.134070 0.000000
H124  H     H_    0.665997 0.721437 0.282738 0.000000
Br32  Br    Br    0.808645 0.613436 0.198317 0.000000
C218  C     C_R   0.796277 0.576731 0.254221 0.000000
C219  C     C_R   0.841015 0.533002 0.287759 0.000000
C220  C     C_R   0.833451 0.506281 0.329438 0.000000
C221  C     C_R   0.779775 0.521732 0.334843 0.000000
N63   N     N_R   0.761589 0.499677 0.370068 0.000000
C222  C     C_R   0.704038 0.534241 0.355253 0.000000
N64   N     N_R   0.687379 0.575109 0.313389 0.000000
C223  C     C_R   0.735973 0.565346 0.301475 0.000000
C224  C     C_R   0.742981 0.593950 0.261626 0.000000
H125  H     H_    0.882490 0.519758 0.281448 0.000000
H126  H     H_    0.869511 0.475377 0.356640 0.000000
H127  H     H_    0.673746 0.529875 0.373282 0.000000
H128  H     H_    0.707772 0.628197 0.236092 0.000000
Br33  Br    Br    0.936924 0.168123 0.566120 0.000000
C225  C     C_R   0.954448 0.134644 0.637447 0.000000
C226  C     C_R   0.001843 0.086932 0.658189 0.000000
C227  C     C_R   0.009743 0.062820 0.710091 0.000000
C228  C     C_R   0.967316 0.083777 0.735917 0.000000
N65   N     N_R   0.965003 0.064902 0.784425 0.000000
C229  C     C_R   0.909443 0.099387 0.784296 0.000000
N66   N     N_R   0.879145 0.137663 0.737226 0.000000
C230  C     C_R   0.919190 0.127401 0.711233 0.000000
C231  C     C_R   0.914975 0.157182 0.666501 0.000000
H129  H     H_    0.032719 0.069196 0.634455 0.000000
H130  H     H_    0.045462 0.026481 0.727409 0.000000
H131  H     H_    0.891733 0.096923 0.818108 0.000000
H132  H     H_    0.881288 0.196801 0.653519 0.000000
Br34  Br    Br    0.782629 0.990187 0.467508 0.000000
C232  C     C_R   0.790129 0.050291 0.512005 0.000000
C233  C     C_R   0.785984 0.053137 0.567837 0.000000
C234  C     C_R   0.788830 0.097537 0.600223 0.000000
C235  C     C_R   0.794109 0.138652 0.574576 0.000000
N67   N     N_R   0.796121 0.185432 0.597719 0.000000
C236  C     C_R   0.801447 0.211328 0.553696 0.000000
N68   N     N_R   0.804527 0.181009 0.505339 0.000000
C237  C     C_R   0.799085 0.135811 0.520224 0.000000
C238  C     C_R   0.798330 0.091220 0.488214 0.000000
H133  H     H_    0.780152 0.020605 0.585915 0.000000
H134  H     H_    0.785865 0.100145 0.643690 0.000000
H135  H     H_    0.806144 0.250008 0.557423 0.000000
H136  H     H_    0.803520 0.088164 0.446000 0.000000
Br35  Br    Br    0.770761 0.280382 0.906695 0.000000
C239  C     C_R   0.768636 0.311216 0.837440 0.000000
C240  C     C_R   0.763313 0.365407 0.835204 0.000000
C241  C     C_R   0.762872 0.388409 0.785709 0.000000
C242  C     C_R   0.766237 0.356289 0.738920 0.000000
N69   N     N_R   0.773394 0.367530 0.689436 0.000000
C243  C     C_R   0.781444 0.319332 0.661344 0.000000
N70   N     N_R   0.784779 0.277587 0.694246 0.000000
C244  C     C_R   0.773054 0.302771 0.741724 0.000000
C245  C     C_R   0.774578 0.278851 0.790518 0.000000
H137  H     H_    0.760728 0.389310 0.872985 0.000000
H138  H     H_    0.760668 0.429853 0.784291 0.000000
H139  H     H_    0.793480 0.312864 0.622101 0.000000
H140  H     H_    0.782068 0.235886 0.793087 0.000000
Br36  Br    Br    0.675650 0.079725 0.856341 0.000000
C246  C     C_R   0.694022 0.111681 0.801561 0.000000
C247  C     C_R   0.748892 0.089610 0.796711 0.000000
C248  C     C_R   0.764149 0.114741 0.760432 0.000000
C249  C     C_R   0.723602 0.161521 0.729829 0.000000
N71   N     N_R   0.730509 0.195001 0.696707 0.000000
C250  C     C_R   0.677508 0.235616 0.678502 0.000000
N72   N     N_R   0.637285 0.227790 0.697379 0.000000
C251  C     C_R   0.668676 0.181520 0.731534 0.000000
C252  C     C_R   0.652999 0.157547 0.768190 0.000000
H141  H     H_    0.780186 0.053274 0.822400 0.000000
H142  H     H_    0.806349 0.097770 0.756117 0.000000
H143  H     H_    0.670431 0.271211 0.654441 0.000000
H144  H     H_    0.611051 0.174410 0.773269 0.000000
Br37  Br    Br    0.276919 0.916728 0.156054 0.000000
C253  C     C_R   0.319274 0.890196 0.232490 0.000000
C254  C     C_R   0.377845 0.871763 0.249484 0.000000
C255  C     C_R   0.408988 0.842205 0.301174 0.000000
C256  C     C_R   0.380240 0.826236 0.330273 0.000000
N73   N     N_R   0.401087 0.794782 0.379032 0.000000
C257  C     C_R   0.354006 0.790288 0.385604 0.000000
N74   N     N_R   0.304323 0.821709 0.345085 0.000000
C258  C     C_R   0.322994 0.844480 0.312467 0.000000
C259  C     C_R   0.291474 0.882672 0.268439 0.000000
H145  H     H_    0.398880 0.880369 0.222063 0.000000
H146  H     H_    0.454221 0.830165 0.315688 0.000000
H147  H     H_    0.356135 0.766171 0.420687 0.000000
H148  H     H_    0.246015 0.902100 0.258642 0.000000
Br38  Br    Br    0.733711 0.571776 0.513444 0.000000
C260  C     C_R   0.655826 0.610907 0.508993 0.000000
C261  C     C_R   0.615133 0.625267 0.456663 0.000000
C262  C     C_R   0.562182 0.664748 0.454296 0.000000
C263  C     C_R   0.555070 0.692429 0.502652 0.000000
N75   N     N_R   0.512206 0.739532 0.507309 0.000000
C264  C     C_R   0.516824 0.736457 0.565566 0.000000
N76   N     N_R   0.561702 0.689783 0.595087 0.000000
C265  C     C_R   0.586894 0.666541 0.554006 0.000000
C266  C     C_R   0.639430 0.625951 0.558337 0.000000
H149  H     H_    0.624838 0.607340 0.417897 0.000000
H150  H     H_    0.527258 0.673548 0.415919 0.000000
H151  H     H_    0.488134 0.767213 0.585974 0.000000
H152  H     H_    0.669287 0.608516 0.597608 0.000000
Br39  Br    Br    0.668733 0.738913 0.979075 0.000000
C267  C     C_R   0.639688 0.726095 0.900309 0.000000
C268  C     C_R   0.676390 0.691627 0.870558 0.000000
C269  C     C_R   0.655872 0.681358 0.813560 0.000000
C270  C     C_R   0.598636 0.706963 0.787545 0.000000
N77   N     N_R   0.568944 0.699106 0.735055 0.000000
C271  C     C_R   0.513998 0.729303 0.734199 0.000000
N78   N     N_R   0.508195 0.758783 0.782432 0.000000
C272  C     C_R   0.562555 0.741594 0.816206 0.000000
C273  C     C_R   0.582072 0.751023 0.873377 0.000000
H153  H     H_    0.721210 0.672015 0.892358 0.000000
H154  H     H_    0.684006 0.653161 0.791087 0.000000
H155  H     H_    0.479889 0.724266 0.701305 0.000000
H156  H     H_    0.553964 0.778282 0.896512 0.000000
Br40  Br    Br    0.859454 0.595603 0.624916 0.000000
C274  C     C_R   0.809266 0.595804 0.666572 0.000000
C275  C     C_R   0.768122 0.645259 0.675457 0.000000
C276  C     C_R   0.722131 0.645906 0.691009 0.000000
C277  C     C_R   0.719880 0.596218 0.698954 0.000000
N79   N     N_R   0.672525 0.587507 0.694537 0.000000
C278  C     C_R   0.692047 0.530705 0.693724 0.000000
N80   N     N_R   0.748483 0.504800 0.695225 0.000000
C279  C     C_R   0.763823 0.547480 0.696495 0.000000
C280  C     C_R   0.808697 0.546272 0.679510 0.000000
H157  H     H_    0.769233 0.683543 0.665017 0.000000
H158  H     H_    0.686554 0.684065 0.690949 0.000000
H159  H     H_    0.664486 0.508764 0.686572 0.000000
H160  H     H_    0.838377 0.508105 0.669002 0.000000
Br41  Br    Br    0.289895 0.740369 0.519189 0.000000
C281  C     C_R   0.312132 0.776247 0.587309 0.000000
C282  C     C_R   0.366205 0.776691 0.605304 0.000000
C283  C     C_R   0.383962 0.798693 0.657188 0.000000
C284  C     C_R   0.349803 0.812621 0.692657 0.000000
N81   N     N_R   0.362105 0.823199 0.749017 0.000000
C285  C     C_R   0.309917 0.840973 0.758603 0.000000
N82   N     N_R   0.266509 0.841200 0.710784 0.000000
C286  C     C_R   0.294286 0.820379 0.671251 0.000000
C287  C     C_R   0.273935 0.802730 0.618290 0.000000
H161  H     H_    0.394162 0.760406 0.578309 0.000000
H162  H     H_    0.422970 0.804968 0.669090 0.000000
H163  H     H_    0.304561 0.852421 0.800074 0.000000
H164  H     H_    0.230775 0.806215 0.602866 0.000000
Br42  Br    Br    0.595829 0.998178 0.776637 0.000000
C288  C     C_R   0.549413 0.962062 0.784724 0.000000
C289  C     C_R   0.574150 0.909205 0.809319 0.000000
C290  C     C_R   0.541014 0.881529 0.813488 0.000000
C291  C     C_R   0.483178 0.907225 0.792141 0.000000
N83   N     N_R   0.441992 0.888391 0.788417 0.000000
C292  C     C_R   0.393827 0.930914 0.760093 0.000000
N84   N     N_R   0.403082 0.975768 0.750157 0.000000
C293  C     C_R   0.459599 0.959336 0.769005 0.000000
C294  C     C_R   0.491122 0.988273 0.765239 0.000000
H165  H     H_    0.619839 0.889197 0.824995 0.000000
H166  H     H_    0.560990 0.841404 0.832770 0.000000
H167  H     H_    0.352114 0.929980 0.747543 0.000000
H168  H     H_    0.471240 0.029297 0.745735 0.000000
Br43  Br    Br    0.591417 0.578950 0.004561 0.000000
C295  C     C_R   0.540643 0.647653 0.965848 0.000000
C296  C     C_R   0.525912 0.651712 0.906329 0.000000
C297  C     C_R   0.490721 0.701606 0.877352 0.000000
C298  C     C_R   0.472479 0.746547 0.909342 0.000000
N85   N     N_R   0.446674 0.799796 0.890965 0.000000
C299  C     C_R   0.437497 0.825536 0.941299 0.000000
N86   N     N_R   0.455239 0.789880 0.988352 0.000000
C300  C     C_R   0.480802 0.741108 0.967024 0.000000
C301  C     C_R   0.517327 0.692513 0.996767 0.000000
H169  H     H_    0.542406 0.615815 0.882554 0.000000
H170  H     H_    0.477914 0.704427 0.831131 0.000000
H171  H     H_    0.419899 0.869291 0.945102 0.000000
H172  H     H_    0.528957 0.689561 0.042791 0.000000
Br44  Br    Br    0.652712 0.854440 0.122610 0.000000
C302  C     C_R   0.575044 0.892907 0.120218 0.000000
C303  C     C_R   0.557278 0.945348 0.141583 0.000000
C304  C     C_R   0.500966 0.974186 0.140217 0.000000
C305  C     C_R   0.464370 0.948554 0.118266 0.000000
N87   N     N_R   0.408353 0.967854 0.111934 0.000000
C306  C     C_R   0.394187 0.924409 0.092398 0.000000
N88   N     N_R   0.438764 0.879633 0.084787 0.000000
C307  C     C_R   0.481857 0.896855 0.098721 0.000000
C308  C     C_R   0.537036 0.867965 0.098269 0.000000
H173  H     H_    0.587631 0.963952 0.158964 0.000000
H174  H     H_    0.486664 0.014917 0.156484 0.000000
H175  H     H_    0.351840 0.925777 0.083728 0.000000
H176  H     H_    0.550628 0.826859 0.082705 0.000000
Br45  Br    Br    0.309747 0.671153 0.217605 0.000000
C309  C     C_R   0.330342 0.709906 0.171682 0.000000
C310  C     C_R   0.386462 0.699287 0.178347 0.000000
C311  C     C_R   0.401205 0.728686 0.146024 0.000000
C312  C     C_R   0.359018 0.769194 0.107755 0.000000
N89   N     N_R   0.363930 0.804952 0.075207 0.000000
C313  C     C_R   0.307426 0.839762 0.052202 0.000000
N90   N     N_R   0.268489 0.825263 0.067459 0.000000
C314  C     C_R   0.303509 0.780763 0.102707 0.000000
C315  C     C_R   0.288509 0.750564 0.133382 0.000000
H177  H     H_    0.418612 0.668447 0.209671 0.000000
H178  H     H_    0.444457 0.720772 0.152849 0.000000
H179  H     H_    0.295815 0.877486 0.029651 0.000000
H180  H     H_    0.245081 0.758589 0.129483 0.000000
Br46  Br    Br    0.291179 0.938516 0.607354 0.000000
C316  C     C_R   0.255376 0.921074 0.533166 0.000000
C317  C     C_R   0.286432 0.878527 0.505272 0.000000
C318  C     C_R   0.259920 0.864602 0.452607 0.000000
C319  C     C_R   0.205221 0.897158 0.426025 0.000000
N91   N     N_R   0.175204 0.894078 0.372226 0.000000
C320  C     C_R   0.121569 0.933225 0.370606 0.000000
N92   N     N_R   0.118851 0.958893 0.421975 0.000000
C321  C     C_R   0.173342 0.935990 0.454403 0.000000
C322  C     C_R   0.197980 0.949108 0.508320 0.000000
H181  H     H_    0.331007 0.855523 0.525067 0.000000
H182  H     H_    0.279762 0.827158 0.434751 0.000000
H183  H     H_    0.084762 0.941737 0.333774 0.000000
H184  H     H_    0.174686 0.983221 0.529283 0.000000
Br47  Br    Br    0.965987 0.906215 0.224388 0.000000
C323  C     C_R   0.028798 0.889490 0.194549 0.000000
C324  C     C_R   0.019684 0.894505 0.135778 0.000000
C325  C     C_R   0.064829 0.882881 0.113620 0.000000
C326  C     C_R   0.118424 0.866579 0.151036 0.000000
N93   N     N_R   0.167959 0.853479 0.138743 0.000000
C327  C     C_R   0.206547 0.839688 0.192509 0.000000
N94   N     N_R   0.182895 0.845945 0.237034 0.000000
C328  C     C_R   0.127255 0.862313 0.208930 0.000000
C329  C     C_R   0.083108 0.873233 0.231655 0.000000
H185  H     H_    0.976983 0.908289 0.107172 0.000000
H186  H     H_    0.057472 0.889726 0.068741 0.000000
H187  H     H_    0.251411 0.824155 0.199303 0.000000
H188  H     H_    0.090095 0.869373 0.276802 0.000000
Br48  Br    Br    0.391935 0.424705 0.525163 0.000000
C330  C     C_R   0.337518 0.393236 0.497321 0.000000
C331  C     C_R   0.282021 0.427715 0.478988 0.000000
C332  C     C_R   0.247162 0.415640 0.431845 0.000000
C333  C     C_R   0.271535 0.369473 0.404294 0.000000
N95   N     N_R   0.260949 0.367767 0.347158 0.000000
C334  C     C_R   0.309298 0.324692 0.341251 0.000000
N96   N     N_R   0.347100 0.298512 0.392591 0.000000
C335  C     C_R   0.322768 0.329692 0.430869 0.000000
C336  C     C_R   0.354268 0.340262 0.480571 0.000000
H189  H     H_    0.270044 0.468341 0.492787 0.000000
H190  H     H_    0.209190 0.449239 0.410554 0.000000
H191  H     H_    0.320560 0.317556 0.301841 0.000000
H192  H     H_    0.396798 0.314436 0.492932 0.000000
Br49  Br    Br    0.926555 0.522616 0.052036 0.000000
C337  C     C_R   0.998877 0.492959 0.107780 0.000000
C338  C     C_R   0.003182 0.474847 0.161797 0.000000
C339  C     C_R   0.055323 0.453170 0.203060 0.000000
C340  C     C_R   0.102306 0.450204 0.188819 0.000000
N97   N     N_R   0.156413 0.435364 0.222418 0.000000
C341  C     C_R   0.183553 0.441845 0.185890 0.000000
N98   N     N_R   0.149815 0.457074 0.130993 0.000000
C342  C     C_R   0.098132 0.465840 0.135031 0.000000
C343  C     C_R   0.046940 0.488293 0.093712 0.000000
H193  H     H_    0.965432 0.477499 0.171653 0.000000
H194  H     H_    0.058531 0.437326 0.243839 0.000000
H195  H     H_    0.228112 0.430216 0.197734 0.000000
H196  H     H_    0.044203 0.501921 0.051799 0.000000
Br50  Br    Br    0.973961 0.641072 0.281471 0.000000
C344  C     C_R   0.004487 0.569408 0.316828 0.000000
C345  C     C_R   0.971726 0.552841 0.340192 0.000000
C346  C     C_R   0.994206 0.501423 0.367360 0.000000
C347  C     C_R   0.049833 0.468815 0.372004 0.000000
N99   N     N_R   0.081846 0.419573 0.399746 0.000000
C348  C     C_R   0.129175 0.401815 0.381009 0.000000
N100  N     N_R   0.128628 0.439650 0.345332 0.000000
C349  C     C_R   0.079131 0.482214 0.342820 0.000000
C350  C     C_R   0.058572 0.533401 0.317246 0.000000
H197  H     H_    0.928485 0.580290 0.337155 0.000000
H198  H     H_    0.967703 0.486418 0.381064 0.000000
H199  H     H_    0.164242 0.362735 0.394553 0.000000
H200  H     H_    0.084215 0.546175 0.300249 0.000000
Br51  Br    Br    0.034651 0.327995 0.136954 0.000000
C351  C     C_R   0.037952 0.353877 0.068214 0.000000
C352  C     C_R   0.993865 0.362021 0.018379 0.000000
C353  C     C_R   0.997160 0.379363 0.968141 0.000000
C354  C     C_R   0.045347 0.386661 0.969401 0.000000
N101  N     N_R   0.058170 0.400906 0.925507 0.000000
C355  C     C_R   0.103602 0.413767 0.950859 0.000000
N102  N     N_R   0.121677 0.405111 0.009207 0.000000
C356  C     C_R   0.084943 0.385873 0.019161 0.000000
C357  C     C_R   0.083274 0.366883 0.069282 0.000000
H201  H     H_    0.957038 0.354738 0.018812 0.000000
H202  H     H_    0.961847 0.388916 0.929844 0.000000
H203  H     H_    0.121848 0.429904 0.926338 0.000000
H204  H     H_    0.114958 0.362279 0.108943 0.000000
Br52  Br    Br    0.221235 0.281303 0.254438 0.000000
C358  C     C_R   0.265430 0.286003 0.208221 0.000000
C359  C     C_R   0.322171 0.251912 0.218868 0.000000
C360  C     C_R   0.353795 0.260264 0.187509 0.000000
C361  C     C_R   0.327968 0.304080 0.147744 0.000000
N103  N     N_R   0.345618 0.311360 0.103919 0.000000
C362  C     C_R   0.303065 0.357391 0.074921 0.000000
N104  N     N_R   0.255838 0.374067 0.093811 0.000000
C363  C     C_R   0.273385 0.339239 0.139872 0.000000
C364  C     C_R   0.240628 0.327446 0.166522 0.000000
H205  H     H_    0.341471 0.218640 0.251106 0.000000
H206  H     H_    0.396613 0.231095 0.192674 0.000000
H207  H     H_    0.305242 0.373598 0.037170 0.000000
H208  H     H_    0.196170 0.348638 0.155094 0.000000
Br53  Br    Br    0.407177 0.335032 0.619376 0.000000
C365  C     C_R   0.350771 0.370967 0.655220 0.000000
C366  C     C_R   0.300988 0.415405 0.631655 0.000000
C367  C     C_R   0.256510 0.429165 0.655220 0.000000
C368  C     C_R   0.266893 0.401990 0.705729 0.000000
N105  N     N_R   0.229663 0.403606 0.732903 0.000000
C369  C     C_R   0.261521 0.363470 0.775249 0.000000
N106  N     N_R   0.316774 0.334346 0.772969 0.000000
C370  C     C_R   0.317876 0.362047 0.730183 0.000000
C371  C     C_R   0.356987 0.343381 0.702474 0.000000
H209  H     H_    0.294648 0.434808 0.591788 0.000000
H210  H     H_    0.215282 0.459495 0.634001 0.000000
H211  H     H_    0.242833 0.357425 0.805727 0.000000
H212  H     H_    0.384179 0.302281 0.709297 0.000000
Br54  Br    Br    0.139311 0.215534 0.665247 0.000000
C372  C     C_R   0.213621 0.210388 0.673891 0.000000
C373  C     C_R   0.224167 0.256095 0.668134 0.000000
C374  C     C_R   0.278474 0.254173 0.690543 0.000000
C375  C     C_R   0.320569 0.206258 0.718059 0.000000
N107  N     N_R   0.370966 0.197919 0.757084 0.000000
C376  C     C_R   0.394985 0.141720 0.765916 0.000000
N108  N     N_R   0.358038 0.116797 0.739929 0.000000
C377  C     C_R   0.311566 0.159592 0.712500 0.000000
C378  C     C_R   0.257710 0.161547 0.694120 0.000000
H213  H     H_    0.189420 0.294194 0.650947 0.000000
H214  H     H_    0.286541 0.289037 0.684740 0.000000
H215  H     H_    0.436756 0.120424 0.794334 0.000000
H216  H     H_    0.248581 0.127137 0.699350 0.000000
Br55  Br    Br    0.188028 0.267524 0.792446 0.000000
C379  C     C_R   0.243454 0.277229 0.855111 0.000000
C380  C     C_R   0.235445 0.293155 0.908004 0.000000
C381  C     C_R   0.282106 0.286871 0.954162 0.000000
C382  C     C_R   0.334433 0.266660 0.946234 0.000000
N109  N     N_R   0.385157 0.254022 0.985460 0.000000
C383  C     C_R   0.419964 0.246552 0.950116 0.000000
N110  N     N_R   0.391497 0.252688 0.891534 0.000000
C384  C     C_R   0.339112 0.262785 0.892661 0.000000
C385  C     C_R   0.295377 0.264063 0.847202 0.000000
H217  H     H_    0.193673 0.310743 0.913560 0.000000
H218  H     H_    0.277072 0.302981 0.993233 0.000000
H219  H     H_    0.464844 0.237355 0.966611 0.000000
H220  H     H_    0.300518 0.253560 0.806026 0.000000
Br56  Br    Br    0.581081 0.319560 0.979848 0.000000
C386  C     C_R   0.556856 0.306663 0.900507 0.000000
C387  C     C_R   0.589209 0.309044 0.866169 0.000000
C388  C     C_R   0.576736 0.296051 0.809301 0.000000
C389  C     C_R   0.533466 0.278306 0.789471 0.000000
N111  N     N_R   0.519114 0.257895 0.737981 0.000000
C390  C     C_R   0.478336 0.240948 0.742344 0.000000
N112  N     N_R   0.461995 0.256596 0.791961 0.000000
C391  C     C_R   0.500168 0.277251 0.822051 0.000000
C392  C     C_R   0.510035 0.292784 0.878112 0.000000
H221  H     H_    0.625180 0.320170 0.884509 0.000000
H222  H     H_    0.602346 0.296707 0.782575 0.000000
H223  H     H_    0.456468 0.223002 0.707290 0.000000
H224  H     H_    0.484914 0.290875 0.904747 0.000000
Br57  Br    Br    0.133158 0.184719 0.045911 0.000000
C393  C     C_R   0.204378 0.192218 0.071829 0.000000
C394  C     C_R   0.207313 0.239496 0.057149 0.000000
C395  C     C_R   0.259132 0.242473 0.066782 0.000000
C396  C     C_R   0.308387 0.197677 0.089339 0.000000
N113  N     N_R   0.362997 0.188356 0.093166 0.000000
C397  C     C_R   0.391730 0.134458 0.113833 0.000000
N114  N     N_R   0.355997 0.110004 0.117211 0.000000
C398  C     C_R   0.305085 0.152041 0.105352 0.000000
C399  C     C_R   0.253762 0.149275 0.099585 0.000000
H225  H     H_    0.169063 0.273761 0.036275 0.000000
H226  H     H_    0.258578 0.279908 0.056195 0.000000
H227  H     H_    0.436507 0.112116 0.119075 0.000000
H228  H     H_    0.252165 0.112191 0.110184 0.000000
Br58  Br    Br    0.700382 0.107077 0.100636 0.000000
C400  C     C_R   0.625170 0.140326 0.107441 0.000000
C401  C     C_R   0.580515 0.135257 0.064086 0.000000
C402  C     C_R   0.525376 0.162083 0.066869 0.000000
C403  C     C_R   0.517059 0.191357 0.114551 0.000000
N115  N     N_R   0.467647 0.225414 0.122931 0.000000
C404  C     C_R   0.482952 0.246771 0.174722 0.000000
N116  N     N_R   0.539993 0.227305 0.198929 0.000000
C405  C     C_R   0.560672 0.193246 0.159151 0.000000
C406  C     C_R   0.615390 0.170499 0.154956 0.000000
H229  H     H_    0.588672 0.111962 0.026974 0.000000
H230  H     H_    0.490140 0.160567 0.032321 0.000000
H231  H     H_    0.453442 0.278779 0.193172 0.000000
H232  H     H_    0.649606 0.177883 0.185950 0.000000
Br59  Br    Br    0.997519 0.047764 0.128456 0.000000
C407  C     C_R   0.026372 0.032310 0.063293 0.000000
C408  C     C_R   0.996333 0.066109 0.013712 0.000000
C409  C     C_R   0.011133 0.051030 0.963251 0.000000
C410  C     C_R   0.053349 0.000386 0.963644 0.000000
N117  N     N_R   0.063947 0.972535 0.917322 0.000000
C411  C     C_R   0.100116 0.920100 0.941893 0.000000
N118  N     N_R   0.118770 0.917057 0.001200 0.000000
C412  C     C_R   0.085374 0.968002 0.013206 0.000000
C413  C     C_R   0.074746 0.985553 0.064658 0.000000
H233  H     H_    0.959518 0.103021 0.013879 0.000000
H234  H     H_    0.985997 0.075181 0.923576 0.000000
H235  H     H_    0.114428 0.884366 0.917297 0.000000
H236  H     H_    0.099689 0.961574 0.104065 0.000000
Br60  Br    Br    0.940392 0.654941 0.726009 0.000000
C414  C     C_R   0.970698 0.577784 0.743428 0.000000
C415  C     C_R   0.952761 0.558668 0.782310 0.000000
C416  C     C_R   0.980006 0.504568 0.802260 0.000000
C417  C     C_R   0.023889 0.470819 0.781474 0.000000
N119  N     N_R   0.059548 0.419839 0.801040 0.000000
C418  C     C_R   0.104015 0.410004 0.779664 0.000000
N120  N     N_R   0.095620 0.451992 0.744856 0.000000
C419  C     C_R   0.043401 0.489326 0.745392 0.000000
C420  C     C_R   0.015131 0.542631 0.723171 0.000000
H237  H     H_    0.919323 0.586803 0.799224 0.000000
H238  H     H_    0.968804 0.490111 0.835367 0.000000
H239  H     H_    0.143261 0.375427 0.792305 0.000000
H240  H     H_    0.031133 0.559367 0.697361 0.000000
Br61  Br    Br    0.043065 0.614562 0.882631 0.000000
C421  C     C_R   0.081895 0.614932 0.828562 0.000000
C422  C     C_R   0.086882 0.662731 0.816320 0.000000
C423  C     C_R   0.121821 0.660497 0.783284 0.000000
C424  C     C_R   0.146066 0.611160 0.759802 0.000000
N121  N     N_R   0.191429 0.594417 0.740085 0.000000
C425  C     C_R   0.198323 0.543376 0.722473 0.000000
N122  N     N_R   0.160050 0.526711 0.732997 0.000000
C426  C     C_R   0.131366 0.568541 0.761561 0.000000
C427  C     C_R   0.106239 0.566722 0.802702 0.000000
H241  H     H_    0.068252 0.700073 0.837203 0.000000
H242  H     H_    0.132703 0.694957 0.779578 0.000000
H243  H     H_    0.233558 0.518146 0.707102 0.000000
H244  H     H_    0.107793 0.528748 0.817289 0.000000
Br62  Br    Br    0.967002 0.663350 0.587558 0.000000
C428  C     C_R   0.003718 0.589848 0.567086 0.000000
C429  C     C_R   0.977011 0.570261 0.517737 0.000000
C430  C     C_R   0.001974 0.516515 0.503349 0.000000
C431  C     C_R   0.052892 0.483196 0.539241 0.000000
N123  N     N_R   0.082297 0.429164 0.535312 0.000000
C432  C     C_R   0.121114 0.414623 0.588611 0.000000
N124  N     N_R   0.117510 0.457985 0.623895 0.000000
C433  C     C_R   0.075715 0.500829 0.590440 0.000000
C434  C     C_R   0.054601 0.555087 0.603457 0.000000
H245  H     H_    0.935929 0.596824 0.490970 0.000000
H246  H     H_    0.978978 0.500047 0.468752 0.000000
H247  H     H_    0.150547 0.373208 0.601918 0.000000
H248  H     H_    0.075954 0.570318 0.641298 0.000000
Br63  Br    Br    0.492847 0.047380 0.892022 0.000000
C435  C     C_R   0.412322 0.070725 0.872933 0.000000
C436  C     C_R   0.377759 0.124490 0.875767 0.000000
C437  C     C_R   0.320311 0.138403 0.866586 0.000000
C438  C     C_R   0.298914 0.099024 0.857486 0.000000
N125  N     N_R   0.243196 0.112457 0.834139 0.000000
C439  C     C_R   0.241926 0.086501 0.783217 0.000000
N126  N     N_R   0.295365 0.053395 0.779973 0.000000
C440  C     C_R   0.328422 0.055842 0.832441 0.000000
C441  C     C_R   0.386652 0.035849 0.849177 0.000000
H249  H     H_    0.396485 0.154092 0.888996 0.000000
H250  H     H_    0.292292 0.178036 0.872193 0.000000
H251  H     H_    0.203430 0.089765 0.750344 0.000000
H252  H     H_    0.411977 0.992927 0.849754 0.000000
Br64  Br    Br    0.444730 0.055784 0.494065 0.000000
C442  C     C_R   0.409437 0.053750 0.548782 0.000000
C443  C     C_R   0.436021 0.014922 0.593808 0.000000
C444  C     C_R   0.405921 0.011149 0.629445 0.000000
C445  C     C_R   0.349416 0.045120 0.617138 0.000000
N127  N     N_R   0.311571 0.048661 0.644837 0.000000
C446  C     C_R   0.260779 0.079934 0.607527 0.000000
N128  N     N_R   0.267252 0.100037 0.561547 0.000000
C447  C     C_R   0.323376 0.078169 0.569579 0.000000
C448  C     C_R   0.353341 0.087008 0.537504 0.000000
H253  H     H_    0.479599 0.986643 0.600026 0.000000
H254  H     H_    0.425072 0.977710 0.660386 0.000000
H255  H     H_    0.220056 0.090597 0.615066 0.000000
H256  H     H_    0.333848 0.116998 0.502075 0.000000
Br65  Br    Br    0.327921 0.796028 0.923581 0.000000
C449  C     C_R   0.254475 0.846447 0.885668 0.000000
C450  C     C_R   0.228411 0.894355 0.910122 0.000000
C451  C     C_R   0.172886 0.926904 0.884910 0.000000
C452  C     C_R   0.143773 0.910936 0.834642 0.000000
N129  N     N_R   0.091127 0.940178 0.800004 0.000000
C453  C     C_R   0.093028 0.917852 0.747806 0.000000
N130  N     N_R   0.145374 0.878227 0.749770 0.000000
C454  C     C_R   0.173974 0.871767 0.805421 0.000000
C455  C     C_R   0.228719 0.837350 0.830714 0.000000
H257  H     H_    0.251342 0.908489 0.947198 0.000000
H258  H     H_    0.154630 0.964642 0.904850 0.000000
H259  H     H_    0.060799 0.936079 0.708119 0.000000
H260  H     H_    0.253456 0.805976 0.808607 0.000000
Br66  Br    Br    0.063632 0.665022 0.516920 0.000000
C456  C     C_R   0.115540 0.693834 0.563358 0.000000
C457  C     C_R   0.114022 0.741879 0.543098 0.000000
C458  C     C_R   0.141010 0.771552 0.579093 0.000000
C459  C     C_R   0.167065 0.752688 0.635263 0.000000
N131  N     N_R   0.187952 0.778471 0.679939 0.000000
C460  C     C_R   0.213348 0.739799 0.723887 0.000000
N132  N     N_R   0.207142 0.692421 0.708956 0.000000
C461  C     C_R   0.176056 0.701858 0.653124 0.000000
C462  C     C_R   0.150025 0.670865 0.617757 0.000000
H261  H     H_    0.088649 0.757916 0.499950 0.000000
H262  H     H_    0.139436 0.809134 0.563445 0.000000
H263  H     H_    0.236431 0.744098 0.766329 0.000000
H264  H     H_    0.152093 0.632709 0.632791 0.000000
Br67  Br    Br    0.916766 0.899199 0.457155 0.000000
C463  C     C_R   0.979679 0.905558 0.514210 0.000000
C464  C     C_R   0.001477 0.874907 0.565827 0.000000
C465  C     C_R   0.050596 0.874594 0.605490 0.000000
C466  C     C_R   0.076597 0.905277 0.591779 0.000000
N133  N     N_R   0.127972 0.905386 0.619884 0.000000
C467  C     C_R   0.130270 0.945613 0.589676 0.000000
N134  N     N_R   0.084651 0.966432 0.540759 0.000000
C468  C     C_R   0.052252 0.939392 0.543780 0.000000
C469  C     C_R   0.004525 0.939048 0.503059 0.000000
H265  H     H_    0.981290 0.849298 0.573984 0.000000
H266  H     H_    0.069076 0.849055 0.644582 0.000000
H267  H     H_    0.165223 0.958415 0.604027 0.000000
H268  H     H_    0.988086 0.962009 0.462607 0.000000
Br68  Br    Br    0.491807 0.045420 0.028890 0.000000
C470  C     C_R   0.411177 0.071512 0.006478 0.000000
C471  C     C_R   0.378014 0.126564 0.993031 0.000000
C472  C     C_R   0.319302 0.145397 0.978465 0.000000
C473  C     C_R   0.295894 0.107939 0.976170 0.000000
N135  N     N_R   0.241292 0.118915 0.969043 0.000000
C474  C     C_R   0.244076 0.078853 0.003513 0.000000
N136  N     N_R   0.298689 0.043919 0.029723 0.000000
C475  C     C_R   0.328354 0.059105 0.003470 0.000000
C476  C     C_R   0.385835 0.037244 0.012327 0.000000
H269  H     H_    0.398246 0.154465 0.993605 0.000000
H270  H     H_    0.292289 0.187795 0.967762 0.000000
H271  H     H_    0.207910 0.069555 0.001983 0.000000
H272  H     H_    0.410379 0.994182 0.020257 0.000000

loop_
_geom_bond_atom_site_label_1
_geom_bond_atom_site_label_2
_geom_bond_distance
_geom_bond_site_symmetry_2
_ccdc_geom_bond_type
Zn1   N2    1.951 .      S
Zn1   N4    1.978 1_455  S
Zn1   N101  1.919 .      S
Zn1   N119  1.924 .      S
Zn2   N5    1.975 .      S
Zn2   N65   2.169 1_455  S
Zn2   N117  2.138 1_545  S
Zn2   N129  1.976 1_545  S
Zn3   N7    2.033 .      S
Zn3   N12   1.934 .      S
Zn3   N33   2.054 .      S
Zn3   N116  1.981 .      S
Zn4   N8    2.003 .      S
Zn4   N10   2.079 .      S
Zn4   N19   2.137 .      S
Zn4   N68   2.070 .      S
Zn5   N11   1.961 .      S
Zn5   N14   2.151 .      S
Zn5   N52   2.014 .      S
Zn5   N96   2.101 .      S
Zn6   N16   2.006 1_455  S
Zn6   N17   1.976 .      S
Zn6   N99   1.989 .      S
Zn6   N123  2.022 .      S
Zn7   N20   2.090 1_455  S
Zn7   N21   1.967 .      S
Zn7   N92   2.066 1_545  S
Zn7   N134  2.083 1_545  S
Zn8   N13   2.008 .      S
Zn8   N32   1.965 .      S
Zn8   N72   2.067 .      S
Zn8   N111  2.015 .      S
Zn9   N9    2.029 .      S
Zn9   N15   2.024 .      S
Zn9   N23   2.004 .      S
Zn9   N63   2.204 .      S
Zn10  N3    2.026 .      S
Zn10  N24   2.005 .      S
Zn10  N69   2.009 .      S
Zn10  N80   2.095 .      S
Zn11  N25   1.981 .      S
Zn11  N28   2.034 .      S
Zn11  N29   2.051 .      S
Zn11  N31   1.992 .      S
Zn12  N34   2.022 .      S
Zn12  N35   2.041 .      S
Zn12  N37   1.969 .      S
Zn12  N40   1.939 .      S
Zn13  N39   2.050 .      S
Zn13  N42   2.016 1_554  S
Zn13  N44   2.006 1_554  S
Zn13  N45   1.943 .      S
Zn14  N48   2.072 1_545  S
Zn14  N49   1.952 .      S
Zn14  N51   2.011 .      S
Zn14  N54   1.953 .      S
Zn15  N30   2.078 .      S
Zn15  N36   1.949 .      S
Zn15  N55   1.985 .      S
Zn15  N57   1.904 .      S
Zn16  N38   1.899 .      S
Zn16  N59   1.979 .      S
Zn16  N62   2.052 .      S
Zn16  N64   2.117 .      S
Zn17  N66   2.186 .      S
Zn17  N67   2.062 .      S
Zn17  N70   2.010 .      S
Zn17  N71   2.004 .      S
Zn18  N47   2.049 .      S
Zn18  N60   2.050 .      S
Zn18  N73   1.992 .      S
Zn18  N75   2.122 .      S
Zn19  N26   1.954 .      S
Zn19  N76   2.095 .      S
Zn19  N77   1.981 .      S
Zn19  N79   2.118 .      S
Zn20  N78   2.061 .      S
Zn20  N81   2.064 .      S
Zn20  N83   1.999 .      S
Zn20  N85   2.126 .      S
Zn21  N61   2.142 .      S
Zn21  N86   2.119 1_554  S
Zn21  N88   1.967 .      S
Zn21  N89   2.136 .      S
Zn22  N56   1.954 .      S
Zn22  N74   2.054 .      S
Zn22  N91   2.082 .      S
Zn22  N94   2.074 .      S
Zn23  N58   1.973 .      S
Zn23  N95   2.060 .      S
Zn23  N97   1.980 .      S
Zn23  N100  2.017 .      S
Zn24  N43   2.008 .      S
Zn24  N98   1.977 .      S
Zn24  N102  1.996 .      S
Zn24  N104  2.021 .      S
Zn25  N106  2.128 .      S
Zn25  N107  2.061 .      S
Zn25  N110  2.092 .      S
Zn25  N112  2.076 .      S
Zn26  N103  1.954 .      S
Zn26  N109  2.124 1_554  S
Zn26  N113  2.055 .      S
Zn26  N115  1.932 .      S
Zn27  N46   1.994 .      S
Zn27  N90   2.137 .      S
Zn27  N93   2.085 .      S
Zn27  N118  2.150 .      S
Zn28  N50   1.922 .      S
Zn28  N87   1.937 1_545  S
Zn28  N114  2.001 .      S
Zn28  N136  1.980 .      S
Zn29  N105  1.975 .      S
Zn29  N120  1.990 .      S
Zn29  N122  1.941 .      S
Zn29  N124  2.005 .      S
Zn30  N84   1.951 1_545  S
Zn30  N108  2.031 .      S
Zn30  N126  1.970 .      S
Zn30  N127  1.945 .      S
Zn31  N27   1.972 .      S
Zn31  N41   2.015 .      S
Zn31  N121  1.871 .      S
Zn31  N132  1.926 .      S
Zn32  N18   2.021 .      S
Zn32  N22   1.856 .      S
Zn32  N53   1.934 .      S
Zn32  N128  1.919 .      S
Zn33  N82   2.054 .      S
Zn33  N130  1.945 .      S
Zn33  N131  1.924 .      S
Zn33  N133  2.055 .      S
Zn34  N1    1.953 .      S
Zn34  N6    1.880 .      S
Zn34  N125  2.063 .      S
Zn34  N135  1.971 .      S
Br1   C1    1.902 1_655  S
C1    Br1   1.902 1_455  S
C2    H1    1.077 .      S
C3    H2    1.074 .      S
C5    H3    1.079 .      S
C7    H4    1.077 .      S
Br2   C8    1.901 .      S
C9    H5    1.079 .      S
C10   H6    1.062 .      S
C12   H7    1.074 .      S
N4    Zn1   1.978 1_655  S
C14   H8    1.073 1_655  S
H8    C14   1.073 1_455  S
Br3   C15   1.876 .      S
C16   H9    1.073 .      S
C17   H10   1.069 .      S
C19   H11   1.074 .      S
C21   H12   1.074 .      S
Br4   C22   1.906 1_565  S
C22   Br4   1.906 1_545  S
C23   H13   1.081 .      S
C24   H14   1.077 .      S
C26   H15   1.079 .      S
C28   H16   1.078 .      S
Br5   C29   1.904 .      S
C30   H17   1.081 .      S
C31   H18   1.075 .      S
C33   H19   1.081 .      S
C35   H20   1.075 .      S
Br6   C36   1.880 .      S
C37   H21   1.080 .      S
C38   H22   1.069 .      S
C40   H23   1.080 .      S
C42   H24   1.076 .      S
Br7   C43   1.885 .      S
C44   H25   1.081 .      S
C45   H26   1.070 .      S
C47   H27   1.074 .      S
C49   H28   1.074 .      S
Br8   C50   1.891 .      S
C51   H29   1.081 .      S
C52   H30   1.063 .      S
C54   H31   1.081 .      S
N16   Zn6   2.006 1_655  S
C56   H32   1.080 1_655  S
H32   C56   1.080 1_455  S
Br9   C57   1.896 .      S
C58   H33   1.068 .      S
C59   H34   1.080 .      S
C61   H35   1.080 .      S
C63   H36   1.052 .      S
Br10  C64   1.904 1_455  S
C64   Br10  1.904 1_655  S
C65   H37   1.081 .      S
C66   H38   1.062 .      S
C68   H39   1.081 .      S
N20   Zn7   2.090 1_655  S
C70   H40   1.078 .      S
Br11  C71   1.902 .      S
C72   H41   1.081 1_455  S
C73   H42   1.051 1_455  S
C75   H43   1.076 .      S
C77   H44   1.070 .      S
H41   C72   1.081 1_655  S
H42   C73   1.051 1_655  S
Br12  C78   1.901 .      S
C79   H45   1.070 .      S
C80   H46   1.073 .      S
C82   H47   1.081 .      S
C84   H48   1.068 .      S
Br13  C85   1.905 .      S
C86   H49   1.081 .      S
C87   H50   1.067 .      S
C89   H51   1.073 .      S
C91   H52   1.073 .      S
Br14  C92   1.900 .      S
C93   H53   1.081 .      S
C94   H54   1.071 .      S
C96   H55   1.080 .      S
C98   H56   1.055 .      S
Br15  C99   1.907 .      S
C100  H57   1.079 .      S
C101  H58   1.074 .      S
C103  H59   1.076 .      S
C105  H60   1.051 .      S
Br16  C106  1.908 .      S
C107  H61   1.062 .      S
C108  H62   1.077 .      S
C110  H63   1.081 .      S
C112  H64   1.075 .      S
Br17  C113  1.897 1_556  S
C113  Br17  1.897 1_554  S
C114  H65   1.079 .      S
C115  H66   1.067 .      S
C117  H67   1.062 .      S
C119  H68   1.073 .      S
Br18  C120  1.871 .      S
C121  H69   1.060 .      S
C122  H70   1.079 .      S
C124  H71   1.064 .      S
C126  H72   1.078 .      S
Br19  C127  1.907 .      S
C128  H73   1.081 .      S
C129  H74   1.057 .      S
C131  H75   1.077 .      S
C133  H76   1.075 .      S
Br20  C134  1.911 .      S
C135  H77   1.071 .      S
C136  H78   1.077 .      S
C138  H79   1.073 .      S
C140  H80   1.069 .      S
Br21  C141  1.894 1_554  S
C141  Br21  1.894 1_556  S
C142  H81   1.074 .      S
C143  H82   1.081 .      S
C145  H83   1.072 .      S
N42   Zn13  2.016 1_556  S
C147  H84   1.063 1_556  S
H84   C147  1.063 1_554  S
Br22  C148  1.896 .      S
C149  H85   1.070 .      S
C150  H86   1.072 .      S
C152  H87   1.078 .      S
N44   Zn13  2.006 1_556  S
C154  H88   1.069 .      S
Br23  C155  1.906 1_655  S
C155  Br23  1.906 1_455  S
C156  H89   1.081 .      S
C157  H90   1.075 .      S
C159  H91   1.072 .      S
C161  H92   1.076 .      S
Br24  C162  1.909 .      S
C163  H93   1.080 .      S
C164  H94   1.076 .      S
C166  H95   1.078 .      S
N48   Zn14  2.072 1_565  S
C168  H96   1.056 1_565  S
H96   C168  1.056 1_545  S
Br25  C169  1.892 .      S
C170  H97   1.081 .      S
C171  H98   1.078 .      S
C173  H99   1.074 .      S
C175  H100  1.079 .      S
Br26  C176  1.897 .      S
C177  H101  1.081 .      S
C178  H102  1.078 .      S
C180  H103  1.081 .      S
C182  H104  1.079 .      S
Br27  C183  1.889 .      S
C184  H105  1.071 .      S
C185  H106  1.077 .      S
C187  H107  1.079 .      S
C189  H108  1.078 .      S
Br28  C190  1.902 .      S
C191  H109  1.081 .      S
C192  H110  1.064 .      S
C194  H111  1.080 .      S
C196  H112  1.066 .      S
Br29  C197  1.905 .      S
C198  H113  1.081 .      S
C199  H114  1.076 .      S
C201  H115  1.074 .      S
C203  H116  1.064 .      S
Br30  C204  1.902 .      S
C205  H117  1.081 .      S
C206  H118  1.069 .      S
C208  H119  1.081 .      S
C210  H120  1.059 .      S
Br31  C211  1.905 .      S
C212  H121  1.081 .      S
C213  H122  1.070 .      S
C215  H123  1.079 .      S
C217  H124  1.075 .      S
Br32  C218  1.906 .      S
C219  H125  1.079 .      S
C220  H126  1.061 .      S
C222  H127  1.075 .      S
C224  H128  1.080 .      S
Br33  C225  1.858 .      S
C226  H129  1.081 .      S
C227  H130  1.057 .      S
N65   Zn2   2.169 1_655  S
C229  H131  1.081 .      S
C231  H132  1.073 .      S
Br34  C232  1.902 1_565  S
C232  Br34  1.902 1_545  S
C233  H133  1.081 .      S
C234  H134  1.079 .      S
C236  H135  1.076 .      S
C238  H136  1.069 .      S
Br35  C239  1.906 .      S
C240  H137  1.080 .      S
C241  H138  1.080 .      S
C243  H139  1.076 .      S
C245  H140  1.080 .      S
Br36  C246  1.904 .      S
C247  H141  1.081 .      S
C248  H142  1.073 .      S
C250  H143  1.072 .      S
C252  H144  1.074 .      S
Br37  C253  1.891 .      S
C254  H145  1.077 .      S
C255  H146  1.075 .      S
C257  H147  1.081 .      S
C259  H148  1.076 .      S
Br38  C260  1.901 .      S
C261  H149  1.077 .      S
C262  H150  1.073 .      S
C264  H151  1.081 .      S
C266  H152  1.046 .      S
Br39  C267  1.906 .      S
C268  H153  1.081 .      S
C269  H154  1.077 .      S
C271  H155  1.070 .      S
C273  H156  1.078 .      S
Br40  C274  1.904 .      S
C275  H157  1.079 .      S
C276  H158  1.081 .      S
C278  H159  1.079 .      S
C280  H160  1.079 .      S
Br41  C281  1.907 .      S
C282  H161  1.081 .      S
C283  H162  1.076 .      S
C285  H163  1.065 .      S
C287  H164  1.074 .      S
Br42  C288  1.902 .      S
C289  H165  1.081 .      S
C290  H166  1.057 .      S
C292  H167  1.079 .      S
N84   Zn30  1.951 1_565  S
C294  H168  1.080 1_565  S
H168  C294  1.080 1_545  S
Br43  C295  1.900 1_554  S
C295  Br43  1.900 1_556  S
C296  H169  1.081 .      S
C297  H170  1.075 .      S
C299  H171  1.074 .      S
N86   Zn21  2.119 1_556  S
C301  H172  1.071 1_556  S
H172  C301  1.071 1_554  S
Br44  C302  1.905 .      S
C303  H173  1.081 .      S
C304  H174  1.080 1_565  S
N87   Zn28  1.937 1_565  S
C306  H175  1.078 .      S
C308  H176  1.081 .      S
H174  C304  1.080 1_545  S
Br45  C309  1.897 .      S
C310  H177  1.070 .      S
C311  H178  1.056 .      S
C313  H179  1.066 .      S
C315  H180  1.072 .      S
Br46  C316  1.898 .      S
C317  H181  1.078 .      S
C318  H182  1.053 .      S
C320  H183  1.079 .      S
N92   Zn7   2.066 1_565  S
C322  H184  1.066 .      S
Br47  C323  1.905 1_655  S
C323  Br47  1.905 1_455  S
C324  H185  1.081 1_455  S
C325  H186  1.068 .      S
C327  H187  1.069 .      S
C329  H188  1.065 .      S
H185  C324  1.081 1_655  S
Br48  C330  1.892 .      S
C331  H189  1.054 .      S
C332  H190  1.068 .      S
C334  H191  1.069 .      S
C336  H192  1.035 .      S
Br49  C337  1.905 .      S
C338  H193  1.081 1_455  S
C339  H194  1.074 .      S
C341  H195  1.060 .      S
C343  H196  1.081 .      S
H193  C338  1.081 1_655  S
Br50  C344  1.906 1_655  S
C344  Br50  1.906 1_455  S
C345  H197  1.081 .      S
C346  H198  1.076 .      S
C348  H199  1.080 .      S
C350  H200  1.063 .      S
Br51  C351  1.894 .      S
C352  H201  1.081 .      S
C353  H202  1.076 .      S
C355  H203  1.074 .      S
C357  H204  1.060 .      S
Br52  C358  1.898 .      S
C359  H205  1.081 .      S
C360  H206  1.076 .      S
C362  H207  1.070 .      S
C364  H208  1.054 .      S
Br53  C365  1.859 .      S
C366  H209  1.070 .      S
C367  H210  1.077 .      S
C369  H211  1.061 .      S
C371  H212  1.037 .      S
Br54  C372  1.889 .      S
C373  H213  1.075 .      S
C374  H214  1.058 .      S
C376  H215  1.075 .      S
C378  H216  1.059 .      S
Br55  C379  1.874 .      S
C380  H217  1.074 .      S
C381  H218  1.035 .      S
N109  Zn26  2.124 1_556  S
C383  H219  1.080 .      S
C385  H220  1.053 .      S
Br56  C386  1.899 .      S
C387  H221  1.081 .      S
C388  H222  1.080 .      S
C390  H223  1.079 .      S
C392  H224  1.078 .      S
Br57  C393  1.912 .      S
C394  H225  1.078 .      S
C395  H226  1.038 .      S
C397  H227  1.079 .      S
C399  H228  1.056 .      S
Br58  C400  1.905 .      S
C401  H229  1.081 .      S
C402  H230  1.077 .      S
C404  H231  1.080 .      S
C406  H232  1.078 .      S
Br59  C407  1.910 1_655  S
C407  Br59  1.910 1_455  S
C408  H233  1.081 .      S
C409  H234  1.081 1_455  S
N117  Zn2   2.138 1_565  S
C411  H235  1.079 .      S
C413  H236  1.073 .      S
H234  C409  1.081 1_655  S
Br60  C414  1.909 .      S
C415  H237  1.081 .      S
C416  H238  1.080 .      S
C418  H239  1.064 .      S
C420  H240  1.061 .      S
Br61  C421  1.904 .      S
C422  H241  1.081 .      S
C423  H242  1.081 .      S
C425  H243  1.071 .      S
C427  H244  1.075 .      S
Br62  C428  1.907 1_655  S
C428  Br62  1.907 1_455  S
C429  H245  1.081 .      S
C430  H246  1.064 1_455  S
C432  H247  1.074 .      S
C434  H248  1.075 .      S
H246  C430  1.064 1_655  S
Br63  C435  1.911 .      S
C436  H249  1.073 .      S
C437  H250  1.049 .      S
C439  H251  1.081 .      S
C441  H252  1.069 1_545  S
H252  C441  1.069 1_565  S
Br64  C442  1.860 .      S
C443  H253  1.081 1_545  S
C444  H254  1.064 1_545  S
C446  H255  1.081 .      S
C448  H256  1.078 .      S
H253  C443  1.081 1_565  S
H254  C444  1.064 1_565  S
Br65  C449  1.885 .      S
C450  H257  1.067 .      S
C451  H258  1.074 .      S
N129  Zn2   1.976 1_565  S
C453  H259  1.079 .      S
C455  H260  1.060 .      S
Br66  C456  1.893 .      S
C457  H261  1.080 .      S
C458  H262  1.075 .      S
C460  H263  1.061 .      S
C462  H264  1.078 .      S
Br67  C463  1.902 .      S
C464  H265  1.081 1_455  S
C465  H266  1.080 .      S
C467  H267  1.075 .      S
N134  Zn7   2.083 1_565  S
C469  H268  1.077 1_455  S
H265  C464  1.081 1_655  S
H268  C469  1.077 1_655  S
Br68  C470  1.904 .      S
C471  H269  1.074 .      S
C472  H270  1.071 .      S
C474  H271  1.081 .      S
C476  H272  1.067 1_545  S
H272  C476  1.067 1_565  S
C1    C2    1.389 .      A
C1    C7    1.378 .      A
C2    C3    1.385 .      A
C3    C4    1.373 .      A
C4    N1    1.348 .      A
C4    C6    1.349 .      A
N1    C5    1.364 .      A
C5    N2    1.369 .      A
N2    C6    1.340 .      A
C6    C7    1.370 .      A
C8    C9    1.377 .      A
C8    C14   1.375 .      A
C9    C10   1.379 .      A
C10   C11   1.370 .      A
C11   N3    1.355 .      A
C11   C13   1.346 .      A
N3    C12   1.364 .      A
C12   N4    1.375 .      A
N4    C13   1.340 .      A
C13   C14   1.379 .      A
C15   C16   1.386 .      A
C15   C21   1.357 1_565  A
C16   C17   1.383 .      A
C17   C18   1.381 1_565  A
C18   C17   1.381 1_545  A
C18   N5    1.360 .      A
C18   C20   1.321 .      A
N5    C19   1.359 .      A
C19   N6    1.357 .      A
N6    C20   1.312 .      A
C20   C21   1.353 .      A
C21   C15   1.357 1_545  A
C22   C23   1.389 .      A
C22   C28   1.383 .      A
C23   C24   1.385 .      A
C24   C25   1.372 .      A
C25   N7    1.352 .      A
C25   C27   1.360 .      A
N7    C26   1.370 .      A
C26   N8    1.375 .      A
N8    C27   1.343 .      A
C27   C28   1.374 .      A
C29   C30   1.385 .      A
C29   C35   1.383 .      A
C30   C31   1.379 .      A
C31   C32   1.376 .      A
C32   N9    1.341 .      A
C32   C34   1.360 .      A
N9    C33   1.381 .      A
C33   N10   1.377 .      A
N10   C34   1.363 .      A
C34   C35   1.382 .      A
C36   C37   1.388 .      A
C36   C42   1.369 .      A
C37   C38   1.382 .      A
C38   C39   1.365 .      A
C39   N11   1.339 .      A
C39   C41   1.341 .      A
N11   C40   1.369 .      A
C40   N12   1.363 .      A
N12   C41   1.330 .      A
C41   C42   1.352 .      A
C43   C44   1.377 .      A
C43   C49   1.403 .      A
C44   C45   1.360 .      A
C45   C46   1.358 .      A
C46   N13   1.320 .      A
C46   C48   1.364 .      A
N13   C47   1.370 .      A
C47   N14   1.385 .      A
N14   C48   1.366 .      A
C48   C49   1.377 .      A
C50   C51   1.382 .      A
C50   C56   1.389 .      A
C51   C52   1.373 .      A
C52   C53   1.365 .      A
C53   N15   1.346 .      A
C53   C55   1.356 .      A
N15   C54   1.373 .      A
C54   N16   1.378 .      A
N16   C55   1.343 .      A
C55   C56   1.376 .      A
C57   C58   1.389 .      A
C57   C63   1.360 .      A
C58   C59   1.386 .      A
C59   C60   1.372 .      A
C60   N17   1.343 .      A
C60   C62   1.349 .      A
N17   C61   1.366 .      A
C61   N18   1.376 .      A
N18   C62   1.334 .      A
C62   C63   1.349 .      A
C64   C65   1.387 .      A
C64   C70   1.381 1_655  A
C65   C66   1.384 .      A
C66   C67   1.370 .      A
C67   N19   1.355 .      A
C67   C69   1.369 .      A
N19   C68   1.392 .      A
C68   N20   1.392 .      A
N20   C69   1.341 .      A
C69   C70   1.373 1_655  A
C70   C64   1.381 1_455  A
C70   C69   1.373 1_455  A
C71   C72   1.377 .      A
C71   C77   1.368 .      A
C72   C73   1.388 .      A
C73   C74   1.366 .      A
C74   N21   1.353 .      A
C74   C76   1.335 .      A
N21   C75   1.361 .      A
C75   N22   1.346 .      A
N22   C76   1.328 .      A
C76   C77   1.359 .      A
C78   C79   1.391 .      A
C78   C84   1.370 .      A
C79   C80   1.376 .      A
C80   C81   1.358 .      A
C81   N23   1.334 .      A
C81   C83   1.343 .      A
N23   C82   1.380 .      A
C82   N24   1.380 .      A
N24   C83   1.334 .      A
C83   C84   1.359 .      A
C85   C86   1.384 .      A
C85   C91   1.377 .      A
C86   C87   1.384 .      A
C87   C88   1.376 .      A
C88   N25   1.353 .      A
C88   C90   1.342 .      A
N25   C89   1.365 .      A
C89   N26   1.368 .      A
N26   C90   1.338 .      A
C90   C91   1.374 .      A
C92   C93   1.383 .      A
C92   C98   1.381 .      A
C93   C94   1.379 .      A
C94   C95   1.371 .      A
C95   N27   1.341 .      A
C95   C97   1.355 .      A
N27   C96   1.366 .      A
C96   N28   1.374 .      A
N28   C97   1.351 .      A
C97   C98   1.367 .      A
C99   C100  1.382 .      A
C99   C105  1.377 .      A
C100  C101  1.383 .      A
C101  C102  1.375 .      A
C102  N29   1.348 .      A
C102  C104  1.355 .      A
N29   C103  1.378 .      A
C103  N30   1.384 .      A
N30   C104  1.347 .      A
C104  C105  1.365 .      A
C106  C107  1.382 .      A
C106  C112  1.367 .      A
C107  C108  1.387 .      A
C108  C109  1.364 .      A
C109  N31   1.346 .      A
C109  C111  1.347 .      A
N31   C110  1.370 .      A
C110  N32   1.373 .      A
N32   C111  1.329 .      A
C111  C112  1.361 .      A
C113  C114  1.383 .      A
C113  C119  1.380 .      A
C114  C115  1.375 .      A
C115  C116  1.360 .      A
C116  N33   1.343 .      A
C116  C118  1.350 .      A
N33   C117  1.380 .      A
C117  N34   1.364 .      A
N34   C118  1.347 .      A
C118  C119  1.379 .      A
C120  C121  1.390 .      A
C120  C126  1.342 .      A
C121  C122  1.389 .      A
C122  C123  1.365 .      A
C123  N35   1.352 .      A
C123  C125  1.350 .      A
N35   C124  1.377 .      A
C124  N36   1.360 .      A
N36   C125  1.306 .      A
C125  C126  1.336 .      A
C127  C128  1.387 .      A
C127  C133  1.380 .      A
C128  C129  1.384 .      A
C129  C130  1.367 .      A
C130  N37   1.349 .      A
C130  C132  1.343 .      A
N37   C131  1.366 .      A
C131  N38   1.357 .      A
N38   C132  1.336 .      A
C132  C133  1.372 .      A
C134  C135  1.392 .      A
C134  C140  1.361 .      A
C135  C136  1.389 .      A
C136  C137  1.366 .      A
C137  N39   1.353 .      A
C137  C139  1.340 .      A
N39   C138  1.378 .      A
C138  N40   1.365 .      A
N40   C139  1.325 .      A
C139  C140  1.365 .      A
C141  C142  1.393 .      A
C141  C147  1.367 .      A
C142  C143  1.389 .      A
C143  C144  1.373 .      A
C144  N41   1.345 .      A
C144  C146  1.359 .      A
N41   C145  1.376 .      A
C145  N42   1.364 .      A
N42   C146  1.336 .      A
C146  C147  1.348 .      A
C148  C149  1.376 .      A
C148  C154  1.380 .      A
C149  C150  1.376 .      A
C150  C151  1.362 .      A
C151  N43   1.341 1_556  A
C151  C153  1.352 .      A
N43   C151  1.341 1_554  A
N43   C152  1.365 .      A
C152  N44   1.379 1_554  A
N44   C152  1.379 1_556  A
N44   C153  1.345 .      A
C153  C154  1.377 .      A
C155  C156  1.390 .      A
C155  C161  1.384 .      A
C156  C157  1.384 .      A
C157  C158  1.369 1_556  A
C158  C157  1.369 1_554  A
C158  N45   1.343 .      A
C158  C160  1.362 .      A
N45   C159  1.357 .      A
C159  N46   1.361 .      A
N46   C160  1.348 .      A
C160  C161  1.371 1_554  A
C161  C160  1.371 1_556  A
C162  C163  1.382 .      A
C162  C168  1.386 .      A
C163  C164  1.376 .      A
C164  C165  1.360 .      A
C165  N47   1.333 .      A
C165  C167  1.353 .      A
N47   C166  1.381 .      A
C166  N48   1.375 .      A
N48   C167  1.359 .      A
C167  C168  1.373 .      A
C169  C170  1.388 .      A
C169  C175  1.380 .      A
C170  C171  1.382 .      A
C171  C172  1.375 .      A
C172  N49   1.348 .      A
C172  C174  1.357 .      A
N49   C173  1.357 .      A
C173  N50   1.357 .      A
N50   C174  1.344 .      A
C174  C175  1.373 .      A
C176  C177  1.388 .      A
C176  C182  1.379 .      A
C177  C178  1.383 .      A
C178  C179  1.377 .      A
C179  N51   1.346 .      A
C179  C181  1.358 .      A
N51   C180  1.375 .      A
C180  N52   1.370 .      A
N52   C181  1.347 .      A
C181  C182  1.370 .      A
C183  C184  1.381 .      A
C183  C189  1.385 .      A
C184  C185  1.372 .      A
C185  C186  1.363 .      A
C186  N53   1.329 .      A
C186  C188  1.349 .      A
N53   C187  1.366 .      A
C187  N54   1.358 .      A
N54   C188  1.351 .      A
C188  C189  1.373 .      A
C190  C191  1.382 .      A
C190  C196  1.378 .      A
C191  C192  1.381 .      A
C192  C193  1.379 .      A
C193  N55   1.355 .      A
C193  C195  1.353 .      A
N55   C194  1.364 .      A
C194  N56   1.364 .      A
N56   C195  1.343 .      A
C195  C196  1.372 .      A
C197  C198  1.384 .      A
C197  C203  1.383 .      A
C198  C199  1.378 .      A
C199  C200  1.375 .      A
C200  N57   1.336 .      A
C200  C202  1.348 .      A
N57   C201  1.354 .      A
C201  N58   1.361 .      A
N58   C202  1.361 .      A
C202  C203  1.381 .      A
C204  C205  1.379 .      A
C204  C210  1.381 .      A
C205  C206  1.376 .      A
C206  C207  1.377 .      A
C207  N59   1.344 .      A
C207  C209  1.355 .      A
N59   C208  1.369 .      A
C208  N60   1.376 .      A
N60   C209  1.358 .      A
C209  C210  1.373 .      A
C211  C212  1.385 .      A
C211  C217  1.380 .      A
C212  C213  1.383 .      A
C213  C214  1.375 .      A
C214  N61   1.355 .      A
C214  C216  1.357 .      A
N61   C215  1.390 .      A
C215  N62   1.383 .      A
N62   C216  1.339 .      A
C216  C217  1.369 .      A
C218  C219  1.385 .      A
C218  C224  1.379 .      A
C219  C220  1.384 .      A
C220  C221  1.374 .      A
C221  N63   1.364 .      A
C221  C223  1.373 .      A
N63   C222  1.398 .      A
C222  N64   1.390 .      A
N64   C223  1.337 .      A
C223  C224  1.373 .      A
C225  C226  1.385 1_655  A
C225  C231  1.359 .      A
C226  C225  1.385 1_455  A
C226  C227  1.382 .      A
C227  C228  1.364 1_455  A
C228  C227  1.364 1_655  A
C228  N65   1.344 .      A
C228  C230  1.354 .      A
N65   C229  1.404 .      A
C229  N66   1.408 .      A
N66   C230  1.328 .      A
C230  C231  1.346 .      A
C232  C233  1.389 .      A
C232  C238  1.387 .      A
C233  C234  1.381 .      A
C234  C235  1.370 .      A
C235  N67   1.337 .      A
C235  C237  1.361 .      A
N67   C236  1.386 .      A
C236  N68   1.378 .      A
N68   C237  1.352 .      A
C237  C238  1.369 .      A
C239  C240  1.391 .      A
C239  C245  1.384 .      A
C240  C241  1.386 .      A
C241  C242  1.372 .      A
C242  N69   1.346 .      A
C242  C244  1.362 .      A
N69   C243  1.372 .      A
C243  N70   1.375 .      A
N70   C244  1.345 .      A
C244  C245  1.371 .      A
C246  C247  1.388 .      A
C246  C252  1.385 .      A
C247  C248  1.381 .      A
C248  C249  1.369 .      A
C249  N71   1.342 .      A
C249  C251  1.365 .      A
N71   C250  1.366 .      A
C250  N72   1.377 .      A
N72   C251  1.354 .      A
C251  C252  1.376 .      A
C253  C254  1.384 .      A
C253  C259  1.373 .      A
C254  C255  1.383 .      A
C255  C256  1.378 .      A
C256  N73   1.346 .      A
C256  C258  1.352 .      A
N73   C257  1.368 .      A
C257  N74   1.385 .      A
N74   C258  1.338 .      A
C258  C259  1.359 .      A
C260  C261  1.374 .      A
C260  C266  1.375 .      A
C261  C262  1.377 .      A
C262  C263  1.360 .      A
C263  N75   1.346 .      A
C263  C265  1.343 .      A
N75   C264  1.392 .      A
C264  N76   1.395 .      A
N76   C265  1.344 .      A
C265  C266  1.372 .      A
C267  C268  1.389 .      A
C267  C273  1.384 .      A
C268  C269  1.384 .      A
C269  C270  1.373 .      A
C270  N77   1.343 .      A
C270  C272  1.363 .      A
N77   C271  1.364 .      A
C271  N78   1.372 .      A
N78   C272  1.355 .      A
C272  C273  1.377 .      A
C274  C275  1.391 .      A
C274  C280  1.381 .      A
C275  C276  1.385 .      A
C276  C277  1.374 .      A
C277  N79   1.350 .      A
C277  C279  1.373 .      A
N79   C278  1.386 .      A
C278  N80   1.381 .      A
N80   C279  1.345 .      A
C279  C280  1.370 .      A
C281  C282  1.390 .      A
C281  C287  1.382 .      A
C282  C283  1.384 .      A
C283  C284  1.366 .      A
C284  N81   1.348 .      A
C284  C286  1.359 .      A
N81   C285  1.372 .      A
C285  N82   1.382 .      A
N82   C286  1.340 .      A
C286  C287  1.370 .      A
C288  C289  1.387 .      A
C288  C294  1.380 .      A
C289  C290  1.385 .      A
C290  C291  1.372 .      A
C291  N83   1.359 .      A
C291  C293  1.359 .      A
N83   C292  1.363 .      A
C292  N84   1.360 .      A
N84   C293  1.339 .      A
C293  C294  1.371 .      A
C295  C296  1.386 .      A
C295  C301  1.386 .      A
C296  C297  1.380 .      A
C297  C298  1.373 .      A
C298  N85   1.348 .      A
C298  C300  1.365 .      A
N85   C299  1.394 .      A
C299  N86   1.387 .      A
N86   C300  1.348 .      A
C300  C301  1.368 .      A
C302  C303  1.394 .      A
C302  C308  1.386 .      A
C303  C304  1.387 .      A
C304  C305  1.369 .      A
C305  N87   1.344 .      A
C305  C307  1.360 .      A
N87   C306  1.362 .      A
C306  N88   1.358 .      A
N88   C307  1.350 .      A
C307  C308  1.372 .      A
C309  C310  1.376 .      A
C309  C315  1.369 .      A
C310  C311  1.380 .      A
C311  C312  1.369 .      A
C312  N89   1.349 .      A
C312  C314  1.363 .      A
N89   C313  1.390 .      A
C313  N90   1.393 .      A
N90   C314  1.348 .      A
C314  C315  1.372 .      A
C316  C317  1.377 .      A
C316  C322  1.379 .      A
C317  C318  1.373 .      A
C318  C319  1.356 .      A
C319  N91   1.337 .      A
C319  C321  1.344 .      A
N91   C320  1.391 .      A
C320  N92   1.384 .      A
N92   C321  1.349 .      A
C321  C322  1.372 .      A
C323  C324  1.386 .      A
C323  C329  1.383 .      A
C324  C325  1.382 .      A
C325  C326  1.371 .      A
C326  N93   1.350 .      A
C326  C328  1.364 .      A
N93   C327  1.377 .      A
C327  N94   1.376 .      A
N94   C328  1.347 .      A
C328  C329  1.370 .      A
C330  C331  1.358 .      A
C330  C336  1.365 .      A
C331  C332  1.358 .      A
C332  C333  1.369 .      A
C333  N95   1.336 .      A
C333  C335  1.361 .      A
N95   C334  1.384 .      A
C334  N96   1.380 .      A
N96   C335  1.337 .      A
C335  C336  1.338 .      A
C337  C338  1.392 1_655  A
C337  C343  1.384 1_655  A
C338  C337  1.392 1_455  A
C338  C339  1.386 .      A
C339  C340  1.372 .      A
C340  N97   1.352 .      A
C340  C342  1.363 .      A
N97   C341  1.360 .      A
C341  N98   1.361 .      A
N98   C342  1.342 .      A
C342  C343  1.373 .      A
C343  C337  1.384 1_455  A
C344  C345  1.387 1_455  A
C344  C350  1.381 .      A
C345  C344  1.387 1_655  A
C345  C346  1.384 .      A
C346  C347  1.370 1_655  A
C347  C346  1.370 1_455  A
C347  N99   1.344 .      A
C347  C349  1.354 .      A
N99   C348  1.367 .      A
C348  N100  1.370 .      A
N100  C349  1.347 .      A
C349  C350  1.368 .      A
C351  C352  1.383 1_455  A
C351  C357  1.381 .      A
C352  C351  1.383 1_655  A
C352  C353  1.377 1_554  A
C353  C352  1.377 1_556  A
C353  C354  1.371 1_655  A
C354  C353  1.371 1_455  A
C354  N101  1.335 .      A
C354  C356  1.351 1_556  A
N101  C355  1.355 .      A
C355  N102  1.365 1_556  A
N102  C355  1.365 1_554  A
N102  C356  1.358 .      A
C356  C354  1.351 1_554  A
C356  C357  1.374 .      A
C358  C359  1.383 .      A
C358  C364  1.370 .      A
C359  C360  1.379 .      A
C360  C361  1.382 .      A
C361  N103  1.341 .      A
C361  C363  1.352 .      A
N103  C362  1.359 .      A
C362  N104  1.369 .      A
N104  C363  1.355 .      A
C363  C364  1.368 .      A
C365  C366  1.381 .      A
C365  C371  1.344 .      A
C366  C367  1.380 .      A
C367  C368  1.373 .      A
C368  N105  1.335 .      A
C368  C370  1.348 .      A
N105  C369  1.363 .      A
C369  N106  1.388 .      A
N106  C370  1.333 .      A
C370  C371  1.323 .      A
C372  C373  1.375 .      A
C372  C378  1.364 .      A
C373  C374  1.378 .      A
C374  C375  1.374 .      A
C375  N107  1.348 .      A
C375  C377  1.342 .      A
N107  C376  1.375 .      A
C376  N108  1.380 .      A
N108  C377  1.340 .      A
C377  C378  1.360 .      A
C379  C380  1.374 .      A
C379  C385  1.362 .      A
C380  C381  1.376 .      A
C381  C382  1.355 .      A
C382  N109  1.341 .      A
C382  C384  1.338 .      A
N109  C383  1.395 .      A
C383  N110  1.393 .      A
N110  C384  1.329 .      A
C384  C385  1.346 .      A
C386  C387  1.389 .      A
C386  C392  1.393 .      A
C387  C388  1.376 .      A
C388  C389  1.367 .      A
C389  N111  1.338 .      A
C389  C391  1.365 .      A
N111  C390  1.368 .      A
C390  N112  1.382 .      A
N112  C391  1.351 .      A
C391  C392  1.375 .      A
C393  C394  1.368 .      A
C393  C399  1.380 .      A
C394  C395  1.372 .      A
C395  C396  1.374 .      A
C396  N113  1.359 .      A
C396  C398  1.343 .      A
N113  C397  1.379 .      A
C397  N114  1.375 .      A
N114  C398  1.342 .      A
C398  C399  1.371 .      A
C400  C401  1.389 .      A
C400  C406  1.384 .      A
C401  C402  1.383 .      A
C402  C403  1.369 .      A
C403  N115  1.339 .      A
C403  C405  1.357 .      A
N115  C404  1.360 .      A
C404  N116  1.358 .      A
N116  C405  1.358 .      A
C405  C406  1.379 .      A
C407  C408  1.390 1_455  A
C407  C413  1.388 1_545  A
C408  C407  1.390 1_655  A
C408  C409  1.382 1_654  A
C409  C408  1.382 1_456  A
C409  C410  1.370 .      A
C410  N117  1.338 1_545  A
C410  C412  1.378 1_546  A
N117  C410  1.338 1_565  A
N117  C411  1.397 .      A
C411  N118  1.379 1_556  A
N118  C411  1.379 1_554  A
N118  C412  1.359 .      A
C412  C410  1.378 1_564  A
C412  C413  1.371 .      A
C413  C407  1.388 1_565  A
C414  C415  1.384 .      A
C414  C420  1.387 1_655  A
C415  C416  1.378 .      A
C416  C417  1.373 1_655  A
C417  C416  1.373 1_455  A
C417  N119  1.333 .      A
C417  C419  1.350 .      A
N119  C418  1.361 .      A
C418  N120  1.358 .      A
N120  C419  1.360 .      A
C419  C420  1.377 .      A
C420  C414  1.387 1_455  A
C421  C422  1.389 .      A
C421  C427  1.383 .      A
C422  C423  1.384 .      A
C423  C424  1.375 .      A
C424  N121  1.336 .      A
C424  C426  1.344 .      A
N121  C425  1.346 .      A
C425  N122  1.357 .      A
N122  C426  1.351 .      A
C426  C427  1.373 .      A
C428  C429  1.386 1_455  A
C428  C434  1.384 .      A
C429  C428  1.386 1_655  A
C429  C430  1.381 1_655  A
C430  C429  1.381 1_455  A
C430  C431  1.368 .      A
C431  N123  1.347 .      A
C431  C433  1.355 .      A
N123  C432  1.372 .      A
C432  N124  1.371 .      A
N124  C433  1.345 .      A
C433  C434  1.372 .      A
C435  C436  1.369 .      A
C435  C441  1.361 .      A
C436  C437  1.384 .      A
C437  C438  1.354 .      A
C438  N125  1.338 .      A
C438  C440  1.329 .      A
N125  C439  1.369 .      A
C439  N126  1.374 .      A
N126  C440  1.338 .      A
C440  C441  1.373 .      A
C442  C443  1.380 .      A
C442  C448  1.363 .      A
C443  C444  1.378 .      A
C444  C445  1.374 .      A
C445  N127  1.344 .      A
C445  C447  1.339 .      A
N127  C446  1.365 .      A
C446  N128  1.358 .      A
N128  C447  1.338 .      A
C447  C448  1.361 .      A
C449  C450  1.372 .      A
C449  C455  1.366 .      A
C450  C451  1.365 .      A
C451  C452  1.381 .      A
C452  N129  1.356 .      A
C452  C454  1.341 .      A
N129  C453  1.366 .      A
C453  N130  1.369 .      A
N130  C454  1.332 .      A
C454  C455  1.364 .      A
C456  C457  1.383 .      A
C456  C462  1.392 .      A
C457  C458  1.373 .      A
C458  C459  1.370 .      A
C459  N131  1.340 .      A
C459  C461  1.355 .      A
N131  C460  1.360 .      A
C460  N132  1.342 .      A
N132  C461  1.352 .      A
C461  C462  1.378 .      A
C463  C464  1.390 1_655  A
C463  C469  1.385 1_655  A
C464  C463  1.390 1_455  A
C464  C465  1.383 .      A
C465  C466  1.373 .      A
C466  N133  1.347 .      A
C466  C468  1.363 .      A
N133  C467  1.372 .      A
C467  N134  1.389 .      A
N134  C468  1.346 .      A
C468  C469  1.372 .      A
C469  C463  1.385 1_455  A
C470  C471  1.380 1_554  A
C470  C476  1.369 .      A
C471  C470  1.380 1_556  A
C471  C472  1.388 .      A
C472  C473  1.360 .      A
C473  N135  1.333 .      A
C473  C475  1.333 1_556  A
N135  C474  1.370 1_556  A
C474  N135  1.370 1_554  A
C474  N136  1.370 .      A
N136  C475  1.339 .      A
C475  C473  1.333 1_554  A
C475  C476  1.368 .      A
