data_str_m1_o12004_SBT
_audit_creation_date              2015-10-01T06:33:04-0700
_symmetry_space_group_name_H-M    P1
_symmetry_Int_Tables_number       1
_space_group_crystal_system       triclinic
loop_
_symmetry_equiv_pos_as_xyz
  x,y,z
_cell_length_a                    34.7202148
_cell_length_b                    33.7546829
_cell_length_c                    36.2066443
_cell_angle_alpha                 59.2200892
_cell_angle_beta                  63.3020154
_cell_angle_gamma                 67.6820209
_cell_volume                      31942.7299358

loop_
_atom_site_label
_atom_site_type_symbol
_atom_site_description
_atom_site_fract_x
_atom_site_fract_y
_atom_site_fract_z
_atom_type_partial_charge
Zn1   Zn    Zn3+2 0.441687 0.423174 0.724564 0.000000
Zn2   Zn    Zn3+2 0.231401 0.018049 0.524588 0.000000
Zn3   Zn    Zn3+2 0.311463 0.806900 0.605695 0.000000
Zn4   Zn    Zn3+2 0.478913 0.797122 0.430405 0.000000
Zn5   Zn    Zn3+2 0.651781 0.798436 0.606224 0.000000
Zn6   Zn    Zn3+2 0.404080 0.016423 0.710849 0.000000
Zn7   Zn    Zn3+2 0.093875 0.194370 0.757497 0.000000
Zn8   Zn    Zn3+2 0.584501 0.012830 0.340749 0.000000
Zn9   Zn    Zn3+2 0.905889 0.317525 0.417266 0.000000
Zn10  Zn    Zn3+2 0.617575 0.419620 0.555509 0.000000
Zn11  Zn    Zn3+2 0.796674 0.620221 0.369941 0.000000
Zn12  Zn    Zn3+2 0.775038 0.430350 0.728613 0.000000
Zn13  Zn    Zn3+2 0.428751 0.429990 0.896521 0.000000
Zn14  Zn    Zn3+2 0.213027 0.018496 0.715462 0.000000
Zn15  Zn    Zn3+2 0.290967 0.809528 0.792797 0.000000
Zn16  Zn    Zn3+2 0.986705 0.496571 0.700307 0.000000
Zn17  Zn    Zn3+2 0.288448 0.319027 0.830343 0.000000
Zn18  Zn    Zn3+2 0.672071 0.797124 0.416997 0.000000
Zn19  Zn    Zn3+2 0.802967 0.419122 0.545486 0.000000
Zn20  Zn    Zn3+2 0.458425 0.393048 0.395059 0.000000
Zn21  Zn    Zn3+2 0.611270 0.504161 0.283947 0.000000
Zn22  Zn    Zn3+2 0.463284 0.400683 0.214095 0.000000
Zn23  Zn    Zn3+2 0.285087 0.397544 0.563583 0.000000
Zn24  Zn    Zn3+2 0.605336 0.215641 0.417329 0.000000
Zn25  Zn    Zn3+2 0.285545 0.371788 0.228999 0.000000
Zn26  Zn    Zn3+2 0.622420 0.509254 0.091383 0.000000
Zn27  Zn    Zn3+2 0.712351 0.322598 0.419735 0.000000
Zn28  Zn    Zn3+2 0.611153 0.221465 0.233619 0.000000
Zn29  Zn    Zn3+2 0.398178 0.012359 0.342311 0.000000
Zn30  Zn    Zn3+2 0.103645 0.192014 0.412789 0.000000
Zn31  Zn    Zn3+2 0.563336 0.011474 0.526189 0.000000
Zn32  Zn    Zn3+2 0.598543 0.616036 0.390894 0.000000
Zn33  Zn    Zn3+2 0.288911 0.199849 0.743515 0.000000
Zn34  Zn    Zn3+2 0.105831 0.382887 0.579056 0.000000
Zn35  Zn    Zn3+2 0.614071 0.632458 0.884687 0.000000
Zn36  Zn    Zn3+2 0.184823 0.496169 0.694381 0.000000
Zn37  Zn    Zn3+2 0.157268 0.481472 0.100693 0.000000
Zn38  Zn    Zn3+2 0.727734 0.335411 0.031643 0.000000
Zn39  Zn    Zn3+2 0.119375 0.377805 0.396776 0.000000
Zn40  Zn    Zn3+2 0.278307 0.190493 0.232949 0.000000
Zn41  Zn    Zn3+2 0.484399 0.806946 0.785223 0.000000
Zn42  Zn    Zn3+2 0.283260 0.595404 0.712113 0.000000
Zn43  Zn    Zn3+2 0.983286 0.501404 0.279627 0.000000
Zn44  Zn    Zn3+2 0.267870 0.323764 0.023282 0.000000
Zn45  Zn    Zn3+2 0.263542 0.598862 0.891304 0.000000
Zn46  Zn    Zn3+2 0.903077 0.316085 0.847297 0.000000
Zn47  Zn    Zn3+2 0.612686 0.434766 0.898066 0.000000
Zn48  Zn    Zn3+2 0.786576 0.623514 0.710441 0.000000
C1    C     C_3   0.363217 0.552295 0.786500 0.000000
N1    N     N_3   0.383171 0.505286 0.811149 0.000000
C2    C     C_3   0.422618 0.492096 0.779494 0.000000
C3    C     C_R   0.439578 0.441455 0.800216 0.000000
N2    N     N_R   0.450255 0.417956 0.839641 0.000000
C4    C     C_R   0.476023 0.377420 0.836215 0.000000
C5    C     C_R   0.497894 0.340432 0.864776 0.000000
C6    C     C_R   0.521052 0.301577 0.854837 0.000000
C7    C     C_R   0.521295 0.299922 0.817194 0.000000
C8    C     C_R   0.499147 0.337689 0.788597 0.000000
C9    C     C_R   0.477983 0.376149 0.798588 0.000000
N3    N     N_R   0.453974 0.415442 0.776111 0.000000
H1    H     H_    0.339199 0.566984 0.810604 0.000000
H2    H     H_    0.388420 0.574215 0.763339 0.000000
H3    H     H_    0.345472 0.551853 0.768386 0.000000
H4    H     H_    0.362347 0.482820 0.824216 0.000000
H5    H     H_    0.415442 0.501170 0.749633 0.000000
H6    H     H_    0.448123 0.511912 0.766836 0.000000
H7    H     H_    0.497151 0.341230 0.893957 0.000000
H8    H     H_    0.538499 0.271938 0.877039 0.000000
H9    H     H_    0.538730 0.268995 0.810344 0.000000
H10   H     H_    0.498110 0.336927 0.759652 0.000000
C10   C     C_3   0.374994 0.732838 0.755044 0.000000
N4    N     N_3   0.383430 0.779507 0.725749 0.000000
C11   C     C_3   0.373843 0.798157 0.684260 0.000000
C12   C     C_R   0.325969 0.808546 0.692184 0.000000
N5    N     N_R   0.295451 0.814031 0.730957 0.000000
C13   C     C_R   0.257356 0.821645 0.724600 0.000000
C14   C     C_R   0.215240 0.831712 0.750861 0.000000
C15   C     C_R   0.180905 0.829713 0.742846 0.000000
C16   C     C_R   0.189450 0.817074 0.708868 0.000000
C17   C     C_R   0.231895 0.810914 0.680552 0.000000
C18   C     C_R   0.264666 0.817581 0.686787 0.000000
N6    N     N_R   0.307641 0.810793 0.663575 0.000000
H11   H     H_    0.394425 0.715432 0.778511 0.000000
H12   H     H_    0.340176 0.734609 0.775328 0.000000
H13   H     H_    0.385242 0.713288 0.734428 0.000000
H14   H     H_    0.417234 0.774346 0.716202 0.000000
H15   H     H_    0.384158 0.832142 0.662169 0.000000
H16   H     H_    0.393189 0.774219 0.667484 0.000000
H17   H     H_    0.208368 0.843103 0.775764 0.000000
H18   H     H_    0.147488 0.836776 0.763988 0.000000
H19   H     H_    0.163047 0.812265 0.704369 0.000000
H20   H     H_    0.239705 0.797040 0.656800 0.000000
C19   C     C_3   0.352841 0.968161 0.542455 0.000000
N7    N     N_3   0.308587 0.959506 0.563467 0.000000
C20   C     C_3   0.310882 0.914627 0.566300 0.000000
C21   C     C_R   0.270676 0.910139 0.565536 0.000000
N8    N     N_R   0.263834 0.865915 0.581439 0.000000
C22   C     C_R   0.221066 0.875214 0.584683 0.000000
C23   C     C_R   0.194759 0.844517 0.600621 0.000000
C24   C     C_R   0.150047 0.861115 0.608309 0.000000
C25   C     C_R   0.132051 0.907731 0.601407 0.000000
C26   C     C_R   0.159020 0.938615 0.584262 0.000000
C27   C     C_R   0.203667 0.922057 0.573159 0.000000
N9    N     N_R   0.235058 0.946001 0.557273 0.000000
H21   H     H_    0.362477 0.979547 0.505647 0.000000
H22   H     H_    0.353407 0.996737 0.548443 0.000000
H23   H     H_    0.375744 0.936289 0.557419 0.000000
H24   H     H_    0.290597 0.985904 0.543131 0.000000
H25   H     H_    0.338928 0.906606 0.539157 0.000000
H26   H     H_    0.313991 0.888781 0.599586 0.000000
H27   H     H_    0.208147 0.808421 0.607959 0.000000
H28   H     H_    0.128814 0.837128 0.621517 0.000000
H29   H     H_    0.096875 0.919982 0.609339 0.000000
H30   H     H_    0.145278 0.974788 0.579632 0.000000
C28   C     C_3   0.410200 0.919062 0.460118 0.000000
N10   N     N_3   0.456473 0.903516 0.441613 0.000000
C29   C     C_3   0.468627 0.920922 0.393846 0.000000
C30   C     C_R   0.442964 0.906558 0.381543 0.000000
N11   N     N_R   0.450761 0.861192 0.386082 0.000000
C31   C     C_R   0.430060 0.867478 0.359197 0.000000
C32   C     C_R   0.427864 0.833997 0.349844 0.000000
C33   C     C_R   0.408492 0.848947 0.317611 0.000000
C34   C     C_R   0.392772 0.896501 0.295079 0.000000
C35   C     C_R   0.394442 0.929668 0.305757 0.000000
C36   C     C_R   0.411228 0.914020 0.339823 0.000000
N12   N     N_R   0.416741 0.939811 0.355311 0.000000
H31   H     H_    0.391511 0.895805 0.464723 0.000000
H32   H     H_    0.404993 0.916968 0.493169 0.000000
H33   H     H_    0.399994 0.955444 0.438225 0.000000
H34   H     H_    0.472749 0.917988 0.448442 0.000000
H35   H     H_    0.461377 0.958693 0.381518 0.000000
H36   H     H_    0.503839 0.907592 0.379531 0.000000
H37   H     H_    0.440722 0.797266 0.366989 0.000000
H38   H     H_    0.406539 0.823546 0.309100 0.000000
H39   H     H_    0.379254 0.907751 0.268769 0.000000
H40   H     H_    0.384184 0.966618 0.286698 0.000000
C37   C     C_3   0.335304 0.804592 0.443037 0.000000
N13   N     N_3   0.364089 0.815572 0.454410 0.000000
C38   C     C_3   0.359431 0.786455 0.502033 0.000000
C39   C     C_R   0.387227 0.797912 0.515402 0.000000
N14   N     N_R   0.431717 0.799177 0.492419 0.000000
C40   C     C_R   0.440680 0.812019 0.516781 0.000000
C41   C     C_R   0.477571 0.825354 0.506383 0.000000
C42   C     C_R   0.478142 0.844665 0.531218 0.000000
C43   C     C_R   0.443003 0.847528 0.568321 0.000000
C44   C     C_R   0.404922 0.836962 0.576544 0.000000
C45   C     C_R   0.404608 0.819461 0.550322 0.000000
N15   N     N_R   0.369946 0.809806 0.551882 0.000000
H41   H     H_    0.335115 0.829494 0.407993 0.000000
H42   H     H_    0.347391 0.768255 0.445097 0.000000
H43   H     H_    0.301277 0.807983 0.466620 0.000000
H44   H     H_    0.353239 0.850530 0.450181 0.000000
H45   H     H_    0.324772 0.793473 0.523093 0.000000
H46   H     H_    0.369089 0.748935 0.508097 0.000000
H47   H     H_    0.502405 0.829454 0.474612 0.000000
H48   H     H_    0.504678 0.861411 0.518446 0.000000
H49   H     H_    0.444188 0.861136 0.588626 0.000000
H50   H     H_    0.375642 0.844337 0.601275 0.000000
C46   C     C_3   0.523881 0.711256 0.566130 0.000000
N16   N     N_3   0.536066 0.724348 0.517836 0.000000
C47   C     C_3   0.564131 0.758403 0.493857 0.000000
C48   C     C_R   0.573729 0.780331 0.443973 0.000000
N17   N     N_R   0.616013 0.786681 0.415358 0.000000
C49   C     C_R   0.612192 0.800814 0.374756 0.000000
C50   C     C_R   0.643437 0.814455 0.333401 0.000000
C51   C     C_R   0.632750 0.830149 0.295074 0.000000
C52   C     C_R   0.589977 0.834562 0.298855 0.000000
C53   C     C_R   0.557815 0.824296 0.340779 0.000000
C54   C     C_R   0.570078 0.805875 0.378371 0.000000
N18   N     N_R   0.543775 0.794273 0.421640 0.000000
H51   H     H_    0.515711 0.675764 0.585858 0.000000
H52   H     H_    0.551409 0.710696 0.574083 0.000000
H53   H     H_    0.494991 0.736913 0.576223 0.000000
H54   H     H_    0.507711 0.740553 0.508846 0.000000
H55   H     H_    0.553597 0.783378 0.509034 0.000000
H56   H     H_    0.595245 0.739634 0.497646 0.000000
H57   H     H_    0.675071 0.812879 0.331382 0.000000
H58   H     H_    0.657540 0.840082 0.262027 0.000000
H59   H     H_    0.581388 0.847636 0.268800 0.000000
H60   H     H_    0.524242 0.830631 0.343451 0.000000
C55   C     C_3   0.724422 0.619865 0.612606 0.000000
N19   N     N_3   0.712692 0.645700 0.639435 0.000000
C56   C     C_3   0.733604 0.686234 0.611605 0.000000
C57   C     C_R   0.729713 0.708038 0.639929 0.000000
N20   N     N_R   0.706129 0.753872 0.633627 0.000000
C58   C     C_R   0.723731 0.764697 0.653143 0.000000
C59   C     C_R   0.715171 0.806114 0.656148 0.000000
C60   C     C_R   0.738936 0.810317 0.675702 0.000000
C61   C     C_R   0.770345 0.772897 0.692514 0.000000
C62   C     C_R   0.777818 0.731031 0.690064 0.000000
C63   C     C_R   0.754051 0.727742 0.670801 0.000000
N21   N     N_R   0.757907 0.689955 0.665294 0.000000
H61   H     H_    0.698835 0.599438 0.626614 0.000000
H62   H     H_    0.727905 0.644298 0.576572 0.000000
H63   H     H_    0.755145 0.594223 0.614898 0.000000
H64   H     H_    0.724744 0.624330 0.666587 0.000000
H65   H     H_    0.768040 0.677148 0.592235 0.000000
H66   H     H_    0.718990 0.712901 0.585235 0.000000
H67   H     H_    0.690284 0.834473 0.644046 0.000000
H68   H     H_    0.733100 0.843042 0.677760 0.000000
H69   H     H_    0.789272 0.776635 0.707078 0.000000
H70   H     H_    0.803398 0.702417 0.699870 0.000000
C64   C     C_3   0.632657 0.867370 0.707606 0.000000
N22   N     N_3   0.604243 0.863586 0.690234 0.000000
C65   C     C_3   0.602052 0.814530 0.709692 0.000000
C66   C     C_R   0.572169 0.807752 0.695291 0.000000
N23   N     N_R   0.531241 0.797482 0.726231 0.000000
C67   C     C_R   0.526589 0.767192 0.715801 0.000000
C68   C     C_R   0.495435 0.739516 0.740612 0.000000
C69   C     C_R   0.496363 0.709557 0.724997 0.000000
C70   C     C_R   0.524815 0.711561 0.682906 0.000000
C71   C     C_R   0.555606 0.739836 0.658678 0.000000
C72   C     C_R   0.559106 0.764320 0.677441 0.000000
N24   N     N_R   0.589761 0.789588 0.662703 0.000000
H71   H     H_    0.612893 0.882932 0.732496 0.000000
H72   H     H_    0.650763 0.832280 0.725143 0.000000
H73   H     H_    0.655889 0.890499 0.679193 0.000000
H74   H     H_    0.618324 0.875017 0.655225 0.000000
H75   H     H_    0.634558 0.793204 0.699442 0.000000
H76   H     H_    0.590077 0.800743 0.746920 0.000000
H77   H     H_    0.471506 0.739781 0.772128 0.000000
H78   H     H_    0.473113 0.686737 0.744489 0.000000
H79   H     H_    0.522228 0.691937 0.668368 0.000000
H80   H     H_    0.571310 0.747471 0.623744 0.000000
C73   C     C_3   0.769727 0.857384 0.456652 0.000000
N25   N     N_3   0.742863 0.821667 0.483660 0.000000
C74   C     C_3   0.699054 0.842354 0.479389 0.000000
C75   C     C_R   0.673716 0.804226 0.505571 0.000000
N26   N     N_R   0.669395 0.781343 0.485126 0.000000
C76   C     C_R   0.657793 0.741847 0.521860 0.000000
C77   C     C_R   0.656334 0.702508 0.522061 0.000000
C78   C     C_R   0.640271 0.666447 0.563098 0.000000
C79   C     C_R   0.632298 0.668176 0.603196 0.000000
C80   C     C_R   0.642151 0.704890 0.601781 0.000000
C81   C     C_R   0.651860 0.742729 0.561021 0.000000
N27   N     N_R   0.660684 0.782240 0.552899 0.000000
H81   H     H_    0.804687 0.839987 0.452947 0.000000
H82   H     H_    0.766072 0.878545 0.422453 0.000000
H83   H     H_    0.760191 0.880227 0.474162 0.000000
H84   H     H_    0.739883 0.809673 0.517559 0.000000
H85   H     H_    0.682635 0.869739 0.492742 0.000000
H86   H     H_    0.701165 0.857547 0.443512 0.000000
H87   H     H_    0.663350 0.704302 0.489586 0.000000
H88   H     H_    0.633740 0.636868 0.564399 0.000000
H89   H     H_    0.620923 0.639595 0.635348 0.000000
H90   H     H_    0.639727 0.705164 0.632433 0.000000
C82   C     C_3   0.558625 0.965631 0.692129 0.000000
N28   N     N_3   0.535702 0.927006 0.725359 0.000000
C83   C     C_3   0.507362 0.924791 0.706835 0.000000
C84   C     C_R   0.464372 0.917066 0.742690 0.000000
N29   N     N_R   0.466054 0.875379 0.780179 0.000000
C85   C     C_R   0.442778 0.889189 0.814561 0.000000
C86   C     C_R   0.437647 0.862832 0.859888 0.000000
C87   C     C_R   0.413218 0.885094 0.888976 0.000000
C88   C     C_R   0.395530 0.932960 0.872316 0.000000
C89   C     C_R   0.402145 0.959254 0.826294 0.000000
C90   C     C_R   0.425716 0.936283 0.798255 0.000000
N30   N     N_R   0.435313 0.954363 0.752940 0.000000
H91   H     H_    0.582420 0.965461 0.704814 0.000000
H92   H     H_    0.576785 0.961488 0.659760 0.000000
H93   H     H_    0.534854 0.999246 0.687670 0.000000
H94   H     H_    0.516426 0.934886 0.753495 0.000000
H95   H     H_    0.504531 0.956911 0.677191 0.000000
H96   H     H_    0.521970 0.895253 0.696520 0.000000
H97   H     H_    0.454075 0.826694 0.872345 0.000000
H98   H     H_    0.408855 0.865309 0.924847 0.000000
H99   H     H_    0.377393 0.950012 0.895359 0.000000
H100  H     H_    0.390875 0.996771 0.812913 0.000000
C91   C     C_3   0.374584 0.107848 0.619469 0.000000
N31   N     N_3   0.330766 0.106171 0.626373 0.000000
C92   C     C_3   0.328210 0.057717 0.643496 0.000000
C93   C     C_R   0.312120 0.035304 0.693894 0.000000
N32   N     N_R   0.341259 0.012114 0.718628 0.000000
C94   C     C_R   0.316713 0.984907 0.758950 0.000000
C95   C     C_R   0.330022 0.946972 0.793989 0.000000
C96   C     C_R   0.298627 0.926991 0.834404 0.000000
C97   C     C_R   0.254680 0.944868 0.838430 0.000000
C98   C     C_R   0.242794 0.978682 0.800527 0.000000
C99   C     C_R   0.274766 0.995581 0.760263 0.000000
N33   N     N_R   0.270387 0.024083 0.718823 0.000000
H101  H     H_    0.377598 0.144755 0.601572 0.000000
H102  H     H_    0.379944 0.092218 0.652328 0.000000
H103  H     H_    0.399652 0.090147 0.597414 0.000000
H104  H     H_    0.328485 0.122719 0.593837 0.000000
H105  H     H_    0.306004 0.056045 0.630694 0.000000
H106  H     H_    0.360354 0.038019 0.630368 0.000000
H107  H     H_    0.363452 0.930212 0.789099 0.000000
H108  H     H_    0.308417 0.897579 0.862726 0.000000
H109  H     H_    0.229749 0.930453 0.870370 0.000000
H110  H     H_    0.209175 0.991863 0.802397 0.000000
C100  C     C_3   0.161158 0.036461 0.871419 0.000000
N34   N     N_3   0.148738 0.044814 0.834333 0.000000
C101  C     C_3   0.169315 0.082046 0.793012 0.000000
C102  C     C_R   0.149673 0.095926 0.758444 0.000000
N35   N     N_R   0.156586 0.064192 0.741442 0.000000
C103  C     C_R   0.115858 0.070660 0.741093 0.000000
C104  C     C_R   0.102719 0.049032 0.726755 0.000000
C105  C     C_R   0.059161 0.061558 0.728713 0.000000
C106  C     C_R   0.029912 0.095623 0.744365 0.000000
C107  C     C_R   0.044013 0.118122 0.757660 0.000000
C108  C     C_R   0.087176 0.104829 0.755675 0.000000
N36   N     N_R   0.108676 0.125190 0.762213 0.000000
H111  H     H_    0.146062 0.007525 0.902506 0.000000
H112  H     H_    0.197305 0.025881 0.863185 0.000000
H113  H     H_    0.149135 0.068523 0.877919 0.000000
H114  H     H_    0.114732 0.056592 0.842756 0.000000
H115  H     H_    0.161506 0.112193 0.800729 0.000000
H116  H     H_    0.205041 0.070422 0.780180 0.000000
H117  H     H_    0.125733 0.023507 0.714106 0.000000
H118  H     H_    0.047832 0.044822 0.717780 0.000000
H119  H     H_    0.996080 0.105087 0.745520 0.000000
H120  H     H_    0.022033 0.145166 0.769179 0.000000
C109  C     C_3   0.979824 0.236120 0.705867 0.000000
N37   N     N_3   0.000908 0.245457 0.726687 0.000000
C110  C     C_3   0.968819 0.246330 0.769209 0.000000
C111  C     C_R   0.987551 0.242953 0.800883 0.000000
N38   N     N_R   0.028787 0.214495 0.805070 0.000000
C112  C     C_R   0.022937 0.205900 0.847794 0.000000
C113  C     C_R   0.051065 0.175956 0.872351 0.000000
C114  C     C_R   0.038447 0.171612 0.916213 0.000000
C115  C     C_R   0.999261 0.198081 0.933928 0.000000
C116  C     C_R   0.971135 0.228306 0.908709 0.000000
C117  C     C_R   0.983036 0.230669 0.866150 0.000000
N39   N     N_R   0.959834 0.256935 0.836809 0.000000
H121  H     H_    0.001172 0.241117 0.670672 0.000000
H122  H     H_    0.974111 0.199597 0.725294 0.000000
H123  H     H_    0.948028 0.261069 0.704643 0.000000
H124  H     H_    0.005676 0.279793 0.705316 0.000000
H125  H     H_    0.944868 0.279268 0.761769 0.000000
H126  H     H_    0.952712 0.215832 0.786953 0.000000
H127  H     H_    0.081718 0.155967 0.858194 0.000000
H128  H     H_    0.059743 0.148036 0.936622 0.000000
H129  H     H_    0.990503 0.194720 0.967934 0.000000
H130  H     H_    0.940375 0.248361 0.922555 0.000000
C118  C     C_3   0.459758 0.162717 0.311044 0.000000
N40   N     N_3   0.462021 0.123318 0.303956 0.000000
C119  C     C_3   0.475501 0.081376 0.340068 0.000000
C120  C     C_R   0.488038 0.040060 0.330019 0.000000
N41   N     N_R   0.462282 0.028971 0.317311 0.000000
C121  C     C_R   0.493459 0.002763 0.295088 0.000000
C122  C     C_R   0.487798 0.985412 0.271302 0.000000
C123  C     C_R   0.524029 0.958480 0.251472 0.000000
C124  C     C_R   0.564449 0.948740 0.256567 0.000000
C125  C     C_R   0.569155 0.964891 0.282257 0.000000
C126  C     C_R   0.533337 0.993250 0.300054 0.000000
N42   N     N_R   0.531323 0.015660 0.323025 0.000000
H131  H     H_    0.431453 0.190544 0.302363 0.000000
H132  H     H_    0.454758 0.151947 0.347036 0.000000
H133  H     H_    0.490860 0.175789 0.290147 0.000000
H134  H     H_    0.486735 0.124707 0.273495 0.000000
H135  H     H_    0.504833 0.084756 0.342268 0.000000
H136  H     H_    0.448932 0.076996 0.372214 0.000000
H137  H     H_    0.456485 0.993983 0.266746 0.000000
H138  H     H_    0.520958 0.945215 0.231551 0.000000
H139  H     H_    0.592701 0.928774 0.239837 0.000000
H140  H     H_    0.600585 0.957179 0.286202 0.000000
C127  C     C_3   0.594682 0.863250 0.462118 0.000000
N43   N     N_3   0.561885 0.894382 0.440805 0.000000
C128  C     C_3   0.579032 0.900506 0.394162 0.000000
C129  C     C_R   0.625287 0.906607 0.372427 0.000000
N44   N     N_R   0.632844 0.951506 0.346185 0.000000
C130  C     C_R   0.676784 0.944520 0.335045 0.000000
C131  C     C_R   0.702370 0.977845 0.310166 0.000000
C132  C     C_R   0.746765 0.962903 0.305365 0.000000
C133  C     C_R   0.764359 0.915523 0.326045 0.000000
C134  C     C_R   0.737972 0.882247 0.351226 0.000000
C135  C     C_R   0.694367 0.897625 0.354398 0.000000
N45   N     N_R   0.662891 0.871661 0.378138 0.000000
H141  H     H_    0.617350 0.882944 0.456854 0.000000
H142  H     H_    0.578317 0.846071 0.497497 0.000000
H143  H     H_    0.610571 0.834515 0.451504 0.000000
H144  H     H_    0.557756 0.926151 0.441154 0.000000
H145  H     H_    0.573968 0.872743 0.391166 0.000000
H146  H     H_    0.559764 0.933217 0.375616 0.000000
H147  H     H_    0.688379 0.014281 0.294477 0.000000
H148  H     H_    0.767946 0.988308 0.285657 0.000000
H149  H     H_    0.798937 0.904583 0.322529 0.000000
H150  H     H_    0.751237 0.845459 0.367899 0.000000
C136  C     C_3   0.956847 0.173995 0.554059 0.000000
N46   N     N_3   0.988431 0.183404 0.508729 0.000000
C137  C     C_3   0.979285 0.233704 0.481417 0.000000
C138  C     C_R   0.996782 0.243634 0.432595 0.000000
N47   N     N_R   0.033068 0.212283 0.417036 0.000000
C139  C     C_R   0.016610 0.203609 0.394907 0.000000
C140  C     C_R   0.035578 0.171278 0.376190 0.000000
C141  C     C_R   0.012308 0.167068 0.356229 0.000000
C142  C     C_R   0.970654 0.194174 0.355951 0.000000
C143  C     C_R   0.952071 0.226842 0.374526 0.000000
C144  C     C_R   0.976196 0.232145 0.392610 0.000000
N48   N     N_R   0.963711 0.260688 0.413551 0.000000
H151  H     H_    0.969843 0.139927 0.578409 0.000000
H152  H     H_    0.951012 0.202271 0.564154 0.000000
H153  H     H_    0.925416 0.171940 0.554680 0.000000
H154  H     H_    0.981914 0.166184 0.495671 0.000000
H155  H     H_    0.943219 0.245405 0.489931 0.000000
H156  H     H_    0.991240 0.253801 0.488554 0.000000
H157  H     H_    0.068157 0.150523 0.375791 0.000000
H158  H     H_    0.026511 0.142065 0.341138 0.000000
H159  H     H_    0.952442 0.189542 0.341280 0.000000
H160  H     H_    0.919003 0.246202 0.375873 0.000000
C145  C     C_3   0.930454 0.470141 0.416213 0.000000
N49   N     N_3   0.918192 0.480078 0.378596 0.000000
C146  C     C_3   0.905348 0.438686 0.388462 0.000000
C147  C     C_R   0.929124 0.420693 0.352504 0.000000
N50   N     N_R   0.923673 0.378551 0.359835 0.000000
C148  C     C_R   0.937355 0.382415 0.317117 0.000000
C149  C     C_R   0.940554 0.349692 0.303810 0.000000
C150  C     C_R   0.956065 0.360473 0.257854 0.000000
C151  C     C_R   0.969214 0.403055 0.226290 0.000000
C152  C     C_R   0.968068 0.434718 0.240441 0.000000
C153  C     C_R   0.952210 0.423351 0.286294 0.000000
N51   N     N_R   0.950923 0.446817 0.307810 0.000000
H161  H     H_    0.963472 0.447808 0.413336 0.000000
H162  H     H_    0.933064 0.502593 0.414204 0.000000
H163  H     H_    0.905568 0.454291 0.448886 0.000000
H164  H     H_    0.947025 0.484123 0.351841 0.000000
H165  H     H_    0.911666 0.411442 0.418637 0.000000
H166  H     H_    0.869738 0.445020 0.395476 0.000000
H167  H     H_    0.929481 0.317518 0.328321 0.000000
H168  H     H_    0.957774 0.335658 0.246486 0.000000
H169  H     H_    0.981391 0.411062 0.190485 0.000000
H170  H     H_    0.979361 0.466930 0.215945 0.000000
C154  C     C_3   0.806322 0.226552 0.582771 0.000000
N52   N     N_3   0.838098 0.256902 0.558555 0.000000
C155  C     C_3   0.818004 0.303692 0.532112 0.000000
C156  C     C_R   0.850003 0.335433 0.508763 0.000000
N53   N     N_R   0.850506 0.361245 0.528735 0.000000
C157  C     C_R   0.893715 0.359420 0.515149 0.000000
C158  C     C_R   0.914265 0.375927 0.527503 0.000000
C159  C     C_R   0.958240 0.376948 0.503927 0.000000
C160  C     C_R   0.979578 0.362645 0.468489 0.000000
C161  C     C_R   0.959259 0.342379 0.459425 0.000000
C162  C     C_R   0.916332 0.340003 0.484182 0.000000
N54   N     N_R   0.889037 0.327978 0.476208 0.000000
H171  H     H_    0.777848 0.238754 0.607668 0.000000
H172  H     H_    0.795225 0.226749 0.558379 0.000000
H173  H     H_    0.821999 0.190150 0.601128 0.000000
H174  H     H_    0.864479 0.243900 0.536044 0.000000
H175  H     H_    0.809445 0.302568 0.506742 0.000000
H176  H     H_    0.787904 0.316188 0.555445 0.000000
H177  H     H_    0.896949 0.387055 0.554904 0.000000
H178  H     H_    0.975485 0.390697 0.511920 0.000000
H179  H     H_    0.012322 0.368022 0.446690 0.000000
H180  H     H_    0.975633 0.331790 0.431697 0.000000
C163  C     C_3   0.573495 0.293877 0.702801 0.000000
N55   N     N_3   0.568554 0.312083 0.658734 0.000000
C164  C     C_3   0.527857 0.346349 0.656691 0.000000
C165  C     C_R   0.532447 0.392096 0.649697 0.000000
N56   N     N_R   0.502844 0.416462 0.676319 0.000000
C166  C     C_R   0.523666 0.450531 0.661897 0.000000
C167  C     C_R   0.509451 0.485661 0.676249 0.000000
C168  C     C_R   0.534792 0.519110 0.655201 0.000000
C169  C     C_R   0.573278 0.517067 0.619857 0.000000
C170  C     C_R   0.585878 0.481961 0.605281 0.000000
C171  C     C_R   0.560838 0.449073 0.627105 0.000000
N57   N     N_R   0.567690 0.413482 0.616855 0.000000
H181  H     H_    0.574249 0.322720 0.708626 0.000000
H182  H     H_    0.546411 0.275379 0.730051 0.000000
H183  H     H_    0.605033 0.268337 0.703557 0.000000
H184  H     H_    0.566043 0.283975 0.655872 0.000000
H185  H     H_    0.519914 0.351912 0.627753 0.000000
H186  H     H_    0.501666 0.332463 0.688947 0.000000
H187  H     H_    0.478971 0.488074 0.702120 0.000000
H188  H     H_    0.524354 0.547100 0.666019 0.000000
H189  H     H_    0.593064 0.543220 0.603652 0.000000
H190  H     H_    0.615678 0.478014 0.579189 0.000000
C172  C     C_3   0.638070 0.379272 0.703299 0.000000
N58   N     N_3   0.661147 0.374156 0.660686 0.000000
C173  C     C_3   0.681108 0.415029 0.626947 0.000000
C174  C     C_R   0.701080 0.412934 0.581683 0.000000
N59   N     N_R   0.745131 0.412137 0.557036 0.000000
C175  C     C_R   0.749123 0.405280 0.522866 0.000000
C176  C     C_R   0.784455 0.408653 0.484888 0.000000
C177  C     C_R   0.783255 0.398152 0.453989 0.000000
C178  C     C_R   0.742961 0.400610 0.454333 0.000000
C179  C     C_R   0.707098 0.410717 0.487386 0.000000
C180  C     C_R   0.710708 0.405233 0.524375 0.000000
N60   N     N_R   0.677747 0.413072 0.559240 0.000000
H191  H     H_    0.610374 0.409882 0.699562 0.000000
H192  H     H_    0.624721 0.347154 0.729878 0.000000
H193  H     H_    0.661022 0.383894 0.713715 0.000000
H194  H     H_    0.637516 0.374310 0.650332 0.000000
H195  H     H_    0.656780 0.447656 0.625867 0.000000
H196  H     H_    0.706653 0.415549 0.636624 0.000000
H197  H     H_    0.812776 0.420399 0.477489 0.000000
H198  H     H_    0.812562 0.397149 0.426352 0.000000
H199  H     H_    0.738826 0.401784 0.426330 0.000000
H200  H     H_    0.676863 0.428718 0.484146 0.000000
C181  C     C_3   0.937774 0.660497 0.277904 0.000000
N61   N     N_3   0.919692 0.637133 0.327053 0.000000
C182  C     C_3   0.921962 0.587588 0.341021 0.000000
C183  C     C_R   0.901055 0.581899 0.316989 0.000000
N62   N     N_R   0.857986 0.605145 0.316688 0.000000
C184  C     C_R   0.858084 0.601103 0.281536 0.000000
C185  C     C_R   0.827679 0.624428 0.259314 0.000000
C186  C     C_R   0.831330 0.611095 0.227336 0.000000
C187  C     C_R   0.864405 0.574363 0.219291 0.000000
C188  C     C_R   0.896531 0.553542 0.239940 0.000000
C189  C     C_R   0.894883 0.570612 0.267914 0.000000
N63   N     N_R   0.924489 0.557918 0.288595 0.000000
H201  H     H_    0.949675 0.691411 0.269069 0.000000
H202  H     H_    0.965679 0.636588 0.264154 0.000000
H203  H     H_    0.911939 0.673082 0.262202 0.000000
H204  H     H_    0.886719 0.653267 0.336447 0.000000
H205  H     H_    0.956074 0.568415 0.335637 0.000000
H206  H     H_    0.904226 0.572055 0.376774 0.000000
H207  H     H_    0.801170 0.651793 0.267107 0.000000
H208  H     H_    0.807142 0.628009 0.209992 0.000000
H209  H     H_    0.865774 0.562809 0.195785 0.000000
H210  H     H_    0.922816 0.525928 0.232925 0.000000
C190  C     C_3   0.800493 0.735600 0.441242 0.000000
N64   N     N_3   0.802691 0.691719 0.441232 0.000000
C191  C     C_3   0.758846 0.688973 0.448659 0.000000
C192  C     C_R   0.752205 0.707965 0.404034 0.000000
N65   N     N_R   0.731527 0.754758 0.385394 0.000000
C193  C     C_R   0.753631 0.765677 0.340427 0.000000
C194  C     C_R   0.753661 0.809130 0.304268 0.000000
C195  C     C_R   0.778556 0.811545 0.260974 0.000000
C196  C     C_R   0.803629 0.771229 0.254073 0.000000
C197  C     C_R   0.804952 0.728027 0.290580 0.000000
C198  C     C_R   0.780665 0.726462 0.333234 0.000000
N66   N     N_R   0.779829 0.688283 0.372476 0.000000
H211  H     H_    0.783911 0.765737 0.417104 0.000000
H212  H     H_    0.782708 0.734341 0.475967 0.000000
H213  H     H_    0.834340 0.740354 0.430647 0.000000
H214  H     H_    0.811803 0.664807 0.469423 0.000000
H215  H     H_    0.754671 0.652136 0.469911 0.000000
H216  H     H_    0.735126 0.710902 0.466678 0.000000
H217  H     H_    0.734148 0.840771 0.308643 0.000000
H218  H     H_    0.778295 0.845255 0.232181 0.000000
H219  H     H_    0.822895 0.773746 0.220044 0.000000
H220  H     H_    0.825728 0.696851 0.285676 0.000000
C199  C     C_3   0.810731 0.522512 0.366023 0.000000
N67   N     N_3   0.783117 0.493451 0.408083 0.000000
C200  C     C_3   0.763290 0.513589 0.441207 0.000000
C201  C     C_R   0.795485 0.519771 0.452901 0.000000
N68   N     N_R   0.811235 0.487901 0.489624 0.000000
C202  C     C_R   0.836519 0.512690 0.485770 0.000000
C203  C     C_R   0.866158 0.496620 0.507892 0.000000
C204  C     C_R   0.892951 0.526278 0.494450 0.000000
C205  C     C_R   0.886250 0.572754 0.463530 0.000000
C206  C     C_R   0.855143 0.588879 0.442536 0.000000
C207  C     C_R   0.833251 0.556980 0.451819 0.000000
N69   N     N_R   0.808001 0.562597 0.429613 0.000000
H221  H     H_    0.840221 0.521689 0.370724 0.000000
H222  H     H_    0.820725 0.509219 0.340000 0.000000
H223  H     H_    0.792547 0.558589 0.354705 0.000000
H224  H     H_    0.757394 0.493247 0.400804 0.000000
H225  H     H_    0.742400 0.547362 0.428165 0.000000
H226  H     H_    0.742381 0.491689 0.472540 0.000000
H227  H     H_    0.869235 0.461807 0.534170 0.000000
H228  H     H_    0.917929 0.513757 0.509975 0.000000
H229  H     H_    0.906377 0.595992 0.454811 0.000000
H230  H     H_    0.851633 0.623863 0.416223 0.000000
C208  C     C_3   0.314345 0.965983 0.638535 0.000000
N70   N     N_3   0.297521 0.958008 0.685545 0.000000
C209  C     C_3   0.282841 0.914400 0.709999 0.000000
C210  C     C_R   0.249445 0.912244 0.753584 0.000000
N71   N     N_R   0.213956 0.947981 0.757782 0.000000
C211  C     C_R   0.189141 0.927606 0.801402 0.000000
C212  C     C_R   0.149724 0.947591 0.824781 0.000000
C213  C     C_R   0.132597 0.921900 0.870926 0.000000
C214  C     C_R   0.155000 0.877470 0.892720 0.000000
C215  C     C_R   0.194672 0.857810 0.868657 0.000000
C216  C     C_R   0.210799 0.883353 0.822648 0.000000
N72   N     N_R   0.248667 0.871802 0.792572 0.000000
H231  H     H_    0.337867 0.989714 0.618985 0.000000
H232  H     H_    0.329929 0.932025 0.635352 0.000000
H233  H     H_    0.287923 0.983261 0.624156 0.000000
H234  H     H_    0.324005 0.951436 0.695404 0.000000
H235  H     H_    0.268212 0.911392 0.690270 0.000000
H236  H     H_    0.311245 0.885852 0.716369 0.000000
H237  H     H_    0.132852 0.982414 0.808121 0.000000
H238  H     H_    0.101750 0.936779 0.890290 0.000000
H239  H     H_    0.141224 0.857958 0.928832 0.000000
H240  H     H_    0.211288 0.822887 0.885627 0.000000
C217  C     C_3   0.128296 0.946038 0.703737 0.000000
N73   N     N_3   0.169564 0.955243 0.695981 0.000000
C218  C     C_3   0.196132 0.964977 0.649046 0.000000
C219  C     C_R   0.211014 0.010151 0.626586 0.000000
N74   N     N_R   0.223244 0.034764 0.579401 0.000000
C220  C     C_R   0.231770 0.073289 0.574452 0.000000
C221  C     C_R   0.245427 0.110380 0.535215 0.000000
C222  C     C_R   0.259086 0.143038 0.535886 0.000000
C223  C     C_R   0.254354 0.140787 0.576562 0.000000
C224  C     C_R   0.235618 0.105938 0.617243 0.000000
C225  C     C_R   0.226837 0.071121 0.615017 0.000000
N75   N     N_R   0.215145 0.030837 0.649596 0.000000
H241  H     H_    0.108701 0.978615 0.684483 0.000000
H242  H     H_    0.134616 0.917887 0.693270 0.000000
H243  H     H_    0.109292 0.934403 0.740426 0.000000
H244  H     H_    0.185910 0.924404 0.715947 0.000000
H245  H     H_    0.224643 0.935782 0.646897 0.000000
H246  H     H_    0.176074 0.968852 0.630536 0.000000
H247  H     H_    0.247915 0.112683 0.503999 0.000000
H248  H     H_    0.273164 0.170762 0.504511 0.000000
H249  H     H_    0.266586 0.166389 0.575314 0.000000
H250  H     H_    0.232055 0.103510 0.649498 0.000000
C226  C     C_3   0.958261 0.639019 0.588381 0.000000
N76   N     N_3   0.950411 0.592335 0.605544 0.000000
C227  C     C_3   0.904559 0.590873 0.633233 0.000000
C228  C     C_R   0.894612 0.575752 0.682734 0.000000
N77   N     N_R   0.930129 0.555797 0.699235 0.000000
C229  C     C_R   0.920193 0.580420 0.723163 0.000000
C230  C     C_R   0.947801 0.581843 0.740025 0.000000
C231  C     C_R   0.933363 0.611766 0.760891 0.000000
C232  C     C_R   0.892219 0.640503 0.763608 0.000000
C233  C     C_R   0.865241 0.640082 0.745105 0.000000
C234  C     C_R   0.879306 0.609283 0.725128 0.000000
N78   N     N_R   0.859421 0.604479 0.703031 0.000000
H251  H     H_    0.939695 0.665151 0.564472 0.000000
H252  H     H_    0.948181 0.648786 0.616863 0.000000
H253  H     H_    0.993669 0.639253 0.569398 0.000000
H254  H     H_    0.972236 0.565915 0.622181 0.000000
H255  H     H_    0.885412 0.626833 0.620365 0.000000
H256  H     H_    0.895072 0.566919 0.629055 0.000000
H257  H     H_    0.980767 0.561985 0.735451 0.000000
H258  H     H_    0.954598 0.613378 0.774413 0.000000
H259  H     H_    0.881188 0.663941 0.779950 0.000000
H260  H     H_    0.833643 0.662678 0.748476 0.000000
C235  C     C_3   0.924799 0.375916 0.694653 0.000000
N79   N     N_3   0.928415 0.409020 0.706753 0.000000
C236  C     C_3   0.957126 0.385127 0.733870 0.000000
C237  C     C_R   0.945865 0.402875 0.768161 0.000000
N80   N     N_R   0.961067 0.440462 0.759219 0.000000
C238  C     C_R   0.957370 0.432213 0.801182 0.000000
C239  C     C_R   0.966361 0.458750 0.813777 0.000000
C240  C     C_R   0.968036 0.439082 0.857324 0.000000
C241  C     C_R   0.961316 0.393550 0.886640 0.000000
C242  C     C_R   0.947909 0.369289 0.874614 0.000000
C243  C     C_R   0.943686 0.390986 0.832487 0.000000
N81   N     N_R   0.933388 0.372849 0.813561 0.000000
H261  H     H_    0.902594 0.393496 0.673928 0.000000
H262  H     H_    0.957725 0.360861 0.676535 0.000000
H263  H     H_    0.910879 0.346867 0.724787 0.000000
H264  H     H_    0.898186 0.422654 0.724146 0.000000
H265  H     H_    0.954680 0.347746 0.753151 0.000000
H266  H     H_    0.990806 0.389287 0.710871 0.000000
H267  H     H_    0.975262 0.492125 0.789831 0.000000
H268  H     H_    0.977550 0.458084 0.867494 0.000000
H269  H     H_    0.966661 0.377126 0.918948 0.000000
H270  H     H_    0.943117 0.333607 0.896480 0.000000
C244  C     C_3   0.335637 0.398084 0.873830 0.000000
N82   N     N_3   0.333053 0.366688 0.859074 0.000000
C245  C     C_3   0.375102 0.346942 0.834063 0.000000
C246  C     C_R   0.374550 0.356226 0.789508 0.000000
N83   N     N_R   0.349722 0.335833 0.785793 0.000000
C247  C     C_R   0.371736 0.338075 0.742802 0.000000
C248  C     C_R   0.366395 0.320050 0.719258 0.000000
C249  C     C_R   0.395851 0.324260 0.676715 0.000000
C250  C     C_R   0.425967 0.352953 0.654829 0.000000
C251  C     C_R   0.427067 0.376223 0.676229 0.000000
C252  C     C_R   0.403524 0.363542 0.721327 0.000000
N84   N     N_R   0.406235 0.375815 0.749411 0.000000
H271  H     H_    0.315538 0.432882 0.859898 0.000000
H272  H     H_    0.319974 0.385227 0.910680 0.000000
H273  H     H_    0.369341 0.400805 0.865764 0.000000
H274  H     H_    0.312582 0.384294 0.839343 0.000000
H275  H     H_    0.401723 0.360495 0.828810 0.000000
H276  H     H_    0.381964 0.308380 0.853838 0.000000
H277  H     H_    0.340217 0.303542 0.731806 0.000000
H278  H     H_    0.392808 0.308272 0.659045 0.000000
H279  H     H_    0.447276 0.358491 0.620694 0.000000
H280  H     H_    0.447365 0.402030 0.658400 0.000000
C253  C     C_3   0.214274 0.449564 0.902987 0.000000
N85   N     N_3   0.241813 0.405148 0.921292 0.000000
C254  C     C_3   0.231975 0.372426 0.914672 0.000000
C255  C     C_R   0.260398 0.326758 0.929569 0.000000
N86   N     N_R   0.280885 0.303160 0.901089 0.000000
C256  C     C_R   0.304228 0.264493 0.925709 0.000000
C257  C     C_R   0.332201 0.228644 0.913499 0.000000
C258  C     C_R   0.355254 0.192859 0.942271 0.000000
C259  C     C_R   0.350825 0.194278 0.981691 0.000000
C260  C     C_R   0.323284 0.231415 0.993006 0.000000
C261  C     C_R   0.299373 0.265945 0.965072 0.000000
N87   N     N_R   0.272353 0.305920 0.969033 0.000000
H281  H     H_    0.234908 0.476302 0.883071 0.000000
H282  H     H_    0.200292 0.449208 0.881151 0.000000
H283  H     H_    0.186334 0.456882 0.930747 0.000000
H284  H     H_    0.233360 0.393963 0.955859 0.000000
H285  H     H_    0.197285 0.369303 0.933343 0.000000
H286  H     H_    0.240176 0.384062 0.877962 0.000000
H287  H     H_    0.336196 0.228641 0.882284 0.000000
H288  H     H_    0.377492 0.163983 0.933621 0.000000
H289  H     H_    0.369897 0.166628 0.003243 0.000000
H290  H     H_    0.321884 0.233549 0.022220 0.000000
C262  C     C_3   0.740594 0.559392 0.555520 0.000000
N88   N     N_3   0.743322 0.509319 0.584468 0.000000
C263  C     C_3   0.777143 0.494530 0.604487 0.000000
C264  C     C_R   0.788468 0.442445 0.627579 0.000000
N89   N     N_R   0.779013 0.419543 0.674286 0.000000
C265  C     C_R   0.771965 0.378726 0.682608 0.000000
C266  C     C_R   0.750703 0.346829 0.723489 0.000000
C267  C     C_R   0.745589 0.307702 0.724195 0.000000
C268  C     C_R   0.760498 0.301908 0.684315 0.000000
C269  C     C_R   0.779710 0.335746 0.643141 0.000000
C270  C     C_R   0.784688 0.374067 0.643356 0.000000
N90   N     N_R   0.795741 0.413836 0.607257 0.000000
H291  H     H_    0.764518 0.573592 0.555539 0.000000
H292  H     H_    0.747870 0.565519 0.520234 0.000000
H293  H     H_    0.707099 0.578485 0.567684 0.000000
H294  H     H_    0.753087 0.492177 0.563711 0.000000
H295  H     H_    0.807033 0.507101 0.577966 0.000000
H296  H     H_    0.763816 0.509130 0.630062 0.000000
H297  H     H_    0.738642 0.351896 0.754077 0.000000
H298  H     H_    0.729588 0.281635 0.755987 0.000000
H299  H     H_    0.755825 0.271474 0.685263 0.000000
H300  H     H_    0.789241 0.332573 0.611919 0.000000
C271  C     C_3   0.416711 0.563132 0.378271 0.000000
N91   N     N_3   0.445432 0.517617 0.382579 0.000000
C272  C     C_3   0.478929 0.522694 0.338872 0.000000
C273  C     C_R   0.512858 0.478229 0.342544 0.000000
N92   N     N_R   0.557076 0.478267 0.318342 0.000000
C274  C     C_R   0.570873 0.437098 0.315431 0.000000
C275  C     C_R   0.610798 0.420398 0.290345 0.000000
C276  C     C_R   0.618632 0.376585 0.292112 0.000000
C277  C     C_R   0.584756 0.353667 0.313086 0.000000
C278  C     C_R   0.545118 0.372773 0.335899 0.000000
C279  C     C_R   0.539632 0.412063 0.340048 0.000000
N93   N     N_R   0.502111 0.435437 0.359406 0.000000
H301  H     H_    0.389245 0.559060 0.410583 0.000000
H302  H     H_    0.435217 0.588106 0.371135 0.000000
H303  H     H_    0.403077 0.576988 0.350537 0.000000
H304  H     H_    0.426472 0.495483 0.389786 0.000000
H305  H     H_    0.462747 0.530777 0.314947 0.000000
H306  H     H_    0.494914 0.552460 0.324994 0.000000
H307  H     H_    0.636172 0.440044 0.269516 0.000000
H308  H     H_    0.649560 0.363252 0.272378 0.000000
H309  H     H_    0.587587 0.323697 0.308318 0.000000
H310  H     H_    0.517354 0.361706 0.343134 0.000000
C280  C     C_3   0.513775 0.510091 0.237923 0.000000
N94   N     N_3   0.483934 0.478512 0.274132 0.000000
C281  C     C_3   0.496827 0.435824 0.267556 0.000000
C282  C     C_R   0.462926 0.406478 0.298162 0.000000
N95   N     N_R   0.444801 0.392115 0.344897 0.000000
C283  C     C_R   0.410552 0.375213 0.354631 0.000000
C284  C     C_R   0.379944 0.357783 0.396462 0.000000
C285  C     C_R   0.341905 0.352400 0.397869 0.000000
C286  C     C_R   0.335611 0.364982 0.357846 0.000000
C287  C     C_R   0.369238 0.376549 0.316791 0.000000
C288  C     C_R   0.407492 0.380523 0.316005 0.000000
N96   N     N_R   0.442167 0.397330 0.279636 0.000000
H311  H     H_    0.494690 0.545082 0.222262 0.000000
H312  H     H_    0.532762 0.515392 0.251763 0.000000
H313  H     H_    0.537381 0.495746 0.212680 0.000000
H314  H     H_    0.452489 0.494757 0.271461 0.000000
H315  H     H_    0.497553 0.444194 0.234864 0.000000
H316  H     H_    0.530972 0.418573 0.265421 0.000000
H317  H     H_    0.384385 0.350491 0.427155 0.000000
H318  H     H_    0.315743 0.341774 0.429773 0.000000
H319  H     H_    0.303536 0.367002 0.358847 0.000000
H320  H     H_    0.363078 0.386978 0.286437 0.000000
C289  C     C_3   0.457943 0.405779 0.528039 0.000000
N97   N     N_3   0.438986 0.419992 0.493569 0.000000
C290  C     C_3   0.397013 0.405011 0.517496 0.000000
C291  C     C_R   0.379039 0.406196 0.486341 0.000000
N98   N     N_R   0.334222 0.411456 0.498969 0.000000
C292  C     C_R   0.328370 0.428516 0.458356 0.000000
C293  C     C_R   0.293043 0.431670 0.448539 0.000000
C294  C     C_R   0.294066 0.454678 0.403724 0.000000
C295  C     C_R   0.331182 0.471242 0.369250 0.000000
C296  C     C_R   0.368901 0.460221 0.379254 0.000000
C297  C     C_R   0.366855 0.436108 0.424041 0.000000
N99   N     N_R   0.400654 0.416528 0.440217 0.000000
H321  H     H_    0.487779 0.420353 0.512705 0.000000
H322  H     H_    0.433612 0.418891 0.554080 0.000000
H323  H     H_    0.467379 0.367040 0.544024 0.000000
H324  H     H_    0.459927 0.402513 0.472718 0.000000
H325  H     H_    0.398986 0.369930 0.546076 0.000000
H326  H     H_    0.373202 0.429767 0.532828 0.000000
H327  H     H_    0.266681 0.413736 0.473467 0.000000
H328  H     H_    0.266141 0.458614 0.395483 0.000000
H329  H     H_    0.331767 0.489233 0.334331 0.000000
H330  H     H_    0.399077 0.469937 0.352625 0.000000
C298  C     C_3   0.436783 0.253132 0.412461 0.000000
N100  N     N_3   0.456456 0.281225 0.416453 0.000000
C299  C     C_3   0.503880 0.275802 0.393738 0.000000
C300  C     C_R   0.521511 0.294164 0.411185 0.000000
N101  N     N_R   0.492982 0.326283 0.428696 0.000000
C301  C     C_R   0.500595 0.308707 0.468008 0.000000
C302  C     C_R   0.468558 0.309752 0.507176 0.000000
C303  C     C_R   0.475188 0.278840 0.548410 0.000000
C304  C     C_R   0.512071 0.243510 0.550122 0.000000
C305  C     C_R   0.541659 0.239127 0.510623 0.000000
C306  C     C_R   0.536918 0.273321 0.469508 0.000000
N102  N     N_R   0.553129 0.265959 0.431528 0.000000
H331  H     H_    0.408919 0.241229 0.443789 0.000000
H332  H     H_    0.422750 0.275290 0.384572 0.000000
H333  H     H_    0.460548 0.222100 0.407566 0.000000
H334  H     H_    0.450453 0.269327 0.450844 0.000000
H335  H     H_    0.519896 0.239014 0.401356 0.000000
H336  H     H_    0.510879 0.295124 0.357239 0.000000
H337  H     H_    0.436612 0.329150 0.505728 0.000000
H338  H     H_    0.449545 0.279279 0.579548 0.000000
H339  H     H_    0.515309 0.216663 0.582609 0.000000
H340  H     H_    0.565503 0.207163 0.512316 0.000000
C307  C     C_3   0.564819 0.361433 0.464966 0.000000
N103  N     N_3   0.608670 0.352883 0.433769 0.000000
C308  C     C_3   0.610029 0.388236 0.388338 0.000000
C309  C     C_R   0.652354 0.406988 0.359176 0.000000
N104  N     N_R   0.692786 0.380106 0.364334 0.000000
C310  C     C_R   0.720523 0.401454 0.322992 0.000000
C311  C     C_R   0.761557 0.381252 0.302967 0.000000
C312  C     C_R   0.782334 0.406232 0.257397 0.000000
C313  C     C_R   0.762563 0.451254 0.233374 0.000000
C314  C     C_R   0.719550 0.469336 0.253068 0.000000
C315  C     C_R   0.698860 0.442284 0.297148 0.000000
N105  N     N_R   0.655442 0.447510 0.318458 0.000000
H341  H     H_    0.559371 0.328956 0.496543 0.000000
H342  H     H_    0.560780 0.389298 0.474611 0.000000
H343  H     H_    0.539598 0.371784 0.449339 0.000000
H344  H     H_    0.608859 0.323183 0.432067 0.000000
H345  H     H_    0.606942 0.369282 0.373021 0.000000
H346  H     H_    0.582566 0.418175 0.390193 0.000000
H347  H     H_    0.776615 0.346251 0.321575 0.000000
H348  H     H_    0.814689 0.390859 0.240582 0.000000
H349  H     H_    0.779610 0.470610 0.198116 0.000000
H350  H     H_    0.701997 0.502046 0.233516 0.000000
C316  C     C_3   0.509110 0.490922 0.428337 0.000000
N106  N     N_3   0.524304 0.530731 0.386617 0.000000
C317  C     C_3   0.569721 0.525640 0.379927 0.000000
C318  C     C_R   0.589517 0.563307 0.339024 0.000000
N107  N     N_R   0.606344 0.560713 0.297651 0.000000
C319  C     C_R   0.625104 0.598944 0.270549 0.000000
C320  C     C_R   0.649450 0.612998 0.225374 0.000000
C321  C     C_R   0.665549 0.653841 0.204149 0.000000
C322  C     C_R   0.658240 0.678809 0.228362 0.000000
C323  C     C_R   0.635738 0.662684 0.274520 0.000000
C324  C     C_R   0.619800 0.622404 0.294932 0.000000
N108  N     N_R   0.599100 0.599673 0.339496 0.000000
H351  H     H_    0.473764 0.501154 0.445533 0.000000
H352  H     H_    0.513958 0.461132 0.420982 0.000000
H353  H     H_    0.528068 0.478681 0.451123 0.000000
H354  H     H_    0.506986 0.561424 0.391558 0.000000
H355  H     H_    0.571349 0.530605 0.405996 0.000000
H356  H     H_    0.588228 0.491390 0.378606 0.000000
H357  H     H_    0.656089 0.592962 0.206895 0.000000
H358  H     H_    0.684311 0.666255 0.168433 0.000000
H359  H     H_    0.671286 0.710457 0.211224 0.000000
H360  H     H_    0.631167 0.681065 0.293819 0.000000
C325  C     C_3   0.722596 0.398777 0.206207 0.000000
N109  N     N_3   0.698356 0.446779 0.196233 0.000000
C326  C     C_3   0.659439 0.453484 0.186520 0.000000
C327  C     C_R   0.633796 0.500721 0.180974 0.000000
N110  N     N_R   0.619823 0.520763 0.212125 0.000000
C328  C     C_R   0.600119 0.564168 0.188912 0.000000
C329  C     C_R   0.574904 0.597937 0.205291 0.000000
C330  C     C_R   0.556970 0.640609 0.176766 0.000000
C331  C     C_R   0.563894 0.648487 0.132964 0.000000
C332  C     C_R   0.586811 0.613076 0.117938 0.000000
C333  C     C_R   0.603365 0.570026 0.147042 0.000000
N111  N     N_R   0.623088 0.529419 0.141148 0.000000
H361  H     H_    0.758239 0.398782 0.189736 0.000000
H362  H     H_    0.716630 0.379912 0.243201 0.000000
H363  H     H_    0.712725 0.381130 0.194062 0.000000
H364  H     H_    0.718532 0.469450 0.167911 0.000000
H365  H     H_    0.667475 0.451299 0.155004 0.000000
H366  H     H_    0.639401 0.427111 0.210899 0.000000
H367  H     H_    0.568240 0.591208 0.239794 0.000000
H368  H     H_    0.537520 0.668004 0.188650 0.000000
H369  H     H_    0.550164 0.682240 0.110697 0.000000
H370  H     H_    0.590731 0.620021 0.084217 0.000000
C334  C     C_3   0.465140 0.259394 0.310869 0.000000
N112  N     N_3   0.507712 0.252953 0.313514 0.000000
C335  C     C_3   0.524851 0.295729 0.282037 0.000000
C336  C     C_R   0.530054 0.304066 0.236745 0.000000
N113  N     N_R   0.558181 0.273469 0.217216 0.000000
C337  C     C_R   0.548710 0.292556 0.178280 0.000000
C338  C     C_R   0.566465 0.277766 0.144099 0.000000
C339  C     C_R   0.545583 0.299182 0.111690 0.000000
C340  C     C_R   0.514985 0.340667 0.107692 0.000000
C341  C     C_R   0.502065 0.358927 0.138772 0.000000
C342  C     C_R   0.516870 0.331902 0.175535 0.000000
N114  N     N_R   0.504800 0.340853 0.211583 0.000000
H371  H     H_    0.447593 0.231762 0.341039 0.000000
H372  H     H_    0.445375 0.294322 0.309419 0.000000
H373  H     H_    0.469252 0.255807 0.280737 0.000000
H374  H     H_    0.528382 0.227111 0.301781 0.000000
H375  H     H_    0.502037 0.325565 0.289650 0.000000
H376  H     H_    0.556918 0.292262 0.283804 0.000000
H377  H     H_    0.592601 0.247399 0.145088 0.000000
H378  H     H_    0.553281 0.283922 0.088785 0.000000
H379  H     H_    0.500753 0.358294 0.080705 0.000000
H380  H     H_    0.477827 0.390946 0.136580 0.000000
C343  C     C_3   0.443262 0.258554 0.213714 0.000000
N115  N     N_3   0.436234 0.307747 0.204139 0.000000
C344  C     C_3   0.397283 0.322219 0.236323 0.000000
C345  C     C_R   0.382513 0.374307 0.215563 0.000000
N116  N     N_R   0.407208 0.406161 0.202453 0.000000
C346  C     C_R   0.378418 0.447182 0.191963 0.000000
C347  C     C_R   0.386200 0.491807 0.168722 0.000000
C348  C     C_R   0.350441 0.528717 0.167258 0.000000
C349  C     C_R   0.308076 0.519957 0.187627 0.000000
C350  C     C_R   0.301777 0.474820 0.204779 0.000000
C351  C     C_R   0.338188 0.439866 0.203087 0.000000
N117  N     N_R   0.339901 0.394876 0.214445 0.000000
H381  H     H_    0.469474 0.238359 0.229217 0.000000
H382  H     H_    0.413012 0.243817 0.235682 0.000000
H383  H     H_    0.455902 0.254930 0.181377 0.000000
H384  H     H_    0.432307 0.328091 0.172403 0.000000
H385  H     H_    0.370867 0.305581 0.245418 0.000000
H386  H     H_    0.404109 0.311971 0.267253 0.000000
H387  H     H_    0.419021 0.497909 0.149023 0.000000
H388  H     H_    0.355538 0.564473 0.149702 0.000000
H389  H     H_    0.280295 0.548960 0.186193 0.000000
H390  H     H_    0.269985 0.467699 0.215279 0.000000
C352  C     C_3   0.583400 0.417199 0.045575 0.000000
N118  N     N_3   0.557487 0.445070 0.071911 0.000000
C353  C     C_3   0.569682 0.423591 0.112593 0.000000
C354  C     C_R   0.545238 0.452727 0.138265 0.000000
N119  N     N_R   0.559910 0.492690 0.122342 0.000000
C355  C     C_R   0.522667 0.521112 0.136291 0.000000
C356  C     C_R   0.516615 0.567739 0.125247 0.000000
C357  C     C_R   0.475697 0.590387 0.144312 0.000000
C358  C     C_R   0.442542 0.565182 0.176060 0.000000
C359  C     C_R   0.449380 0.518020 0.186489 0.000000
C360  C     C_R   0.488467 0.498126 0.162376 0.000000
N120  N     N_R   0.501244 0.453728 0.165255 0.000000
H391  H     H_    0.561523 0.410804 0.035297 0.000000
H392  H     H_    0.607739 0.436780 0.014530 0.000000
H393  H     H_    0.600759 0.383035 0.065618 0.000000
H394  H     H_    0.524354 0.445241 0.081223 0.000000
H395  H     H_    0.564672 0.388019 0.132856 0.000000
H396  H     H_    0.604289 0.423637 0.102625 0.000000
H397  H     H_    0.541509 0.586959 0.098573 0.000000
H398  H     H_    0.469906 0.627557 0.135205 0.000000
H399  H     H_    0.411412 0.582335 0.192856 0.000000
H400  H     H_    0.424565 0.497628 0.212762 0.000000
C361  C     C_3   0.202285 0.321445 0.762557 0.000000
N121  N     N_3   0.220089 0.304560 0.727291 0.000000
C362  C     C_3   0.262156 0.318994 0.698182 0.000000
C363  C     C_R   0.285972 0.300946 0.663162 0.000000
N122  N     N_R   0.306562 0.254648 0.676434 0.000000
C364  C     C_R   0.334322 0.253549 0.635772 0.000000
C365  C     C_R   0.365013 0.216914 0.626082 0.000000
C366  C     C_R   0.390618 0.225183 0.581738 0.000000
C367  C     C_R   0.379801 0.266245 0.546989 0.000000
C368  C     C_R   0.347426 0.301716 0.556607 0.000000
C369  C     C_R   0.328151 0.296212 0.600854 0.000000
N123  N     N_R   0.298052 0.328278 0.616030 0.000000
H401  H     H_    0.169701 0.312648 0.784665 0.000000
H402  H     H_    0.224381 0.306174 0.782712 0.000000
H403  H     H_    0.197998 0.359868 0.747335 0.000000
H404  H     H_    0.198358 0.323347 0.708954 0.000000
H405  H     H_    0.258815 0.356534 0.681061 0.000000
H406  H     H_    0.283535 0.303290 0.719080 0.000000
H407  H     H_    0.369340 0.181945 0.650798 0.000000
H408  H     H_    0.417231 0.197887 0.574282 0.000000
H409  H     H_    0.396125 0.270614 0.512338 0.000000
H410  H     H_    0.336293 0.331304 0.529960 0.000000
C370  C     C_3   0.191527 0.309070 0.648976 0.000000
N124  N     N_3   0.203258 0.293214 0.614631 0.000000
C371  C     C_3   0.227143 0.326281 0.573105 0.000000
C372  C     C_R   0.205745 0.375446 0.566854 0.000000
N125  N     N_R   0.164869 0.397069 0.561573 0.000000
C373  C     C_R   0.169354 0.442233 0.535295 0.000000
C374  C     C_R   0.139636 0.479549 0.517179 0.000000
C375  C     C_R   0.152016 0.522731 0.488663 0.000000
C376  C     C_R   0.193890 0.527575 0.478910 0.000000
C377  C     C_R   0.222945 0.489639 0.499000 0.000000
C378  C     C_R   0.209086 0.447587 0.528234 0.000000
N126  N     N_R   0.231454 0.406258 0.551185 0.000000
H411  H     H_    0.218378 0.323164 0.642644 0.000000
H412  H     H_    0.161800 0.336788 0.648094 0.000000
H413  H     H_    0.186257 0.279509 0.682458 0.000000
H414  H     H_    0.174667 0.295655 0.610701 0.000000
H415  H     H_    0.260579 0.319627 0.573007 0.000000
H416  H     H_    0.230633 0.321758 0.543934 0.000000
H417  H     H_    0.107802 0.475156 0.525145 0.000000
H418  H     H_    0.129102 0.552712 0.473604 0.000000
H419  H     H_    0.203622 0.561240 0.456096 0.000000
H420  H     H_    0.255345 0.493152 0.491737 0.000000
C379  C     C_3   0.166754 0.499954 0.595751 0.000000
N127  N     N_3   0.167459 0.450510 0.627023 0.000000
C380  C     C_3   0.201987 0.423823 0.647496 0.000000
C381  C     C_R   0.236641 0.448883 0.626327 0.000000
N128  N     N_R   0.228041 0.487717 0.633525 0.000000
C382  C     C_R   0.250517 0.516521 0.592048 0.000000
C383  C     C_R   0.243455 0.564663 0.573900 0.000000
C384  C     C_R   0.266326 0.587932 0.528650 0.000000
C385  C     C_R   0.294861 0.563137 0.502273 0.000000
C386  C     C_R   0.299541 0.514863 0.520200 0.000000
C387  C     C_R   0.276096 0.492527 0.564914 0.000000
N129  N     N_R   0.268270 0.448601 0.586395 0.000000
H421  H     H_    0.138644 0.513669 0.582931 0.000000
H422  H     H_    0.162692 0.520870 0.612495 0.000000
H423  H     H_    0.196232 0.505599 0.566256 0.000000
H424  H     H_    0.171340 0.432884 0.609224 0.000000
H425  H     H_    0.189485 0.417226 0.683494 0.000000
H426  H     H_    0.214832 0.391261 0.642351 0.000000
H427  H     H_    0.221006 0.584058 0.594028 0.000000
H428  H     H_    0.262016 0.625788 0.513748 0.000000
H429  H     H_    0.312322 0.581915 0.467005 0.000000
H430  H     H_    0.319451 0.496051 0.498939 0.000000
C388  C     C_3   0.632803 0.175582 0.563839 0.000000
N130  N     N_3   0.650490 0.186343 0.515634 0.000000
C389  C     C_3   0.642681 0.237241 0.490369 0.000000
C390  C     C_R   0.661982 0.249874 0.440948 0.000000
N131  N     N_R   0.699554 0.267735 0.419769 0.000000
C391  C     C_R   0.725064 0.245792 0.392122 0.000000
C392  C     C_R   0.767935 0.248215 0.364999 0.000000
C393  C     C_R   0.788323 0.222121 0.339394 0.000000
C394  C     C_R   0.765283 0.195576 0.340465 0.000000
C395  C     C_R   0.721832 0.194358 0.367563 0.000000
C396  C     C_R   0.702469 0.218934 0.394198 0.000000
N132  N     N_R   0.660437 0.224048 0.421990 0.000000
H431  H     H_    0.596793 0.188601 0.573801 0.000000
H432  H     H_    0.639785 0.136979 0.583429 0.000000
H433  H     H_    0.648461 0.192101 0.571823 0.000000
H434  H     H_    0.634176 0.171578 0.509006 0.000000
H435  H     H_    0.608573 0.254418 0.500998 0.000000
H436  H     H_    0.660731 0.251326 0.497575 0.000000
H437  H     H_    0.785824 0.268463 0.364623 0.000000
H438  H     H_    0.822155 0.222998 0.317884 0.000000
H439  H     H_    0.780949 0.176872 0.318870 0.000000
H440  H     H_    0.703036 0.177957 0.364572 0.000000
C397  C     C_3   0.522483 0.135908 0.381283 0.000000
N133  N     N_3   0.536330 0.172913 0.378639 0.000000
C398  C     C_3   0.583797 0.164078 0.361911 0.000000
C399  C     C_R   0.602347 0.207851 0.332942 0.000000
N134  N     N_R   0.622136 0.221800 0.286170 0.000000
C400  C     C_R   0.652934 0.243128 0.277130 0.000000
C401  C     C_R   0.689786 0.252282 0.239646 0.000000
C402  C     C_R   0.719009 0.271941 0.238299 0.000000
C403  C     C_R   0.709828 0.283707 0.273242 0.000000
C404  C     C_R   0.673034 0.272930 0.311095 0.000000
C405  C     C_R   0.647941 0.247796 0.314218 0.000000
N135  N     N_R   0.617005 0.224760 0.351127 0.000000
H441  H     H_    0.540721 0.101730 0.399611 0.000000
H442  H     H_    0.486880 0.137492 0.400374 0.000000
H443  H     H_    0.528977 0.140104 0.346754 0.000000
H444  H     H_    0.527020 0.167625 0.411977 0.000000
H445  H     H_    0.596657 0.142181 0.390718 0.000000
H446  H     H_    0.595000 0.144594 0.341524 0.000000
H447  H     H_    0.697596 0.241849 0.213295 0.000000
H448  H     H_    0.748561 0.279107 0.209481 0.000000
H449  H     H_    0.732283 0.299910 0.271705 0.000000
H450  H     H_    0.664707 0.283751 0.337462 0.000000
C406  C     C_3   0.724138 0.081178 0.410570 0.000000
N136  N     N_3   0.678607 0.105809 0.415967 0.000000
C407  C     C_3   0.655278 0.089600 0.464011 0.000000
C408  C     C_R   0.607056 0.106411 0.473384 0.000000
N137  N     N_R   0.586152 0.152997 0.462922 0.000000
C409  C     C_R   0.543166 0.149729 0.481860 0.000000
C410  C     C_R   0.504442 0.182131 0.487528 0.000000
C411  C     C_R   0.464602 0.170375 0.502156 0.000000
C412  C     C_R   0.463318 0.127106 0.509574 0.000000
C413  C     C_R   0.501637 0.094919 0.507428 0.000000
C414  C     C_R   0.539830 0.105710 0.496951 0.000000
N138  N     N_R   0.578475 0.076006 0.495445 0.000000
H451  H     H_    0.744115 0.095683 0.374290 0.000000
H452  H     H_    0.737376 0.086046 0.430414 0.000000
H453  H     H_    0.726512 0.043171 0.422190 0.000000
H454  H     H_    0.665840 0.094839 0.402479 0.000000
H455  H     H_    0.661782 0.051277 0.477705 0.000000
H456  H     H_    0.666879 0.101303 0.480172 0.000000
H457  H     H_    0.502200 0.215844 0.482498 0.000000
H458  H     H_    0.434448 0.195617 0.506152 0.000000
H459  H     H_    0.432698 0.118228 0.518187 0.000000
H460  H     H_    0.502823 0.061334 0.513533 0.000000
C415  C     C_3   0.202780 0.492915 0.280851 0.000000
N139  N     N_3   0.166395 0.474873 0.289209 0.000000
C416  C     C_3   0.180895 0.436208 0.276151 0.000000
C417  C     C_R   0.203195 0.394239 0.306683 0.000000
N140  N     N_R   0.245611 0.372193 0.291034 0.000000
C418  C     C_R   0.255430 0.342959 0.329416 0.000000
C419  C     C_R   0.294034 0.312054 0.333814 0.000000
C420  C     C_R   0.295512 0.280472 0.376878 0.000000
C421  C     C_R   0.257042 0.276519 0.413283 0.000000
C422  C     C_R   0.218175 0.306959 0.406984 0.000000
C423  C     C_R   0.219315 0.343469 0.365984 0.000000
N141  N     N_R   0.184783 0.375419 0.353290 0.000000
H461  H     H_    0.191076 0.513251 0.301398 0.000000
H462  H     H_    0.230315 0.464320 0.290673 0.000000
H463  H     H_    0.213533 0.517363 0.244679 0.000000
H464  H     H_    0.148449 0.502226 0.268284 0.000000
H465  H     H_    0.152035 0.427189 0.279044 0.000000
H466  H     H_    0.203524 0.446978 0.241288 0.000000
H467  H     H_    0.322322 0.312775 0.304899 0.000000
H468  H     H_    0.325799 0.256263 0.381591 0.000000
H469  H     H_    0.257192 0.248000 0.445927 0.000000
H470  H     H_    0.186798 0.298707 0.430495 0.000000
C424  C     C_3   0.278482 0.193096 0.373403 0.000000
N142  N     N_3   0.300404 0.215349 0.324872 0.000000
C425  C     C_3   0.267878 0.248536 0.302374 0.000000
C426  C     C_R   0.289213 0.265233 0.252797 0.000000
N143  N     N_R   0.308279 0.304174 0.228716 0.000000
C427  C     C_R   0.342954 0.292654 0.196062 0.000000
C428  C     C_R   0.371696 0.320265 0.159258 0.000000
C429  C     C_R   0.403730 0.302059 0.128542 0.000000
C430  C     C_R   0.405745 0.257357 0.134509 0.000000
C431  C     C_R   0.373306 0.232353 0.168975 0.000000
C432  C     C_R   0.342423 0.250963 0.199149 0.000000
N144  N     N_R   0.306399 0.234749 0.232286 0.000000
H471  H     H_    0.280961 0.155476 0.383600 0.000000
H472  H     H_    0.294855 0.195145 0.392166 0.000000
H473  H     H_    0.243699 0.210349 0.382840 0.000000
H474  H     H_    0.315369 0.188840 0.313152 0.000000
H475  H     H_    0.241056 0.232603 0.312151 0.000000
H476  H     H_    0.254376 0.278513 0.311430 0.000000
H477  H     H_    0.369117 0.355391 0.154136 0.000000
H478  H     H_    0.427290 0.322814 0.099742 0.000000
H479  H     H_    0.430310 0.243906 0.109834 0.000000
H480  H     H_    0.370239 0.201310 0.169799 0.000000
C433  C     C_3   0.341602 0.453745 0.097307 0.000000
N145  N     N_3   0.305841 0.472429 0.128475 0.000000
C434  C     C_3   0.264960 0.487748 0.119112 0.000000
C435  C     C_R   0.237182 0.451310 0.147507 0.000000
N146  N     N_R   0.200654 0.452997 0.138882 0.000000
C436  C     C_R   0.186436 0.414698 0.174134 0.000000
C437  C     C_R   0.150983 0.398124 0.183809 0.000000
C438  C     C_R   0.150452 0.351487 0.212716 0.000000
C439  C     C_R   0.185040 0.325081 0.229854 0.000000
C440  C     C_R   0.209622 0.347318 0.231386 0.000000
C441  C     C_R   0.212405 0.391402 0.200536 0.000000
N147  N     N_R   0.245167 0.412745 0.186031 0.000000
H481  H     H_    0.370104 0.436030 0.110027 0.000000
H482  H     H_    0.331835 0.428094 0.094781 0.000000
H483  H     H_    0.351898 0.483195 0.064134 0.000000
H484  H     H_    0.314037 0.503577 0.119545 0.000000
H485  H     H_    0.246053 0.517300 0.129193 0.000000
H486  H     H_    0.272507 0.498953 0.082810 0.000000
H487  H     H_    0.128128 0.417786 0.165263 0.000000
H488  H     H_    0.126059 0.334812 0.218395 0.000000
H489  H     H_    0.189130 0.287819 0.247675 0.000000
H490  H     H_    0.227531 0.330591 0.254258 0.000000
C442  C     C_3   0.508652 0.611745 0.026333 0.000000
N148  N     N_3   0.532136 0.562959 0.039456 0.000000
C443  C     C_3   0.569016 0.557983 0.000662 0.000000
C444  C     C_R   0.605947 0.575279 0.992295 0.000000
N149  N     N_R   0.621683 0.564649 0.026271 0.000000
C445  C     C_R   0.641247 0.601004 0.007391 0.000000
C446  C     C_R   0.664490 0.607758 0.025250 0.000000
C447  C     C_R   0.675472 0.651233 0.004557 0.000000
C448  C     C_R   0.661655 0.686652 0.968061 0.000000
C449  C     C_R   0.640673 0.677685 0.949161 0.000000
C450  C     C_R   0.635310 0.632439 0.966182 0.000000
N150  N     N_R   0.617391 0.614630 0.952429 0.000000
H491  H     H_    0.495322 0.622544 0.999311 0.000000
H492  H     H_    0.480061 0.615323 0.055739 0.000000
H493  H     H_    0.530381 0.635451 0.015281 0.000000
H494  H     H_    0.510530 0.542678 0.048069 0.000000
H495  H     H_    0.577979 0.522024 0.002817 0.000000
H496  H     H_    0.560395 0.584034 0.970555 0.000000
H497  H     H_    0.672196 0.580799 0.055647 0.000000
H498  H     H_    0.692440 0.658511 0.018525 0.000000
H499  H     H_    0.667483 0.721621 0.954064 0.000000
H500  H     H_    0.628575 0.705962 0.922646 0.000000
C451  C     C_3   0.750094 0.491567 0.981977 0.000000
N151  N     N_3   0.702220 0.505405 0.997212 0.000000
C452  C     C_3   0.679553 0.471184 0.005689 0.000000
C453  C     C_R   0.681108 0.432934 0.049267 0.000000
N152  N     N_R   0.714283 0.393048 0.049462 0.000000
C454  C     C_R   0.735116 0.391994 0.073481 0.000000
C455  C     C_R   0.774428 0.363771 0.078930 0.000000
C456  C     C_R   0.796180 0.376066 0.094368 0.000000
C457  C     C_R   0.779737 0.417576 0.100304 0.000000
C458  C     C_R   0.738730 0.443912 0.096854 0.000000
C459  C     C_R   0.714390 0.427438 0.088282 0.000000
N153  N     N_R   0.676041 0.450429 0.078660 0.000000
H501  H     H_    0.763518 0.487979 0.006238 0.000000
H502  H     H_    0.760929 0.458404 0.977829 0.000000
H503  H     H_    0.764007 0.519802 0.949243 0.000000
H504  H     H_    0.693950 0.537562 0.972267 0.000000
H505  H     H_    0.644915 0.486927 0.008710 0.000000
H506  H     H_    0.694155 0.459022 0.979121 0.000000
H507  H     H_    0.789026 0.334755 0.068928 0.000000
H508  H     H_    0.827816 0.355474 0.098219 0.000000
H509  H     H_    0.799161 0.429482 0.107729 0.000000
H510  H     H_    0.727392 0.477839 0.098167 0.000000
C460  C     C_3   0.846125 0.426890 0.281507 0.000000
N154  N     N_3   0.834836 0.381349 0.316041 0.000000
C461  C     C_3   0.816245 0.382874 0.360022 0.000000
C462  C     C_R   0.814576 0.334222 0.397594 0.000000
N155  N     N_R   0.781041 0.309829 0.414785 0.000000
C463  C     C_R   0.799049 0.266232 0.440488 0.000000
C464  C     C_R   0.784418 0.224910 0.461406 0.000000
C465  C     C_R   0.807991 0.184173 0.486380 0.000000
C466  C     C_R   0.845946 0.184834 0.489773 0.000000
C467  C     C_R   0.861338 0.226135 0.467223 0.000000
C468  C     C_R   0.837839 0.265897 0.442035 0.000000
N156  N     N_R   0.848905 0.308253 0.416086 0.000000
H511  H     H_    0.863885 0.425065 0.248036 0.000000
H512  H     H_    0.815677 0.454152 0.279876 0.000000
H513  H     H_    0.867138 0.437516 0.289117 0.000000
H514  H     H_    0.862186 0.354456 0.315315 0.000000
H515  H     H_    0.837728 0.398609 0.361629 0.000000
H516  H     H_    0.783264 0.405391 0.362291 0.000000
H517  H     H_    0.755120 0.223466 0.459477 0.000000
H518  H     H_    0.796496 0.151542 0.503670 0.000000
H519  H     H_    0.863812 0.152836 0.509715 0.000000
H520  H     H_    0.891134 0.226818 0.469172 0.000000
C469  C     C_3   0.661073 0.488039 0.398437 0.000000
N157  N     N_3   0.635004 0.458851 0.442381 0.000000
C470  C     C_3   0.644435 0.414939 0.441491 0.000000
C471  C     C_R   0.645397 0.372902 0.484726 0.000000
N158  N     N_R   0.632256 0.372136 0.527684 0.000000
C472  C     C_R   0.651641 0.328641 0.550504 0.000000
C473  C     C_R   0.656831 0.312631 0.591563 0.000000
C474  C     C_R   0.681197 0.268190 0.608425 0.000000
C475  C     C_R   0.701350 0.241767 0.583055 0.000000
C476  C     C_R   0.699653 0.260721 0.539634 0.000000
C477  C     C_R   0.674855 0.304753 0.523503 0.000000
N159  N     N_R   0.672600 0.332121 0.480874 0.000000
H521  H     H_    0.648981 0.525190 0.393122 0.000000
H522  H     H_    0.695577 0.477508 0.397613 0.000000
H523  H     H_    0.659463 0.484291 0.370576 0.000000
H524  H     H_    0.602036 0.469784 0.446112 0.000000
H525  H     H_    0.618063 0.418813 0.431748 0.000000
H526  H     H_    0.676945 0.410714 0.416770 0.000000
H527  H     H_    0.642740 0.334376 0.609982 0.000000
H528  H     H_    0.684756 0.254127 0.641318 0.000000
H529  H     H_    0.719792 0.206642 0.596678 0.000000
H530  H     H_    0.715703 0.240121 0.520450 0.000000
C478  C     C_3   0.724244 0.081689 0.307652 0.000000
N160  N     N_3   0.678074 0.081557 0.320589 0.000000
C479  C     C_3   0.666363 0.108874 0.279430 0.000000
C480  C     C_R   0.619710 0.111572 0.286090 0.000000
N161  N     N_R   0.608360 0.073887 0.290301 0.000000
C481  C     C_R   0.588284 0.094859 0.258885 0.000000
C482  C     C_R   0.586610 0.074732 0.235182 0.000000
C483  C     C_R   0.569087 0.103082 0.200090 0.000000
C484  C     C_R   0.553363 0.150605 0.190012 0.000000
C485  C     C_R   0.558799 0.170130 0.212357 0.000000
C486  C     C_R   0.580148 0.141988 0.243568 0.000000
N162  N     N_R   0.600018 0.154527 0.259319 0.000000
H531  H     H_    0.736133 0.057869 0.337093 0.000000
H532  H     H_    0.744402 0.069421 0.280174 0.000000
H533  H     H_    0.728313 0.117725 0.296067 0.000000
H534  H     H_    0.661016 0.100510 0.340402 0.000000
H535  H     H_    0.671670 0.145133 0.264413 0.000000
H536  H     H_    0.688130 0.093167 0.254773 0.000000
H537  H     H_    0.602356 0.038836 0.241001 0.000000
H538  H     H_    0.567282 0.088108 0.180854 0.000000
H539  H     H_    0.537877 0.172694 0.163949 0.000000
H540  H     H_    0.544165 0.205390 0.207964 0.000000
C487  C     C_3   0.627872 0.358918 0.196508 0.000000
N163  N     N_3   0.627840 0.322630 0.186278 0.000000
C488  C     C_3   0.661819 0.325768 0.143670 0.000000
C489  C     C_R   0.674129 0.282717 0.136135 0.000000
N164  N     N_R   0.661542 0.240165 0.169423 0.000000
C490  C     C_R   0.689325 0.210520 0.149524 0.000000
C491  C     C_R   0.690771 0.163682 0.164796 0.000000
C492  C     C_R   0.724568 0.139328 0.140397 0.000000
C493  C     C_R   0.756699 0.161775 0.101969 0.000000
C494  C     C_R   0.753321 0.209560 0.085657 0.000000
C495  C     C_R   0.717459 0.233656 0.108210 0.000000
N165  N     N_R   0.706694 0.280235 0.096725 0.000000
H541  H     H_    0.596505 0.364385 0.222921 0.000000
H542  H     H_    0.655489 0.348442 0.208949 0.000000
H543  H     H_    0.630710 0.392345 0.165762 0.000000
H544  H     H_    0.599484 0.334755 0.178188 0.000000
H545  H     H_    0.649935 0.354958 0.115871 0.000000
H546  H     H_    0.691393 0.330696 0.143780 0.000000
H547  H     H_    0.665907 0.146293 0.193793 0.000000
H548  H     H_    0.726589 0.102247 0.152105 0.000000
H549  H     H_    0.784258 0.141944 0.084465 0.000000
H550  H     H_    0.779313 0.226749 0.057536 0.000000
C496  C     C_3   0.266173 0.911348 0.455602 0.000000
N166  N     N_3   0.269643 0.956802 0.447597 0.000000
C497  C     C_3   0.312535 0.953494 0.446998 0.000000
C498  C     C_R   0.317671 0.999857 0.438059 0.000000
N167  N     N_R   0.351048 0.021756 0.400815 0.000000
C499  C     C_R   0.346798 0.058639 0.407837 0.000000
C500  C     C_R   0.368445 0.095126 0.379772 0.000000
C501  C     C_R   0.365765 0.123932 0.397853 0.000000
C502  C     C_R   0.345795 0.111968 0.443854 0.000000
C503  C     C_R   0.322193 0.076399 0.469761 0.000000
C504  C     C_R   0.316507 0.056497 0.448493 0.000000
N168  N     N_R   0.293563 0.022478 0.467485 0.000000
H551  H     H_    0.231954 0.912576 0.460348 0.000000
H552  H     H_    0.288561 0.903240 0.425850 0.000000
H553  H     H_    0.274431 0.883648 0.486616 0.000000
H554  H     H_    0.248070 0.963392 0.475740 0.000000
H555  H     H_    0.316912 0.927080 0.479815 0.000000
H556  H     H_    0.338211 0.941988 0.420475 0.000000
H557  H     H_    0.387002 0.100714 0.345202 0.000000
H558  H     H_    0.381237 0.154003 0.377177 0.000000
H559  H     H_    0.348712 0.130338 0.459399 0.000000
H560  H     H_    0.311983 0.061791 0.505977 0.000000
C505  C     C_3   0.175296 0.193676 0.501442 0.000000
N169  N     N_3   0.166903 0.149495 0.512193 0.000000
C506  C     C_3   0.181743 0.145235 0.469930 0.000000
C507  C     C_R   0.161176 0.110345 0.476693 0.000000
N170  N     N_R   0.176350 0.061597 0.495706 0.000000
C508  C     C_R   0.149515 0.046975 0.488663 0.000000
C509  C     C_R   0.153259 0.003712 0.491100 0.000000
C510  C     C_R   0.123052 0.997339 0.480446 0.000000
C511  C     C_R   0.090137 0.034253 0.466123 0.000000
C512  C     C_R   0.088853 0.078581 0.459754 0.000000
C513  C     C_R   0.119568 0.084154 0.469733 0.000000
N171  N     N_R   0.127315 0.125135 0.459359 0.000000
H561  H     H_    0.173107 0.192980 0.533092 0.000000
H562  H     H_    0.208321 0.198322 0.476240 0.000000
H563  H     H_    0.151097 0.223323 0.487032 0.000000
H564  H     H_    0.133142 0.150752 0.526662 0.000000
H565  H     H_    0.171669 0.179317 0.444066 0.000000
H566  H     H_    0.217699 0.135006 0.456814 0.000000
H567  H     H_    0.179502 0.975306 0.499367 0.000000
H568  H     H_    0.125365 0.963179 0.483109 0.000000
H569  H     H_    0.066404 0.028689 0.458448 0.000000
H570  H     H_    0.063846 0.107820 0.448351 0.000000
C514  C     C_3   0.542156 0.837522 0.577747 0.000000
N172  N     N_3   0.582156 0.846556 0.572313 0.000000
C515  C     C_3   0.571595 0.893336 0.568637 0.000000
C516  C     C_R   0.609263 0.905032 0.565334 0.000000
N173  N     N_R   0.645914 0.872203 0.575271 0.000000
C517  C     C_R   0.672053 0.900283 0.564193 0.000000
C518  C     C_R   0.715416 0.888399 0.561262 0.000000
C519  C     C_R   0.733979 0.922478 0.554149 0.000000
C520  C     C_R   0.708904 0.966844 0.550794 0.000000
C521  C     C_R   0.666191 0.978958 0.550496 0.000000
C522  C     C_R   0.649924 0.946121 0.553230 0.000000
N174  N     N_R   0.610697 0.951094 0.550531 0.000000
H571  H     H_    0.549240 0.810497 0.565776 0.000000
H572  H     H_    0.524502 0.821776 0.612929 0.000000
H573  H     H_    0.521091 0.870929 0.562293 0.000000
H574  H     H_    0.602575 0.850422 0.539910 0.000000
H575  H     H_    0.565760 0.917480 0.535773 0.000000
H576  H     H_    0.544742 0.896556 0.598940 0.000000
H577  H     H_    0.734370 0.853564 0.564789 0.000000
H578  H     H_    0.767720 0.913952 0.552943 0.000000
H579  H     H_    0.723028 0.992293 0.547828 0.000000
H580  H     H_    0.645809 0.012439 0.550011 0.000000
C523  C     C_3   0.571393 0.093353 0.590436 0.000000
N175  N     N_3   0.553398 0.064967 0.584988 0.000000
C524  C     C_3   0.506629 0.070237 0.609465 0.000000
C525  C     C_R   0.488375 0.034189 0.613870 0.000000
N176  N     N_R   0.508323 0.011846 0.584572 0.000000
C526  C     C_R   0.479212 0.986095 0.599181 0.000000
C527  C     C_R   0.478925 0.961923 0.578947 0.000000
C528  C     C_R   0.441734 0.946198 0.593522 0.000000
C529  C     C_R   0.411257 0.944291 0.634607 0.000000
C530  C     C_R   0.414720 0.963685 0.657817 0.000000
C531  C     C_R   0.445723 0.990167 0.635863 0.000000
N177  N     N_R   0.449641 0.019924 0.647449 0.000000
H581  H     H_    0.605874 0.094060 0.567672 0.000000
H582  H     H_    0.551941 0.129726 0.581357 0.000000
H583  H     H_    0.570831 0.077908 0.626022 0.000000
H584  H     H_    0.568304 0.030022 0.599548 0.000000
H585  H     H_    0.501622 0.065416 0.643198 0.000000
H586  H     H_    0.489210 0.105841 0.591743 0.000000
H587  H     H_    0.504363 0.959965 0.549351 0.000000
H588  H     H_    0.438322 0.932255 0.574611 0.000000
H589  H     H_    0.387019 0.923610 0.650395 0.000000
H590  H     H_    0.393554 0.958065 0.691491 0.000000
C532  C     C_3   0.692960 0.966498 0.426940 0.000000
N178  N     N_3   0.646803 0.978882 0.450407 0.000000
C533  C     C_3   0.626083 0.013764 0.416505 0.000000
C534  C     C_R   0.579750 0.010523 0.432675 0.000000
N179  N     N_R   0.561866 0.011232 0.405186 0.000000
C535  C     C_R   0.519556 0.011841 0.430584 0.000000
C536  C     C_R   0.489239 0.000170 0.425875 0.000000
C537  C     C_R   0.445924 0.010071 0.449967 0.000000
C538  C     C_R   0.434887 0.028804 0.479940 0.000000
C539  C     C_R   0.466825 0.029180 0.491957 0.000000
C540  C     C_R   0.510983 0.017086 0.468285 0.000000
N180  N     N_R   0.549602 0.012494 0.473262 0.000000
H591  H     H_    0.711249 0.949016 0.451404 0.000000
H592  H     H_    0.697448 0.942744 0.412108 0.000000
H593  H     H_    0.705658 0.998585 0.399854 0.000000
H594  H     H_    0.645513 0.996834 0.467349 0.000000
H595  H     H_    0.626787 0.049014 0.410450 0.000000
H596  H     H_    0.642876 0.008308 0.384810 0.000000
H597  H     H_    0.499208 0.983306 0.404172 0.000000
H598  H     H_    0.420834 0.006794 0.442689 0.000000
H599  H     H_    0.401109 0.040916 0.496270 0.000000
H600  H     H_    0.454017 0.038926 0.519699 0.000000
C541  C     C_3   0.530775 0.744941 0.276356 0.000000
N181  N     N_3   0.523171 0.717429 0.324796 0.000000
C542  C     C_3   0.534668 0.741148 0.341378 0.000000
C543  C     C_R   0.524260 0.715285 0.391444 0.000000
N182  N     N_R   0.492800 0.734070 0.422661 0.000000
C544  C     C_R   0.491473 0.696072 0.462088 0.000000
C545  C     C_R   0.466401 0.694068 0.504724 0.000000
C546  C     C_R   0.478600 0.657835 0.541350 0.000000
C547  C     C_R   0.516479 0.625334 0.534248 0.000000
C548  C     C_R   0.538639 0.625914 0.491551 0.000000
C549  C     C_R   0.523684 0.659423 0.455824 0.000000
N183  N     N_R   0.544408 0.668657 0.411004 0.000000
H601  H     H_    0.527082 0.724775 0.262127 0.000000
H602  H     H_    0.506432 0.778496 0.270356 0.000000
H603  H     H_    0.564497 0.752363 0.259160 0.000000
H604  H     H_    0.544453 0.684944 0.329326 0.000000
H605  H     H_    0.570300 0.741733 0.325629 0.000000
H606  H     H_    0.515208 0.777179 0.332630 0.000000
H607  H     H_    0.437823 0.719642 0.510177 0.000000
H608  H     H_    0.459871 0.656396 0.575089 0.000000
H609  H     H_    0.528491 0.599058 0.562189 0.000000
H610  H     H_    0.569551 0.603909 0.486133 0.000000
C550  C     C_3   0.675720 0.536054 0.528430 0.000000
N184  N     N_3   0.639480 0.544253 0.514391 0.000000
C551  C     C_3   0.653680 0.529893 0.478004 0.000000
C552  C     C_R   0.615014 0.522241 0.477874 0.000000
N185  N     N_R   0.595513 0.485004 0.512421 0.000000
C553  C     C_R   0.554555 0.499038 0.509974 0.000000
C554  C     C_R   0.520268 0.475454 0.536843 0.000000
C555  C     C_R   0.480469 0.497762 0.528533 0.000000
C556  C     C_R   0.476202 0.541704 0.492873 0.000000
C557  C     C_R   0.511879 0.563699 0.464748 0.000000
C558  C     C_R   0.550851 0.541327 0.474136 0.000000
N186  N     N_R   0.589774 0.555727 0.450703 0.000000
H611  H     H_    0.686806 0.498743 0.546210 0.000000
H612  H     H_    0.703459 0.549906 0.499115 0.000000
H613  H     H_    0.664492 0.552970 0.551764 0.000000
H614  H     H_    0.626235 0.579578 0.503667 0.000000
H615  H     H_    0.668621 0.556452 0.445164 0.000000
H616  H     H_    0.676334 0.496309 0.485244 0.000000
H617  H     H_    0.523697 0.440899 0.563669 0.000000
H618  H     H_    0.452264 0.481186 0.550277 0.000000
H619  H     H_    0.444957 0.558491 0.486736 0.000000
H620  H     H_    0.509182 0.596895 0.435940 0.000000
C559  C     C_3   0.730144 0.554825 0.284835 0.000000
N187  N     N_3   0.707628 0.567977 0.322987 0.000000
C560  C     C_3   0.723287 0.607759 0.311828 0.000000
C561  C     C_R   0.706084 0.619419 0.351490 0.000000
N188  N     N_R   0.661090 0.631198 0.373364 0.000000
C562  C     C_R   0.662478 0.647586 0.399389 0.000000
C563  C     C_R   0.628318 0.666614 0.427402 0.000000
C564  C     C_R   0.635045 0.663094 0.463483 0.000000
C565  C     C_R   0.675718 0.641621 0.469150 0.000000
C566  C     C_R   0.710862 0.632667 0.435332 0.000000
C567  C     C_R   0.703976 0.638844 0.398855 0.000000
N189  N     N_R   0.733937 0.623451 0.367421 0.000000
H621  H     H_    0.713134 0.530200 0.289056 0.000000
H622  H     H_    0.729905 0.586303 0.252550 0.000000
H623  H     H_    0.764581 0.537066 0.283939 0.000000
H624  H     H_    0.720482 0.541299 0.348476 0.000000
H625  H     H_    0.758613 0.597173 0.303428 0.000000
H626  H     H_    0.714676 0.638750 0.282560 0.000000
H627  H     H_    0.597650 0.684104 0.421839 0.000000
H628  H     H_    0.607687 0.671377 0.489920 0.000000
H629  H     H_    0.681015 0.631001 0.500127 0.000000
H630  H     H_    0.741995 0.616616 0.440314 0.000000
C568  C     C_3   0.247945 0.095255 0.821433 0.000000
N190  N     N_3   0.271996 0.073602 0.789822 0.000000
C569  C     C_3   0.317022 0.062368 0.787798 0.000000
C570  C     C_R   0.343686 0.094629 0.745222 0.000000
N191  N     N_R   0.386208 0.074129 0.726888 0.000000
C571  C     C_R   0.409447 0.104356 0.716711 0.000000
C572  C     C_R   0.453934 0.097967 0.705131 0.000000
C573  C     C_R   0.471077 0.135646 0.692520 0.000000
C574  C     C_R   0.443386 0.178227 0.692198 0.000000
C575  C     C_R   0.398211 0.182268 0.708054 0.000000
C576  C     C_R   0.382054 0.143522 0.722997 0.000000
N192  N     N_R   0.339492 0.139843 0.739648 0.000000
H631  H     H_    0.213604 0.109280 0.822062 0.000000
H632  H     H_    0.248174 0.069095 0.856229 0.000000
H633  H     H_    0.263659 0.124358 0.809824 0.000000
H634  H     H_    0.270114 0.098649 0.757843 0.000000
H635  H     H_    0.319389 0.063580 0.816716 0.000000
H636  H     H_    0.331612 0.026345 0.790939 0.000000
H637  H     H_    0.474403 0.063816 0.708594 0.000000
H638  H     H_    0.506207 0.132080 0.682403 0.000000
H639  H     H_    0.457137 0.208044 0.680559 0.000000
H640  H     H_    0.376349 0.215245 0.707096 0.000000
C577  C     C_3   0.104552 0.250385 0.855526 0.000000
N193  N     N_3   0.120486 0.240810 0.815607 0.000000
C578  C     C_3   0.161688 0.208255 0.815432 0.000000
C579  C     C_R   0.181108 0.199890 0.774009 0.000000
N194  N     N_R   0.155995 0.196439 0.755046 0.000000
C580  C     C_R   0.187961 0.189648 0.718701 0.000000
C581  C     C_R   0.183208 0.186378 0.685272 0.000000
C582  C     C_R   0.217361 0.191518 0.645743 0.000000
C583  C     C_R   0.258696 0.190143 0.643292 0.000000
C584  C     C_R   0.264647 0.184864 0.680742 0.000000
C585  C     C_R   0.228217 0.188890 0.716220 0.000000
N195  N     N_R   0.226325 0.195117 0.750520 0.000000
H641  H     H_    0.125302 0.271126 0.851713 0.000000
H642  H     H_    0.070264 0.270463 0.860038 0.000000
H643  H     H_    0.105458 0.217068 0.886200 0.000000
H644  H     H_    0.129597 0.271188 0.787346 0.000000
H645  H     H_    0.183904 0.225966 0.813003 0.000000
H646  H     H_    0.157073 0.174560 0.845799 0.000000
H647  H     H_    0.153683 0.181093 0.688737 0.000000
H648  H     H_    0.210483 0.197467 0.617033 0.000000
H649  H     H_    0.286051 0.193383 0.612393 0.000000
H650  H     H_    0.296501 0.179563 0.681592 0.000000
C586  C     C_3   0.354286 0.147535 0.860255 0.000000
N196  N     N_3   0.360434 0.167034 0.812124 0.000000
C587  C     C_3   0.354823 0.217955 0.793120 0.000000
C588  C     C_R   0.307657 0.240164 0.796056 0.000000
N197  N     N_R   0.284922 0.262097 0.825507 0.000000
C589  C     C_R   0.250787 0.240587 0.852821 0.000000
C590  C     C_R   0.222211 0.243125 0.893043 0.000000
C591  C     C_R   0.193237 0.212676 0.920373 0.000000
C592  C     C_R   0.195236 0.179319 0.907813 0.000000
C593  C     C_R   0.224792 0.177387 0.867125 0.000000
C594  C     C_R   0.250530 0.210998 0.837806 0.000000
N198  N     N_R   0.283345 0.214820 0.797589 0.000000
H651  H     H_    0.381287 0.152514 0.864987 0.000000
H652  H     H_    0.322135 0.164361 0.877888 0.000000
H653  H     H_    0.355048 0.109322 0.875292 0.000000
H654  H     H_    0.393108 0.154131 0.796917 0.000000
H655  H     H_    0.364370 0.227730 0.812254 0.000000
H656  H     H_    0.377308 0.229941 0.758173 0.000000
H657  H     H_    0.223934 0.266164 0.904302 0.000000
H658  H     H_    0.170538 0.213271 0.952589 0.000000
H659  H     H_    0.173822 0.154092 0.930281 0.000000
H660  H     H_    0.226107 0.150274 0.859661 0.000000
C595  C     C_3   0.203599 0.274189 0.523571 0.000000
N199  N     N_3   0.178429 0.305808 0.492760 0.000000
C596  C     C_3   0.172818 0.354371 0.483239 0.000000
C597  C     C_R   0.126834 0.379595 0.484715 0.000000
N200  N     N_R   0.108001 0.392127 0.452359 0.000000
C598  C     C_R   0.071752 0.423770 0.462873 0.000000
C599  C     C_R   0.037027 0.444904 0.446400 0.000000
C600  C     C_R   0.008536 0.483507 0.453975 0.000000
C601  C     C_R   0.014007 0.498883 0.479603 0.000000
C602  C     C_R   0.044664 0.472521 0.501895 0.000000
C603  C     C_R   0.070932 0.432020 0.496164 0.000000
N201  N     N_R   0.102010 0.400110 0.515227 0.000000
H661  H     H_    0.208653 0.237915 0.528262 0.000000
H662  H     H_    0.236611 0.282876 0.508344 0.000000
H663  H     H_    0.185489 0.275521 0.556976 0.000000
H664  H     H_    0.148449 0.297256 0.503619 0.000000
H665  H     H_    0.179855 0.356392 0.508914 0.000000
H666  H     H_    0.195760 0.371913 0.449293 0.000000
H667  H     H_    0.031185 0.432065 0.428463 0.000000
H668  H     H_    0.982845 0.502610 0.438713 0.000000
H669  H     H_    0.992712 0.530179 0.484255 0.000000
H670  H     H_    0.046309 0.484667 0.523118 0.000000
C604  C     C_3   0.040393 0.319377 0.773733 0.000000
N202  N     N_3   0.048236 0.300718 0.741984 0.000000
C605  C     C_3   0.087598 0.311403 0.703958 0.000000
C606  C     C_R   0.093482 0.290124 0.674870 0.000000
N203  N     N_R   0.091898 0.243697 0.693243 0.000000
C607  C     C_R   0.092258 0.239313 0.658158 0.000000
C608  C     C_R   0.095512 0.199084 0.655462 0.000000
C609  C     C_R   0.100341 0.201218 0.615047 0.000000
C610  C     C_R   0.098994 0.243967 0.578907 0.000000
C611  C     C_R   0.092202 0.284969 0.582680 0.000000
C612  C     C_R   0.093151 0.281213 0.621400 0.000000
N204  N     N_R   0.095963 0.314640 0.629445 0.000000
H671  H     H_    0.016973 0.302864 0.806697 0.000000
H672  H     H_    0.070229 0.313283 0.779779 0.000000
H673  H     H_    0.025819 0.356486 0.762255 0.000000
H674  H     H_    0.023074 0.316579 0.728237 0.000000
H675  H     H_    0.083395 0.348632 0.682310 0.000000
H676  H     H_    0.115419 0.296870 0.717015 0.000000
H677  H     H_    0.099455 0.165845 0.681681 0.000000
H678  H     H_    0.105958 0.169445 0.611401 0.000000
H679  H     H_    0.104915 0.244467 0.547143 0.000000
H680  H     H_    0.087631 0.318364 0.555586 0.000000
C613  C     C_3   0.107558 0.390270 0.714935 0.000000
N205  N     N_3   0.069071 0.410158 0.700774 0.000000
C614  C     C_3   0.082846 0.438893 0.653062 0.000000
C615  C     C_R   0.050271 0.447887 0.634877 0.000000
N206  N     N_R   0.057456 0.425331 0.609184 0.000000
C616  C     C_R   0.017843 0.433775 0.607643 0.000000
C617  C     C_R   0.005866 0.410970 0.593527 0.000000
C618  C     C_R   0.966126 0.429053 0.586703 0.000000
C619  C     C_R   0.938764 0.465194 0.599062 0.000000
C620  C     C_R   0.948099 0.480432 0.622929 0.000000
C621  C     C_R   0.989368 0.464641 0.626420 0.000000
N207  N     N_R   0.008256 0.472164 0.647779 0.000000
H681  H     H_    0.098935 0.371264 0.751819 0.000000
H682  H     H_    0.131786 0.366637 0.699038 0.000000
H683  H     H_    0.122110 0.418865 0.704418 0.000000
H684  H     H_    0.045278 0.430242 0.717770 0.000000
H685  H     H_    0.087754 0.472674 0.645902 0.000000
H686  H     H_    0.110491 0.417603 0.636502 0.000000
H687  H     H_    0.028018 0.382134 0.584902 0.000000
H688  H     H_    0.956078 0.415102 0.572138 0.000000
H689  H     H_    0.908445 0.477246 0.593023 0.000000
H690  H     H_    0.922855 0.499213 0.641903 0.000000
C622  C     C_3   0.709603 0.534436 0.894717 0.000000
N208  N     N_3   0.674506 0.513928 0.905921 0.000000
C623  C     C_3   0.660938 0.538804 0.866223 0.000000
C624  C     C_R   0.615631 0.540316 0.881064 0.000000
N209  N     N_R   0.597623 0.501180 0.900087 0.000000
C625  C     C_R   0.558817 0.513049 0.928886 0.000000
C626  C     C_R   0.528209 0.485374 0.961373 0.000000
C627  C     C_R   0.488250 0.506177 0.983848 0.000000
C628  C     C_R   0.479600 0.553716 0.973467 0.000000
C629  C     C_R   0.511676 0.580348 0.942391 0.000000
C630  C     C_R   0.552110 0.558647 0.921915 0.000000
N210  N     N_R   0.589506 0.575983 0.894242 0.000000
H691  H     H_    0.732459 0.509341 0.913178 0.000000
H692  H     H_    0.728715 0.543442 0.858637 0.000000
H693  H     H_    0.694418 0.563857 0.904647 0.000000
H694  H     H_    0.648716 0.522150 0.931874 0.000000
H695  H     H_    0.661690 0.574681 0.852803 0.000000
H696  H     H_    0.680231 0.527281 0.839162 0.000000
H697  H     H_    0.535026 0.448372 0.969976 0.000000
H698  H     H_    0.463437 0.485371 0.009305 0.000000
H699  H     H_    0.448052 0.569750 0.990861 0.000000
H700  H     H_    0.505743 0.616641 0.936026 0.000000
C631  C     C_3   0.604090 0.674997 0.750219 0.000000
N211  N     N_3   0.628203 0.648028 0.782235 0.000000
C632  C     C_3   0.671198 0.659949 0.757306 0.000000
C633  C     C_R   0.697055 0.640458 0.787863 0.000000
N212  N     N_R   0.679939 0.642375 0.830074 0.000000
C634  C     C_R   0.717987 0.635398 0.836731 0.000000
C635  C     C_R   0.723633 0.636892 0.870942 0.000000
C636  C     C_R   0.763979 0.617082 0.877973 0.000000
C637  C     C_R   0.797190 0.593765 0.852181 0.000000
C638  C     C_R   0.791708 0.595220 0.815992 0.000000
C639  C     C_R   0.753706 0.621350 0.805807 0.000000
N213  N     N_R   0.742345 0.626048 0.772833 0.000000
H701  H     H_    0.577465 0.657663 0.760178 0.000000
H702  H     H_    0.590727 0.710304 0.750127 0.000000
H703  H     H_    0.625969 0.678317 0.715590 0.000000
H704  H     H_    0.631788 0.612637 0.790991 0.000000
H705  H     H_    0.689196 0.645396 0.731424 0.000000
H706  H     H_    0.667673 0.698735 0.740760 0.000000
H707  H     H_    0.697666 0.653208 0.891262 0.000000
H708  H     H_    0.768580 0.617107 0.905568 0.000000
H709  H     H_    0.827375 0.574607 0.860225 0.000000
H710  H     H_    0.815650 0.574504 0.797680 0.000000
C640  C     C_3   0.453936 0.654827 0.859126 0.000000
N214  N     N_3   0.468413 0.687339 0.862998 0.000000
C641  C     C_3   0.515932 0.681238 0.842823 0.000000
C642  C     C_R   0.532900 0.711488 0.848246 0.000000
N215  N     N_R   0.519019 0.759943 0.831202 0.000000
C643  C     C_R   0.547887 0.773550 0.835776 0.000000
C644  C     C_R   0.552090 0.818562 0.821336 0.000000
C645  C     C_R   0.588172 0.824567 0.823447 0.000000
C646  C     C_R   0.621436 0.786507 0.835087 0.000000
C647  C     C_R   0.617257 0.741756 0.847932 0.000000
C648  C     C_R   0.578603 0.735846 0.851746 0.000000
N216  N     N_R   0.569634 0.695373 0.861929 0.000000
H711  H     H_    0.478418 0.644812 0.831113 0.000000
H712  H     H_    0.449160 0.622885 0.891392 0.000000
H713  H     H_    0.422515 0.672008 0.851606 0.000000
H714  H     H_    0.460168 0.678565 0.897399 0.000000
H715  H     H_    0.531883 0.644247 0.857055 0.000000
H716  H     H_    0.524596 0.692146 0.806600 0.000000
H717  H     H_    0.528770 0.848685 0.808191 0.000000
H718  H     H_    0.591777 0.859522 0.813202 0.000000
H719  H     H_    0.651010 0.791916 0.833458 0.000000
H720  H     H_    0.643903 0.712351 0.854405 0.000000
C649  C     C_3   0.339134 0.548750 0.586732 0.000000
N217  N     N_3   0.303301 0.572508 0.614271 0.000000
C650  C     C_3   0.281076 0.537682 0.656509 0.000000
C651  C     C_R   0.238971 0.560063 0.680967 0.000000
N218  N     N_R   0.236930 0.590997 0.695719 0.000000
C652  C     C_R   0.193453 0.607107 0.710637 0.000000
C653  C     C_R   0.172834 0.637946 0.731061 0.000000
C654  C     C_R   0.127501 0.645121 0.749262 0.000000
C655  C     C_R   0.104141 0.620421 0.748162 0.000000
C656  C     C_R   0.125689 0.588502 0.728569 0.000000
C657  C     C_R   0.170582 0.583129 0.709057 0.000000
N219  N     N_R   0.198609 0.551955 0.691204 0.000000
H721  H     H_    0.356569 0.575063 0.554556 0.000000
H722  H     H_    0.362353 0.522755 0.605463 0.000000
H723  H     H_    0.327042 0.529713 0.578307 0.000000
H724  H     H_    0.281397 0.596638 0.596749 0.000000
H725  H     H_    0.273844 0.514055 0.649706 0.000000
H726  H     H_    0.302452 0.517845 0.677599 0.000000
H727  H     H_    0.191359 0.655255 0.733787 0.000000
H728  H     H_    0.110239 0.669129 0.765580 0.000000
H729  H     H_    0.068820 0.625476 0.763580 0.000000
H730  H     H_    0.107397 0.568217 0.729626 0.000000
C658  C     C_3   0.092622 0.382660 0.827731 0.000000
N220  N     N_3   0.105849 0.423350 0.785668 0.000000
C659  C     C_3   0.067609 0.452206 0.771354 0.000000
C660  C     C_R   0.078138 0.487128 0.722623 0.000000
N221  N     N_R   0.115104 0.508390 0.699812 0.000000
C661  C     C_R   0.100383 0.548854 0.668323 0.000000
C662  C     C_R   0.120515 0.586944 0.638856 0.000000
C663  C     C_R   0.099759 0.625645 0.609489 0.000000
C664  C     C_R   0.059231 0.626029 0.610491 0.000000
C665  C     C_R   0.039388 0.587425 0.640464 0.000000
C666  C     C_R   0.060619 0.549164 0.668747 0.000000
N222  N     N_R   0.045426 0.509676 0.701295 0.000000
H731  H     H_    0.121857 0.359424 0.838205 0.000000
H732  H     H_    0.068301 0.394494 0.854713 0.000000
H733  H     H_    0.077914 0.361966 0.823463 0.000000
H734  H     H_    0.131089 0.412128 0.761552 0.000000
H735  H     H_    0.047992 0.429250 0.777393 0.000000
H736  H     H_    0.047949 0.472421 0.792431 0.000000
H737  H     H_    0.151457 0.586958 0.638676 0.000000
H738  H     H_    0.114885 0.656083 0.586127 0.000000
H739  H     H_    0.042772 0.657066 0.588275 0.000000
H740  H     H_    0.007112 0.588092 0.643617 0.000000
C667  C     C_3   0.329961 0.422698 0.651524 0.000000
N223  N     N_3   0.311118 0.415829 0.698771 0.000000
C668  C     C_3   0.273756 0.394213 0.719638 0.000000
C669  C     C_R   0.241154 0.405510 0.757276 0.000000
N224  N     N_R   0.239967 0.376320 0.801987 0.000000
C670  C     C_R   0.199474 0.394205 0.824347 0.000000
C671  C     C_R   0.175734 0.375016 0.869406 0.000000
C672  C     C_R   0.136195 0.401737 0.885555 0.000000
C673  C     C_R   0.120595 0.446028 0.856349 0.000000
C674  C     C_R   0.142522 0.462371 0.810138 0.000000
C675  C     C_R   0.180359 0.433987 0.794868 0.000000
N225  N     N_R   0.204074 0.440429 0.751564 0.000000
H741  H     H_    0.363246 0.430282 0.637104 0.000000
H742  H     H_    0.330314 0.391807 0.648037 0.000000
H743  H     H_    0.310768 0.453637 0.631707 0.000000
H744  H     H_    0.297242 0.448637 0.698334 0.000000
H745  H     H_    0.256934 0.408891 0.695296 0.000000
H746  H     H_    0.283217 0.356300 0.733820 0.000000
H747  H     H_    0.187778 0.340632 0.891954 0.000000
H748  H     H_    0.117568 0.388197 0.921273 0.000000
H749  H     H_    0.089883 0.466679 0.869471 0.000000
H750  H     H_    0.128874 0.494906 0.786842 0.000000
C676  C     C_3   0.116852 0.562210 0.183581 0.000000
N226  N     N_3   0.136278 0.515353 0.184240 0.000000
C677  C     C_3   0.104504 0.484839 0.216683 0.000000
C678  C     C_R   0.074615 0.491556 0.194407 0.000000
N227  N     N_R   0.030099 0.510802 0.210418 0.000000
C679  C     C_R   0.021208 0.537593 0.170995 0.000000
C680  C     C_R   0.987341 0.575263 0.163085 0.000000
C681  C     C_R   0.985655 0.601145 0.119287 0.000000
C682  C     C_R   0.019140 0.590783 0.083989 0.000000
C683  C     C_R   0.055408 0.555862 0.092091 0.000000
C684  C     C_R   0.056006 0.529918 0.135385 0.000000
N228  N     N_R   0.091148 0.500187 0.148255 0.000000
H751  H     H_    0.140469 0.585893 0.158009 0.000000
H752  H     H_    0.086284 0.576655 0.174519 0.000000
H753  H     H_    0.109890 0.561319 0.216936 0.000000
H754  H     H_    0.163131 0.502841 0.195513 0.000000
H755  H     H_    0.120469 0.447779 0.230069 0.000000
H756  H     H_    0.085451 0.495120 0.244920 0.000000
H757  H     H_    0.965193 0.587286 0.189153 0.000000
H758  H     H_    0.959116 0.630871 0.112235 0.000000
H759  H     H_    0.017979 0.612092 0.049804 0.000000
H760  H     H_    0.083694 0.549616 0.065857 0.000000
C685  C     C_3   0.118793 0.346666 0.138840 0.000000
N229  N     N_3   0.162415 0.319321 0.141343 0.000000
C686  C     C_3   0.197393 0.346070 0.119583 0.000000
C687  C     C_R   0.196025 0.386900 0.077699 0.000000
N230  N     N_R   0.206738 0.375184 0.042504 0.000000
C688  C     C_R   0.171501 0.402105 0.028248 0.000000
C689  C     C_R   0.152009 0.391102 0.009960 0.000000
C690  C     C_R   0.111684 0.417909 0.004770 0.000000
C691  C     C_R   0.089822 0.452433 0.021332 0.000000
C692  C     C_R   0.107301 0.459472 0.044667 0.000000
C693  C     C_R   0.148384 0.434678 0.047201 0.000000
N231  N     N_R   0.165712 0.428438 0.076959 0.000000
H761  H     H_    0.093744 0.326113 0.167482 0.000000
H762  H     H_    0.111344 0.379658 0.142049 0.000000
H763  H     H_    0.115092 0.352823 0.107445 0.000000
H764  H     H_    0.171830 0.296850 0.125666 0.000000
H765  H     H_    0.204469 0.352785 0.141381 0.000000
H766  H     H_    0.226181 0.324033 0.107041 0.000000
H767  H     H_    0.166230 0.360185 0.003113 0.000000
H768  H     H_    0.096039 0.410292 0.989806 0.000000
H769  H     H_    0.057497 0.471644 0.018784 0.000000
H770  H     H_    0.087989 0.481649 0.062639 0.000000
C694  C     C_3   0.080110 0.596715 0.965275 0.000000
N232  N     N_3   0.111383 0.563406 0.989226 0.000000
C695  C     C_3   0.141105 0.589025 0.982407 0.000000
C696  C     C_R   0.182442 0.557942 0.993035 0.000000
N233  N     N_R   0.178944 0.540181 0.038440 0.000000
C697  C     C_R   0.209008 0.558483 0.034877 0.000000
C698  C     C_R   0.207447 0.569852 0.066656 0.000000
C699  C     C_R   0.239090 0.593019 0.055318 0.000000
C700  C     C_R   0.272369 0.601244 0.014015 0.000000
C701  C     C_R   0.269985 0.594542 0.980432 0.000000
C702  C     C_R   0.235367 0.576469 0.991190 0.000000
N234  N     N_R   0.221235 0.575370 0.962698 0.000000
H771  H     H_    0.054314 0.578846 0.973907 0.000000
H772  H     H_    0.064713 0.626572 0.975352 0.000000
H773  H     H_    0.096856 0.610724 0.928122 0.000000
H774  H     H_    0.128554 0.537451 0.977198 0.000000
H775  H     H_    0.148788 0.616359 0.947875 0.000000
H776  H     H_    0.124102 0.607694 0.005045 0.000000
H777  H     H_    0.182436 0.560874 0.099316 0.000000
H778  H     H_    0.239885 0.601408 0.080025 0.000000
H779  H     H_    0.299219 0.614309 0.008268 0.000000
H780  H     H_    0.293943 0.603439 0.947109 0.000000
C703  C     C_3   0.640823 0.237987 0.059021 0.000000
N235  N     N_3   0.636986 0.284909 0.053960 0.000000
C704  C     C_3   0.628303 0.318879 0.011617 0.000000
C705  C     C_R   0.651961 0.358764 0.986238 0.000000
N236  N     N_R   0.686691 0.358901 0.995551 0.000000
C706  C     C_R   0.706383 0.390759 0.956521 0.000000
C707  C     C_R   0.743940 0.403825 0.945924 0.000000
C708  C     C_R   0.762100 0.433615 0.902583 0.000000
C709  C     C_R   0.741135 0.451035 0.871426 0.000000
C710  C     C_R   0.701911 0.439345 0.884076 0.000000
C711  C     C_R   0.684744 0.409856 0.927027 0.000000
N237  N     N_R   0.647905 0.393647 0.944528 0.000000
H781  H     H_    0.643015 0.211900 0.093141 0.000000
H782  H     H_    0.611675 0.236069 0.055272 0.000000
H783  H     H_    0.670938 0.228896 0.033379 0.000000
H784  H     H_    0.666572 0.286181 0.052991 0.000000
H785  H     H_    0.639953 0.300449 0.989505 0.000000
H786  H     H_    0.592636 0.333367 0.018423 0.000000
H787  H     H_    0.757042 0.394832 0.971371 0.000000
H788  H     H_    0.790062 0.446756 0.894471 0.000000
H789  H     H_    0.751835 0.479090 0.838945 0.000000
H790  H     H_    0.682891 0.456508 0.862151 0.000000
C712  C     C_3   0.888319 0.359880 0.990864 0.000000
N238  N     N_3   0.884546 0.334820 0.970258 0.000000
C713  C     C_3   0.848991 0.361977 0.951008 0.000000
C714  C     C_R   0.831661 0.329457 0.948760 0.000000
N239  N     N_R   0.855040 0.308219 0.917499 0.000000
C715  C     C_R   0.829952 0.276964 0.934568 0.000000
C716  C     C_R   0.841025 0.239867 0.923917 0.000000
C717  C     C_R   0.810247 0.212396 0.943228 0.000000
C718  C     C_R   0.769041 0.223235 0.972121 0.000000
C719  C     C_R   0.759767 0.259003 0.984857 0.000000
C720  C     C_R   0.792179 0.282959 0.968528 0.000000
N240  N     N_R   0.791639 0.315001 0.980709 0.000000
H791  H     H_    0.920300 0.345291 0.997277 0.000000
H792  H     H_    0.886117 0.397865 0.968052 0.000000
H793  H     H_    0.861933 0.354937 0.023650 0.000000
H794  H     H_    0.875546 0.303063 0.996250 0.000000
H795  H     H_    0.822858 0.378437 0.973682 0.000000
H796  H     H_    0.860422 0.389829 0.916801 0.000000
H797  H     H_    0.874205 0.230196 0.904475 0.000000
H798  H     H_    0.818165 0.182692 0.935497 0.000000
H799  H     H_    0.744698 0.202403 0.986139 0.000000
H800  H     H_    0.728850 0.266239 0.008603 0.000000
C721  C     C_3   0.126137 0.313452 0.319484 0.000000
N241  N     N_3   0.156898 0.320923 0.329962 0.000000
C722  C     C_3   0.164660 0.278763 0.367879 0.000000
C723  C     C_R   0.125514 0.277448 0.406780 0.000000
N242  N     N_R   0.107489 0.310545 0.424537 0.000000
C724  C     C_R   0.079009 0.288110 0.464886 0.000000
C725  C     C_R   0.054316 0.301514 0.500109 0.000000
C726  C     C_R   0.028563 0.271191 0.539227 0.000000
C727  C     C_R   0.033468 0.225740 0.545031 0.000000
C728  C     C_R   0.059514 0.212364 0.509478 0.000000
C729  C     C_R   0.078880 0.245712 0.468764 0.000000
N243  N     N_R   0.105515 0.239850 0.430562 0.000000
H801  H     H_    0.095977 0.304425 0.347965 0.000000
H802  H     H_    0.119188 0.346036 0.291330 0.000000
H803  H     H_    0.140199 0.284067 0.310244 0.000000
H804  H     H_    0.139113 0.347750 0.340757 0.000000
H805  H     H_    0.171513 0.247529 0.362025 0.000000
H806  H     H_    0.193048 0.276873 0.374229 0.000000
H807  H     H_    0.054090 0.334715 0.497650 0.000000
H808  H     H_    0.007908 0.281329 0.567134 0.000000
H809  H     H_    0.016458 0.200945 0.577244 0.000000
H810  H     H_    0.063577 0.177260 0.513300 0.000000
C730  C     C_3   0.034763 0.352461 0.306495 0.000000
N244  N     N_3   0.048864 0.390423 0.302589 0.000000
C731  C     C_3   0.036864 0.389899 0.346958 0.000000
C732  C     C_R   0.046797 0.432039 0.340794 0.000000
N245  N     N_R   0.076636 0.430492 0.357611 0.000000
C733  C     C_R   0.072823 0.477007 0.344451 0.000000
C734  C     C_R   0.093029 0.497666 0.353515 0.000000
C735  C     C_R   0.085874 0.546287 0.334673 0.000000
C736  C     C_R   0.059964 0.573173 0.306510 0.000000
C737  C     C_R   0.039189 0.551796 0.298653 0.000000
C738  C     C_R   0.043906 0.503910 0.320449 0.000000
N246  N     N_R   0.025928 0.476839 0.317888 0.000000
H811  H     H_    0.062012 0.324282 0.300887 0.000000
H812  H     H_    0.010285 0.337374 0.339998 0.000000
H813  H     H_    0.024476 0.364680 0.277327 0.000000
H814  H     H_    0.034161 0.422315 0.281985 0.000000
H815  H     H_    0.001723 0.390773 0.364827 0.000000
H816  H     H_    0.054568 0.358624 0.368777 0.000000
H817  H     H_    0.115398 0.476821 0.373019 0.000000
H818  H     H_    0.102001 0.563397 0.340494 0.000000
H819  H     H_    0.056164 0.611018 0.290460 0.000000
H820  H     H_    0.020269 0.571973 0.275634 0.000000
C739  C     C_3   0.459664 0.137294 0.197521 0.000000
N247  N     N_3   0.417191 0.128994 0.208063 0.000000
C740  C     C_3   0.390425 0.127806 0.252888 0.000000
C741  C     C_R   0.354754 0.102663 0.271117 0.000000
N248  N     N_R   0.315506 0.122312 0.260852 0.000000
C742  C     C_R   0.296816 0.084345 0.282899 0.000000
C743  C     C_R   0.255173 0.083440 0.288656 0.000000
C744  C     C_R   0.240844 0.041205 0.315812 0.000000
C745  C     C_R   0.267034 0.001541 0.338651 0.000000
C746  C     C_R   0.307834 0.003693 0.334522 0.000000
C747  C     C_R   0.322791 0.045057 0.305249 0.000000
N249  N     N_R   0.359786 0.055268 0.299115 0.000000
H821  H     H_    0.477851 0.146536 0.160886 0.000000
H822  H     H_    0.455152 0.166718 0.205498 0.000000
H823  H     H_    0.478695 0.104920 0.217572 0.000000
H824  H     H_    0.422336 0.095648 0.209729 0.000000
H825  H     H_    0.411158 0.107412 0.275035 0.000000
H826  H     H_    0.377246 0.163381 0.252317 0.000000
H827  H     H_    0.233283 0.114820 0.273944 0.000000
H828  H     H_    0.208308 0.039575 0.320704 0.000000
H829  H     H_    0.254843 0.969156 0.360986 0.000000
H830  H     H_    0.327000 0.973692 0.354096 0.000000
C748  C     C_3   0.241159 0.069423 0.397837 0.000000
N250  N     N_3   0.214145 0.103181 0.369908 0.000000
C749  C     C_3   0.221527 0.148814 0.355538 0.000000
C750  C     C_R   0.194744 0.182843 0.326712 0.000000
N251  N     N_R   0.149351 0.196407 0.344555 0.000000
C751  C     C_R   0.137705 0.212889 0.307436 0.000000
C752  C     C_R   0.097356 0.235970 0.302231 0.000000
C753  C     C_R   0.091162 0.246425 0.262910 0.000000
C754  C     C_R   0.126336 0.236724 0.228252 0.000000
C755  C     C_R   0.168401 0.221480 0.230736 0.000000
C756  C     C_R   0.173524 0.209473 0.270772 0.000000
N252  N     N_R   0.211270 0.193459 0.280551 0.000000
H831  H     H_    0.275617 0.065083 0.376253 0.000000
H832  H     H_    0.239403 0.081994 0.421309 0.000000
H833  H     H_    0.229315 0.036242 0.416561 0.000000
H834  H     H_    0.181332 0.101949 0.389211 0.000000
H835  H     H_    0.211092 0.157133 0.384571 0.000000
H836  H     H_    0.256608 0.149906 0.335544 0.000000
H837  H     H_    0.071661 0.247199 0.327363 0.000000
H838  H     H_    0.058939 0.262645 0.259020 0.000000
H839  H     H_    0.121233 0.243654 0.198011 0.000000
H840  H     H_    0.195723 0.218241 0.202340 0.000000
C757  C     C_3   0.292265 0.357713 0.125947 0.000000
N253  N     N_3   0.277037 0.316027 0.141547 0.000000
C758  C     C_3   0.305327 0.293172 0.111626 0.000000
C759  C     C_R   0.286742 0.255935 0.120943 0.000000
N254  N     N_R   0.279667 0.215101 0.161415 0.000000
C760  C     C_R   0.265492 0.192855 0.148789 0.000000
C761  C     C_R   0.256440 0.148521 0.172751 0.000000
C762  C     C_R   0.238909 0.133927 0.155137 0.000000
C763  C     C_R   0.230406 0.163668 0.114269 0.000000
C764  C     C_R   0.240964 0.207831 0.089461 0.000000
C765  C     C_R   0.259835 0.220963 0.106646 0.000000
N255  N     N_R   0.273403 0.261609 0.087298 0.000000
H841  H     H_    0.267548 0.388248 0.113668 0.000000
H842  H     H_    0.294341 0.359461 0.153938 0.000000
H843  H     H_    0.325001 0.358229 0.099652 0.000000
H844  H     H_    0.273297 0.294299 0.175282 0.000000
H845  H     H_    0.305113 0.317935 0.077511 0.000000
H846  H     H_    0.339409 0.281998 0.110070 0.000000
H847  H     H_    0.264543 0.124960 0.203187 0.000000
H848  H     H_    0.231657 0.098999 0.173475 0.000000
H849  H     H_    0.216147 0.151891 0.101374 0.000000
H850  H     H_    0.234727 0.231049 0.057530 0.000000
C766  C     C_3   0.459817 0.845600 0.670200 0.000000
N256  N     N_3   0.447122 0.848684 0.712490 0.000000
C767  C     C_3   0.400246 0.853172 0.734806 0.000000
C768  C     C_R   0.392555 0.812105 0.777907 0.000000
N257  N     N_R   0.349802 0.804848 0.803217 0.000000
C769  C     C_R   0.349784 0.792368 0.845009 0.000000
C770  C     C_R   0.313638 0.795616 0.881209 0.000000
C771  C     C_R   0.320132 0.787882 0.919612 0.000000
C772  C     C_R   0.362392 0.776839 0.921151 0.000000
C773  C     C_R   0.398550 0.775724 0.883505 0.000000
C774  C     C_R   0.391235 0.785457 0.845267 0.000000
N258  N     N_R   0.420080 0.796553 0.803026 0.000000
H851  H     H_    0.471291 0.809263 0.674065 0.000000
H852  H     H_    0.433429 0.858437 0.656401 0.000000
H853  H     H_    0.485402 0.866627 0.646238 0.000000
H854  H     H_    0.455208 0.879583 0.703587 0.000000
H855  H     H_    0.387773 0.883974 0.743099 0.000000
H856  H     H_    0.381557 0.857646 0.714909 0.000000
H857  H     H_    0.281171 0.804990 0.879334 0.000000
H858  H     H_    0.292104 0.789943 0.948788 0.000000
H859  H     H_    0.367037 0.770021 0.951620 0.000000
H860  H     H_    0.431393 0.767743 0.884158 0.000000
C775  C     C_3   0.267090 0.478902 0.773235 0.000000
N259  N     N_3   0.310373 0.449809 0.769718 0.000000
C776  C     C_3   0.336637 0.473167 0.770546 0.000000
C777  C     C_R   0.358732 0.502344 0.723637 0.000000
N260  N     N_R   0.400266 0.485742 0.700226 0.000000
C778  C     C_R   0.406482 0.520836 0.658443 0.000000
C779  C     C_R   0.441745 0.522907 0.620172 0.000000
C780  C     C_R   0.441765 0.564054 0.581560 0.000000
C781  C     C_R   0.405895 0.600775 0.580489 0.000000
C782  C     C_R   0.369923 0.597333 0.618811 0.000000
C783  C     C_R   0.370989 0.556876 0.657592 0.000000
N261  N     N_R   0.339865 0.546765 0.698814 0.000000
H861  H     H_    0.252882 0.477701 0.752561 0.000000
H862  H     H_    0.246135 0.466310 0.809015 0.000000
H863  H     H_    0.268787 0.515926 0.759214 0.000000
H864  H     H_    0.325164 0.449553 0.737889 0.000000
H865  H     H_    0.316068 0.493504 0.791278 0.000000
H866  H     H_    0.362814 0.446602 0.784298 0.000000
H867  H     H_    0.468258 0.493563 0.619193 0.000000
H868  H     H_    0.469950 0.567463 0.551712 0.000000
H869  H     H_    0.405510 0.631771 0.549239 0.000000
H870  H     H_    0.341227 0.624751 0.617043 0.000000
C784  C     C_3   0.279311 0.708499 0.568241 0.000000
N262  N     N_3   0.249776 0.739891 0.590289 0.000000
C785  C     C_3   0.241932 0.714908 0.639106 0.000000
C786  C     C_R   0.282290 0.704722 0.649354 0.000000
N263  N     N_R   0.306693 0.737892 0.632919 0.000000
C787  C     C_R   0.343608 0.710399 0.643206 0.000000
C788  C     C_R   0.378503 0.724630 0.637398 0.000000
C789  C     C_R   0.413093 0.692155 0.651733 0.000000
C790  C     C_R   0.411599 0.645228 0.673032 0.000000
C791  C     C_R   0.374763 0.631621 0.681382 0.000000
C792  C     C_R   0.340852 0.664803 0.666179 0.000000
N264  N     N_R   0.301503 0.659460 0.672526 0.000000
H871  H     H_    0.280575 0.725899 0.532269 0.000000
H872  H     H_    0.312986 0.700838 0.568966 0.000000
H873  H     H_    0.267138 0.675512 0.584816 0.000000
H874  H     H_    0.219758 0.748770 0.585158 0.000000
H875  H     H_    0.214738 0.735540 0.657335 0.000000
H876  H     H_    0.232610 0.681610 0.651279 0.000000
H877  H     H_    0.376468 0.760349 0.626714 0.000000
H878  H     H_    0.440212 0.703495 0.648234 0.000000
H879  H     H_    0.438271 0.619321 0.685029 0.000000
H880  H     H_    0.373776 0.595608 0.699571 0.000000
C793  C     C_3   0.299418 0.712410 0.740366 0.000000
N265  N     N_3   0.307300 0.662743 0.757180 0.000000
C794  C     C_3   0.264573 0.653941 0.773740 0.000000
C795  C     C_R   0.266484 0.604419 0.799445 0.000000
N266  N     N_R   0.257061 0.584080 0.780870 0.000000
C796  C     C_R   0.223350 0.563920 0.815564 0.000000
C797  C     C_R   0.192304 0.548806 0.814494 0.000000
C798  C     C_R   0.154202 0.541214 0.850901 0.000000
C799  C     C_R   0.148624 0.546285 0.888566 0.000000
C800  C     C_R   0.181447 0.558818 0.889904 0.000000
C801  C     C_R   0.217901 0.567660 0.853453 0.000000
N267  N     N_R   0.247629 0.589573 0.845704 0.000000
H881  H     H_    0.285593 0.722904 0.768794 0.000000
H882  H     H_    0.330428 0.723270 0.716942 0.000000
H883  H     H_    0.275827 0.727600 0.721862 0.000000
H884  H     H_    0.316161 0.648842 0.785684 0.000000
H885  H     H_    0.241495 0.672247 0.795654 0.000000
H886  H     H_    0.251984 0.665240 0.746034 0.000000
H887  H     H_    0.195972 0.543502 0.786394 0.000000
H888  H     H_    0.128832 0.530856 0.850140 0.000000
H889  H     H_    0.118976 0.539109 0.917090 0.000000
H890  H     H_    0.179244 0.563911 0.917199 0.000000
C802  C     C_3   0.435334 0.241425 0.960880 0.000000
N268  N     N_3   0.397707 0.270542 0.981047 0.000000
C803  C     C_3   0.386296 0.314265 0.944585 0.000000
C804  C     C_R   0.366014 0.352257 0.960844 0.000000
N269  N     N_R   0.325371 0.354600 0.994071 0.000000
C805  C     C_R   0.327828 0.387169 0.003957 0.000000
C806  C     C_R   0.295804 0.409674 0.029016 0.000000
C807  C     C_R   0.301717 0.447992 0.028349 0.000000
C808  C     C_R   0.341572 0.462165 0.004286 0.000000
C809  C     C_R   0.375402 0.437128 0.981303 0.000000
C810  C     C_R   0.366151 0.402286 0.979347 0.000000
N270  N     N_R   0.389335 0.384811 0.948579 0.000000
H891  H     H_    0.465572 0.254490 0.948730 0.000000
H892  H     H_    0.438797 0.204761 0.986898 0.000000
H893  H     H_    0.430540 0.242038 0.932273 0.000000
H894  H     H_    0.407586 0.278510 0.999404 0.000000
H895  H     H_    0.416248 0.323529 0.915489 0.000000
H896  H     H_    0.363795 0.310160 0.933554 0.000000
H897  H     H_    0.266293 0.398601 0.047866 0.000000
H898  H     H_    0.273703 0.468077 0.044663 0.000000
H899  H     H_    0.345530 0.493950 0.001340 0.000000
H900  H     H_    0.406546 0.448254 0.961603 0.000000
C811  C     C_3   0.238775 0.471261 0.967849 0.000000
N271  N     N_3   0.267752 0.504385 0.939490 0.000000
C812  C     C_3   0.307613 0.487752 0.910158 0.000000
C813  C     C_R   0.340219 0.512824 0.900120 0.000000
N272  N     N_R   0.328865 0.560866 0.885740 0.000000
C814  C     C_R   0.368801 0.573466 0.860211 0.000000
C815  C     C_R   0.377494 0.615798 0.824307 0.000000
C816  C     C_R   0.418382 0.617318 0.791278 0.000000
C817  C     C_R   0.449211 0.577216 0.792347 0.000000
C818  C     C_R   0.439445 0.535455 0.827313 0.000000
C819  C     C_R   0.401272 0.534362 0.862031 0.000000
N273  N     N_R   0.385041 0.495201 0.888756 0.000000
H901  H     H_    0.227091 0.468583 0.002638 0.000000
H902  H     H_    0.209557 0.485185 0.957279 0.000000
H903  H     H_    0.255584 0.436534 0.967592 0.000000
H904  H     H_    0.277891 0.507158 0.960785 0.000000
H905  H     H_    0.319289 0.449757 0.924830 0.000000
H906  H     H_    0.301582 0.498012 0.878653 0.000000
H907  H     H_    0.352448 0.646595 0.819103 0.000000
H908  H     H_    0.425267 0.648413 0.761216 0.000000
H909  H     H_    0.479122 0.578114 0.763967 0.000000
H910  H     H_    0.459057 0.502632 0.825705 0.000000
C820  C     C_3   0.340980 0.677362 0.934166 0.000000
N274  N     N_3   0.303797 0.688172 0.919826 0.000000
C821  C     C_3   0.321013 0.687899 0.875309 0.000000
C822  C     C_R   0.284275 0.701852 0.857616 0.000000
N275  N     N_R   0.261127 0.669640 0.868481 0.000000
C823  C     C_R   0.222665 0.697055 0.863208 0.000000
C824  C     C_R   0.186841 0.682326 0.871341 0.000000
C825  C     C_R   0.148119 0.714516 0.869074 0.000000
C826  C     C_R   0.145963 0.760117 0.860241 0.000000
C827  C     C_R   0.183043 0.774347 0.850821 0.000000
C828  C     C_R   0.222526 0.742867 0.849281 0.000000
N276  N     N_R   0.262792 0.748313 0.841317 0.000000
H911  H     H_    0.329363 0.684058 0.964792 0.000000
H912  H     H_    0.357298 0.639977 0.941921 0.000000
H913  H     H_    0.365490 0.699049 0.907110 0.000000
H914  H     H_    0.284540 0.720789 0.918585 0.000000
H915  H     H_    0.344219 0.712024 0.851304 0.000000
H916  H     H_    0.338299 0.651810 0.880326 0.000000
H917  H     H_    0.189083 0.646662 0.878669 0.000000
H918  H     H_    0.119227 0.703745 0.875678 0.000000
H919  H     H_    0.115096 0.784953 0.860523 0.000000
H920  H     H_    0.179410 0.809123 0.846033 0.000000
C829  C     C_3   0.851285 0.469450 0.807389 0.000000
N277  N     N_3   0.850939 0.421892 0.817344 0.000000
C830  C     C_3   0.828096 0.424964 0.790809 0.000000
C831  C     C_R   0.836864 0.379678 0.788385 0.000000
N278  N     N_R   0.860945 0.337052 0.811054 0.000000
C832  C     C_R   0.853975 0.307334 0.801257 0.000000
C833  C     C_R   0.868579 0.259562 0.815820 0.000000
C834  C     C_R   0.863585 0.236865 0.796040 0.000000
C835  C     C_R   0.849021 0.262935 0.758848 0.000000
C836  C     C_R   0.835063 0.310946 0.744717 0.000000
C837  C     C_R   0.831961 0.331515 0.770437 0.000000
N279  N     N_R   0.818809 0.377490 0.762782 0.000000
H921  H     H_    0.860279 0.468544 0.833607 0.000000
H922  H     H_    0.875604 0.484586 0.773699 0.000000
H923  H     H_    0.818854 0.492548 0.806485 0.000000
H924  H     H_    0.835182 0.403794 0.851587 0.000000
H925  H     H_    0.792652 0.433971 0.805140 0.000000
H926  H     H_    0.837045 0.453512 0.756763 0.000000
H927  H     H_    0.886961 0.240219 0.838930 0.000000
H928  H     H_    0.875942 0.199478 0.806118 0.000000
H929  H     H_    0.850979 0.246121 0.739275 0.000000
H930  H     H_    0.833184 0.331633 0.711255 0.000000
C838  C     C_3   0.747162 0.287226 0.870863 0.000000
N280  N     N_3   0.732137 0.330411 0.836331 0.000000
C839  C     C_3   0.720859 0.368290 0.849666 0.000000
C840  C     C_R   0.697408 0.411195 0.819836 0.000000
N281  N     N_R   0.713732 0.426146 0.773559 0.000000
C841  C     C_R   0.677143 0.445176 0.761718 0.000000
C842  C     C_R   0.673854 0.462843 0.719345 0.000000
C843  C     C_R   0.632324 0.476984 0.715721 0.000000
C844  C     C_R   0.595758 0.470797 0.754400 0.000000
C845  C     C_R   0.600291 0.454079 0.796296 0.000000
C846  C     C_R   0.641110 0.445039 0.798661 0.000000
N282  N     N_R   0.652875 0.427799 0.835852 0.000000
H931  H     H_    0.762264 0.259094 0.858377 0.000000
H932  H     H_    0.771955 0.292799 0.878168 0.000000
H933  H     H_    0.718978 0.276444 0.902276 0.000000
H934  H     H_    0.703220 0.326971 0.836876 0.000000
H935  H     H_    0.698590 0.357447 0.885045 0.000000
H936  H     H_    0.750936 0.374960 0.847055 0.000000
H937  H     H_    0.702287 0.465667 0.689690 0.000000
H938  H     H_    0.628536 0.490496 0.683026 0.000000
H939  H     H_    0.563606 0.478350 0.751937 0.000000
H940  H     H_    0.573374 0.444086 0.826339 0.000000
C847  C     C_3   0.546247 0.559931 0.814075 0.000000
N283  N     N_3   0.535899 0.524743 0.860479 0.000000
C848  C     C_3   0.508524 0.497676 0.866498 0.000000
C849  C     C_R   0.514806 0.447280 0.898450 0.000000
N284  N     N_R   0.552202 0.421805 0.911463 0.000000
C850  C     C_R   0.543325 0.378460 0.936600 0.000000
C851  C     C_R   0.572347 0.337970 0.950989 0.000000
C852  C     C_R   0.557061 0.296279 0.977186 0.000000
C853  C     C_R   0.513481 0.296290 0.987177 0.000000
C854  C     C_R   0.485859 0.337289 0.968217 0.000000
C855  C     C_R   0.502487 0.377977 0.940669 0.000000
N285  N     N_R   0.484274 0.420440 0.913922 0.000000
H941  H     H_    0.565365 0.582142 0.810496 0.000000
H942  H     H_    0.565543 0.543506 0.789782 0.000000
H943  H     H_    0.515640 0.582818 0.806720 0.000000
H944  H     H_    0.513874 0.545063 0.878375 0.000000
H945  H     H_    0.474675 0.513090 0.882264 0.000000
H946  H     H_    0.515556 0.499141 0.833206 0.000000
H947  H     H_    0.606451 0.339075 0.939800 0.000000
H948  H     H_    0.579141 0.263593 0.989678 0.000000
H949  H     H_    0.501628 0.263625 0.007987 0.000000
H950  H     H_    0.453154 0.336152 0.973905 0.000000
C856  C     C_3   0.652660 0.560849 0.742672 0.000000
N286  N     N_3   0.695926 0.532662 0.732052 0.000000
C857  C     C_3   0.719815 0.528786 0.758236 0.000000
C858  C     C_R   0.765856 0.527088 0.730381 0.000000
N287  N     N_R   0.785484 0.496560 0.709353 0.000000
C859  C     C_R   0.811407 0.522587 0.669348 0.000000
C860  C     C_R   0.834894 0.513300 0.632339 0.000000
C861  C     C_R   0.848276 0.550730 0.591126 0.000000
C862  C     C_R   0.840027 0.595408 0.588109 0.000000
C863  C     C_R   0.820017 0.602466 0.627275 0.000000
C864  C     C_R   0.807359 0.565119 0.667082 0.000000
N288  N     N_R   0.781847 0.568025 0.706184 0.000000
H951  H     H_    0.655110 0.598135 0.726370 0.000000
H952  H     H_    0.632137 0.557384 0.728689 0.000000
H953  H     H_    0.638031 0.548157 0.779986 0.000000
H954  H     H_    0.712104 0.549652 0.697709 0.000000
H955  H     H_    0.708278 0.560271 0.765335 0.000000
H956  H     H_    0.716817 0.495950 0.788950 0.000000
H957  H     H_    0.840262 0.478423 0.635172 0.000000
H958  H     H_    0.864912 0.545593 0.560681 0.000000
H959  H     H_    0.850823 0.623950 0.555693 0.000000
H960  H     H_    0.815649 0.635878 0.626960 0.000000

loop_
_geom_bond_atom_site_label_1
_geom_bond_atom_site_label_2
_geom_bond_distance
_geom_bond_site_symmetry_2
_ccdc_geom_bond_type
Zn1   N3    1.966 .      S
Zn1   N56   2.078 .      S
Zn1   N84   1.977 .      S
Zn1   N260  2.057 .      S
Zn2   N9    2.070 1_545  S
Zn2   N74   2.204 .      S
Zn2   N168  2.208 .      S
Zn2   N170  2.235 .      S
Zn3   N6    2.108 .      S
Zn3   N8    2.118 .      S
Zn3   N15   2.081 .      S
Zn3   N263  2.055 .      S
Zn4   N11   2.112 .      S
Zn4   N14   2.121 .      S
Zn4   N18   2.099 .      S
Zn4   N182  2.133 .      S
Zn5   N20   2.192 .      S
Zn5   N24   2.194 .      S
Zn5   N27   2.130 .      S
Zn5   N173  2.112 .      S
Zn6   N30   2.093 1_545  S
Zn6   N32   2.122 .      S
Zn6   N177  2.095 .      S
Zn6   N191  2.105 .      S
Zn7   N36   2.123 .      S
Zn7   N38   2.252 .      S
Zn7   N194  2.145 .      S
Zn7   N203  2.069 .      S
Zn8   N42   2.168 .      S
Zn8   N44   2.093 1_545  S
Zn8   N161  2.087 .      S
Zn8   N179  2.078 .      S
Zn9   N48   2.197 .      S
Zn9   N50   2.092 .      S
Zn9   N54   2.124 .      S
Zn9   N156  2.139 .      S
Zn10  N57   2.079 .      S
Zn10  N60   2.075 .      S
Zn10  N158  2.101 .      S
Zn10  N185  2.039 .      S
Zn11  N62   2.236 .      S
Zn11  N66   2.185 .      S
Zn11  N69   2.118 .      S
Zn11  N189  2.180 .      S
Zn12  N89   2.115 .      S
Zn12  N279  2.096 .      S
Zn12  N281  2.020 .      S
Zn12  N287  2.099 .      S
Zn13  N2    2.051 .      S
Zn13  N270  2.019 .      S
Zn13  N273  2.107 .      S
Zn13  N285  2.151 .      S
Zn14  N33   2.131 .      S
Zn14  N35   2.153 .      S
Zn14  N71   2.066 1_545  S
Zn14  N75   2.171 .      S
Zn15  N5    2.102 .      S
Zn15  N72   2.055 .      S
Zn15  N257  2.174 .      S
Zn15  N276  2.142 .      S
Zn16  N77   2.205 .      S
Zn16  N80   2.090 .      S
Zn16  N207  2.171 1_655  S
Zn16  N222  2.263 1_655  S
Zn17  N83   2.085 .      S
Zn17  N86   2.239 .      S
Zn17  N197  2.069 .      S
Zn17  N224  2.162 .      S
Zn18  N17   2.136 .      S
Zn18  N26   2.205 .      S
Zn18  N45   2.141 .      S
Zn18  N65   2.219 .      S
Zn19  N53   2.185 .      S
Zn19  N59   1.941 .      S
Zn19  N68   2.178 .      S
Zn19  N90   2.054 .      S
Zn20  N93   2.003 .      S
Zn20  N95   2.089 .      S
Zn20  N99   2.121 .      S
Zn20  N101  2.110 .      S
Zn21  N92   1.971 .      S
Zn21  N105  2.149 .      S
Zn21  N107  2.137 .      S
Zn21  N110  2.260 .      S
Zn22  N96   2.099 .      S
Zn22  N114  2.006 .      S
Zn22  N116  2.094 .      S
Zn22  N120  2.128 .      S
Zn23  N98   2.122 .      S
Zn23  N123  2.168 .      S
Zn23  N126  1.989 .      S
Zn23  N129  2.062 .      S
Zn24  N102  2.038 .      S
Zn24  N132  2.126 .      S
Zn24  N135  2.115 .      S
Zn24  N137  2.037 .      S
Zn25  N117  2.062 .      S
Zn25  N140  2.046 .      S
Zn25  N143  2.117 .      S
Zn25  N147  2.141 .      S
Zn26  N111  2.239 .      S
Zn26  N119  2.091 .      S
Zn26  N149  2.136 .      S
Zn26  N153  2.231 .      S
Zn27  N104  2.119 .      S
Zn27  N131  2.061 .      S
Zn27  N155  2.195 .      S
Zn27  N159  2.134 .      S
Zn28  N113  2.069 .      S
Zn28  N134  2.108 .      S
Zn28  N162  2.076 .      S
Zn28  N164  2.132 .      S
Zn29  N12   2.128 1_545  S
Zn29  N41   2.169 .      S
Zn29  N167  2.108 .      S
Zn29  N249  2.100 .      S
Zn30  N47   2.234 .      S
Zn30  N171  2.134 .      S
Zn30  N243  2.051 .      S
Zn30  N251  2.219 .      S
Zn31  N138  2.030 .      S
Zn31  N174  2.134 1_545  S
Zn31  N176  2.121 .      S
Zn31  N180  2.155 .      S
Zn32  N108  2.186 .      S
Zn32  N183  2.185 .      S
Zn32  N186  2.072 .      S
Zn32  N188  2.157 .      S
Zn33  N122  2.150 .      S
Zn33  N192  2.139 .      S
Zn33  N195  2.130 .      S
Zn33  N198  2.174 .      S
Zn34  N125  2.025 .      S
Zn34  N201  2.130 .      S
Zn34  N204  2.119 .      S
Zn34  N206  2.047 .      S
Zn35  N150  2.254 .      S
Zn35  N210  2.185 .      S
Zn35  N212  2.257 .      S
Zn35  N216  2.105 .      S
Zn36  N128  2.130 .      S
Zn36  N219  2.050 .      S
Zn36  N221  2.228 .      S
Zn36  N225  2.139 .      S
Zn37  N146  2.125 .      S
Zn37  N228  2.257 .      S
Zn37  N231  2.231 .      S
Zn37  N233  2.147 .      S
Zn38  N152  2.178 .      S
Zn38  N165  2.133 .      S
Zn38  N236  2.030 1_554  S
Zn38  N240  2.294 1_554  S
Zn39  N141  2.103 .      S
Zn39  N200  2.139 .      S
Zn39  N242  2.083 .      S
Zn39  N245  2.164 .      S
Zn40  N144  2.057 .      S
Zn40  N248  2.126 .      S
Zn40  N252  2.189 .      S
Zn40  N254  2.262 .      S
Zn41  N23   2.119 .      S
Zn41  N29   2.081 .      S
Zn41  N215  2.093 .      S
Zn41  N258  2.144 .      S
Zn42  N218  2.023 .      S
Zn42  N261  2.073 .      S
Zn42  N264  2.045 .      S
Zn42  N266  2.104 .      S
Zn43  N51   2.078 .      S
Zn43  N63   2.234 .      S
Zn43  N227  2.223 1_655  S
Zn43  N246  2.129 1_655  S
Zn44  N87   2.261 1_554  S
Zn44  N230  2.261 .      S
Zn44  N255  2.220 .      S
Zn44  N269  2.178 1_554  S
Zn45  N234  2.201 .      S
Zn45  N267  2.147 .      S
Zn45  N272  2.115 .      S
Zn45  N275  2.071 .      S
Zn46  N39   2.265 .      S
Zn46  N81   2.062 .      S
Zn46  N239  2.269 .      S
Zn46  N278  2.086 .      S
Zn47  N209  2.133 .      S
Zn47  N237  2.103 .      S
Zn47  N282  2.132 .      S
Zn47  N284  2.098 .      S
Zn48  N21   2.170 .      S
Zn48  N78   2.283 .      S
Zn48  N213  2.109 .      S
Zn48  N288  2.027 .      S
C1    N1    1.437 .      S
C1    H1    1.085 .      S
C1    H2    1.102 .      S
C1    H3    1.091 .      S
N1    C2    1.427 .      S
N1    H4    1.031 .      S
C2    C3    1.467 .      S
C2    H5    1.082 .      S
C2    H6    1.101 .      S
C5    H7    1.059 .      S
C6    H8    1.081 .      S
C7    H9    1.081 .      S
C8    H10   1.078 .      S
C10   N4    1.433 .      S
C10   H11   1.107 .      S
C10   H12   1.094 .      S
C10   H13   1.098 .      S
N4    C11   1.444 .      S
N4    H14   1.034 .      S
C11   C12   1.483 .      S
C11   H15   1.095 .      S
C11   H16   1.094 .      S
C14   H17   1.053 .      S
C15   H18   1.081 .      S
C16   H19   1.081 .      S
C17   H20   1.067 .      S
C19   N7    1.445 .      S
C19   H21   1.099 .      S
C19   H22   1.100 .      S
C19   H23   1.106 .      S
N7    C20   1.438 .      S
N7    H24   1.022 .      S
C20   C21   1.474 .      S
C20   H25   1.095 .      S
C20   H26   1.093 .      S
C23   H27   1.059 .      S
C24   H28   1.081 .      S
C25   H29   1.081 .      S
C26   H30   1.080 .      S
N9    Zn2   2.070 1_565  S
C28   N10   1.434 .      S
C28   H31   1.105 .      S
C28   H32   1.095 .      S
C28   H33   1.090 .      S
N10   C29   1.417 .      S
N10   H34   1.038 .      S
C29   C30   1.461 .      S
C29   H35   1.078 .      S
C29   H36   1.103 .      S
C32   H37   1.078 .      S
C33   H38   1.081 .      S
C34   H39   1.081 .      S
C35   H40   1.078 .      S
N12   Zn29  2.128 1_565  S
C37   N13   1.454 .      S
C37   H41   1.108 .      S
C37   H42   1.109 .      S
C37   H43   1.109 .      S
N13   C38   1.449 .      S
N13   H44   1.043 .      S
C38   C39   1.487 .      S
C38   H45   1.109 .      S
C38   H46   1.106 .      S
C41   H47   1.059 .      S
C42   H48   1.062 .      S
C43   H49   1.068 .      S
C44   H50   1.056 .      S
C46   N16   1.455 .      S
C46   H51   1.107 .      S
C46   H52   1.107 .      S
C46   H53   1.107 .      S
N16   C47   1.447 .      S
N16   H54   1.035 .      S
C47   C48   1.483 .      S
C47   H55   1.098 .      S
C47   H56   1.054 .      S
C50   H57   1.050 .      S
C51   H58   1.081 .      S
C52   H59   1.081 .      S
C53   H60   1.070 .      S
C55   N19   1.453 .      S
C55   H61   1.106 .      S
C55   H62   1.109 .      S
C55   H63   1.095 .      S
N19   C56   1.449 .      S
N19   H64   1.038 .      S
C56   C57   1.478 .      S
C56   H65   1.097 .      S
C56   H66   1.090 .      S
C59   H67   1.067 .      S
C60   H68   1.081 .      S
C61   H69   1.081 .      S
C62   H70   1.062 .      S
C64   N22   1.456 .      S
C64   H71   1.102 .      S
C64   H72   1.107 .      S
C64   H73   1.109 .      S
N22   C65   1.448 .      S
N22   H74   1.039 .      S
C65   C66   1.480 .      S
C65   H75   1.100 .      S
C65   H76   1.099 .      S
C68   H77   1.070 .      S
C69   H78   1.071 .      S
C70   H79   1.081 .      S
C71   H80   1.057 .      S
C73   N25   1.452 .      S
C73   H81   1.109 .      S
C73   H82   1.108 .      S
C73   H83   1.106 .      S
N25   C74   1.456 .      S
N25   H84   1.044 .      S
C74   C75   1.480 .      S
C74   H85   1.106 .      S
C74   H86   1.103 .      S
C77   H87   1.061 .      S
C78   H88   1.079 .      S
C79   H89   1.081 .      S
C80   H90   1.079 .      S
C82   N28   1.450 .      S
C82   H91   1.108 .      S
C82   H92   1.108 .      S
C82   H93   1.103 .      S
N28   C83   1.457 .      S
N28   H94   1.042 .      S
C83   C84   1.480 .      S
C83   H95   1.077 .      S
C83   H96   1.103 .      S
C86   H97   1.075 .      S
C87   H98   1.081 .      S
C88   H99   1.081 .      S
C89   H100  1.076 .      S
N30   Zn6   2.093 1_565  S
C91   N31   1.446 .      S
C91   H101  1.093 .      S
C91   H102  1.100 .      S
C91   H103  1.105 .      S
N31   C92   1.446 .      S
N31   H104  1.041 .      S
C92   C93   1.485 .      S
C92   H105  1.092 .      S
C92   H106  1.094 .      S
C95   H107  1.057 .      S
C96   H108  1.081 .      S
C97   H109  1.081 .      S
C98   H110  1.063 .      S
C100  N34   1.452 .      S
C100  H111  1.109 .      S
C100  H112  1.106 .      S
C100  H113  1.109 .      S
N34   C101  1.458 .      S
N34   H114  1.044 .      S
C101  C102  1.475 .      S
C101  H115  1.096 .      S
C101  H116  1.099 .      S
C104  H117  1.069 .      S
C105  H118  1.081 .      S
C106  H119  1.081 1_455  S
C107  H120  1.079 .      S
H119  C106  1.081 1_655  S
C109  N37   1.455 1_655  S
C109  H121  1.108 1_655  S
C109  H122  1.108 .      S
C109  H123  1.109 .      S
N37   C109  1.455 1_455  S
N37   C110  1.447 1_455  S
N37   H124  1.040 .      S
C110  N37   1.447 1_655  S
C110  C111  1.494 .      S
C110  H125  1.092 .      S
C110  H126  1.106 .      S
C113  H127  1.081 .      S
C114  H128  1.081 .      S
C115  H129  1.081 .      S
C116  H130  1.080 .      S
H121  C109  1.108 1_455  S
C118  N40   1.447 .      S
C118  H131  1.105 .      S
C118  H132  1.105 .      S
C118  H133  1.104 .      S
N40   C119  1.444 .      S
N40   H134  1.040 .      S
C119  C120  1.477 .      S
C119  H135  1.108 .      S
C119  H136  1.091 .      S
C122  H137  1.080 .      S
C123  H138  1.081 .      S
C124  H139  1.079 .      S
C125  H140  1.079 .      S
C127  N43   1.431 .      S
C127  H141  1.109 .      S
C127  H142  1.066 .      S
C127  H143  1.085 .      S
N43   C128  1.443 .      S
N43   H144  1.033 .      S
C128  C129  1.480 .      S
C128  H145  1.080 .      S
C128  H146  1.096 .      S
N44   Zn8   2.093 1_565  S
C131  H147  1.073 1_565  S
C132  H148  1.080 .      S
C133  H149  1.081 .      S
C134  H150  1.080 .      S
H147  C131  1.073 1_545  S
C136  N46   1.453 .      S
C136  H151  1.109 .      S
C136  H152  1.109 .      S
C136  H153  1.109 .      S
N46   C137  1.455 .      S
N46   H154  1.044 .      S
C137  C138  1.480 .      S
C137  H155  1.105 .      S
C137  H156  1.090 .      S
C140  H157  1.079 .      S
C141  H158  1.081 .      S
C142  H159  1.081 .      S
C143  H160  1.077 .      S
C145  N49   1.447 .      S
C145  H161  1.100 .      S
C145  H162  1.096 .      S
C145  H163  1.103 .      S
N49   C146  1.448 .      S
N49   H164  1.028 .      S
C146  C147  1.486 .      S
C146  H165  1.059 .      S
C146  H166  1.101 .      S
C149  H167  1.067 .      S
C150  H168  1.081 .      S
C151  H169  1.081 .      S
C152  H170  1.071 .      S
C154  N52   1.451 .      S
C154  H171  1.109 .      S
C154  H172  1.107 .      S
C154  H173  1.109 .      S
N52   C155  1.454 .      S
N52   H174  1.042 .      S
C155  C156  1.493 .      S
C155  H175  1.106 .      S
C155  H176  1.105 .      S
C158  H177  1.077 .      S
C159  H178  1.078 .      S
C160  H179  1.073 1_655  S
C161  H180  1.077 .      S
H179  C160  1.073 1_455  S
C163  N55   1.454 .      S
C163  H181  1.108 .      S
C163  H182  1.109 .      S
C163  H183  1.109 .      S
N55   C164  1.451 .      S
N55   H184  1.044 .      S
C164  C165  1.491 .      S
C164  H185  1.108 .      S
C164  H186  1.104 .      S
C167  H187  1.061 .      S
C168  H188  1.081 .      S
C169  H189  1.079 .      S
C170  H190  1.061 .      S
C172  N58   1.452 .      S
C172  H191  1.109 .      S
C172  H192  1.109 .      S
C172  H193  1.107 .      S
N58   C173  1.455 .      S
N58   H194  1.042 .      S
C173  C174  1.494 .      S
C173  H195  1.099 .      S
C173  H196  1.099 .      S
C176  H197  1.071 .      S
C177  H198  1.064 .      S
C178  H199  1.066 .      S
C179  H200  1.019 .      S
C181  N61   1.456 .      S
C181  H201  1.109 .      S
C181  H202  1.105 .      S
C181  H203  1.109 .      S
N61   C182  1.459 .      S
N61   H204  1.044 .      S
C182  C183  1.472 .      S
C182  H205  1.095 .      S
C182  H206  1.079 .      S
C185  H207  1.081 .      S
C186  H208  1.081 .      S
C187  H209  1.081 .      S
C188  H210  1.074 .      S
C190  N64   1.454 .      S
C190  H211  1.108 .      S
C190  H212  1.110 .      S
C190  H213  1.109 .      S
N64   C191  1.453 .      S
N64   H214  1.044 .      S
C191  C192  1.496 .      S
C191  H215  1.103 .      S
C191  H216  1.096 .      S
C194  H217  1.073 .      S
C195  H218  1.081 .      S
C196  H219  1.081 .      S
C197  H220  1.077 .      S
C199  N67   1.440 .      S
C199  H221  1.099 .      S
C199  H222  1.109 .      S
C199  H223  1.090 .      S
N67   C200  1.453 .      S
N67   H224  1.042 .      S
C200  C201  1.471 .      S
C200  H225  1.085 .      S
C200  H226  1.082 .      S
C203  H227  1.072 .      S
C204  H228  1.079 .      S
C205  H229  1.081 .      S
C206  H230  1.077 .      S
C208  N70   1.438 .      S
C208  H231  1.099 .      S
C208  H232  1.108 .      S
C208  H233  1.079 .      S
N70   C209  1.429 .      S
N70   H234  1.040 .      S
C209  C210  1.464 .      S
C209  H235  1.104 .      S
C209  H236  1.100 .      S
N71   Zn14  2.066 1_565  S
C212  H237  1.076 .      S
C213  H238  1.081 .      S
C214  H239  1.081 .      S
C215  H240  1.077 .      S
C217  N73   1.455 .      S
C217  H241  1.110 .      S
C217  H242  1.109 .      S
C217  H243  1.109 .      S
N73   C218  1.448 .      S
N73   H244  1.038 .      S
C218  C219  1.485 1_565  S
C218  H245  1.107 .      S
C218  H246  1.101 .      S
C219  C218  1.485 1_545  S
C221  H247  1.058 .      S
C222  H248  1.080 .      S
C223  H249  1.073 .      S
C224  H250  1.080 .      S
C226  N76   1.454 .      S
C226  H251  1.109 .      S
C226  H252  1.109 .      S
C226  H253  1.107 .      S
N76   C227  1.455 .      S
N76   H254  1.039 .      S
C227  C228  1.494 .      S
C227  H255  1.104 .      S
C227  H256  1.076 .      S
C230  H257  1.071 .      S
C231  H258  1.081 .      S
C232  H259  1.081 .      S
C233  H260  1.068 .      S
C235  N79   1.454 .      S
C235  H261  1.107 .      S
C235  H262  1.105 .      S
C235  H263  1.085 .      S
N79   C236  1.438 .      S
N79   H264  1.023 .      S
C236  C237  1.483 .      S
C236  H265  1.101 .      S
C236  H266  1.100 .      S
C239  H267  1.068 .      S
C240  H268  1.081 .      S
C241  H269  1.079 .      S
C242  H270  1.078 .      S
C244  N82   1.453 .      S
C244  H271  1.099 .      S
C244  H272  1.095 .      S
C244  H273  1.100 .      S
N82   C245  1.444 .      S
N82   H274  1.034 .      S
C245  C246  1.486 .      S
C245  H275  1.083 .      S
C245  H276  1.108 .      S
C248  H277  1.048 .      S
C249  H278  1.081 .      S
C250  H279  1.076 .      S
C251  H280  1.074 .      S
C253  N85   1.437 .      S
C253  H281  1.099 .      S
C253  H282  1.105 .      S
C253  H283  1.099 .      S
N85   C254  1.423 .      S
N85   H284  1.032 .      S
C254  C255  1.454 .      S
C254  H285  1.100 .      S
C254  H286  1.101 .      S
C257  H287  1.075 .      S
C258  H288  1.081 .      S
C259  H289  1.081 1_556  S
C260  H290  1.075 1_556  S
N87   Zn44  2.261 1_556  S
H289  C259  1.081 1_554  S
H290  C260  1.075 1_554  S
C262  N88   1.456 .      S
C262  H291  1.106 .      S
C262  H292  1.104 .      S
C262  H293  1.106 .      S
N88   C263  1.450 .      S
N88   H294  1.040 .      S
C263  C264  1.487 .      S
C263  H295  1.096 .      S
C263  H296  1.106 .      S
C266  H297  1.074 .      S
C267  H298  1.081 .      S
C268  H299  1.081 .      S
C269  H300  1.077 .      S
C271  N91   1.453 .      S
C271  H301  1.109 .      S
C271  H302  1.109 .      S
C271  H303  1.109 .      S
N91   C272  1.451 .      S
N91   H304  1.039 .      S
C272  C273  1.501 .      S
C272  H305  1.104 .      S
C272  H306  1.107 .      S
C275  H307  1.058 .      S
C276  H308  1.067 .      S
C277  H309  1.073 .      S
C278  H310  1.041 .      S
C280  N94   1.455 .      S
C280  H311  1.102 .      S
C280  H312  1.094 .      S
C280  H313  1.105 .      S
N94   C281  1.449 .      S
N94   H314  1.043 .      S
C281  C282  1.478 .      S
C281  H315  1.057 .      S
C281  H316  1.091 .      S
C284  H317  1.079 .      S
C285  H318  1.081 .      S
C286  H319  1.075 .      S
C287  H320  1.066 .      S
C289  N97   1.451 .      S
C289  H321  1.102 .      S
C289  H322  1.107 .      S
C289  H323  1.106 .      S
N97   C290  1.451 .      S
N97   H324  1.041 .      S
C290  C291  1.494 .      S
C290  H325  1.107 .      S
C290  H326  1.108 .      S
C293  H327  1.067 .      S
C294  H328  1.081 .      S
C295  H329  1.081 .      S
C296  H330  1.079 .      S
C298  N100  1.452 .      S
C298  H331  1.108 .      S
C298  H332  1.099 .      S
C298  H333  1.101 .      S
N100  C299  1.459 .      S
N100  H334  1.036 .      S
C299  C300  1.481 .      S
C299  H335  1.091 .      S
C299  H336  1.086 .      S
C302  H337  1.062 .      S
C303  H338  1.081 .      S
C304  H339  1.081 .      S
C305  H340  1.074 .      S
C307  N103  1.460 .      S
C307  H341  1.107 .      S
C307  H342  1.104 .      S
C307  H343  1.104 .      S
N103  C308  1.448 .      S
N103  H344  1.033 .      S
C308  C309  1.518 .      S
C308  H345  1.094 .      S
C308  H346  1.102 .      S
C311  H347  1.075 .      S
C312  H348  1.081 .      S
C313  H349  1.081 .      S
C314  H350  1.081 .      S
C316  N106  1.453 .      S
C316  H351  1.107 .      S
C316  H352  1.103 .      S
C316  H353  1.103 .      S
N106  C317  1.438 .      S
N106  H354  1.043 .      S
C317  C318  1.451 .      S
C317  H355  1.067 .      S
C317  H356  1.103 .      S
C320  H357  1.079 .      S
C321  H358  1.081 .      S
C322  H359  1.081 .      S
C323  H360  1.081 .      S
C325  N109  1.450 .      S
C325  H361  1.106 .      S
C325  H362  1.105 .      S
C325  H363  1.106 .      S
N109  C326  1.454 .      S
N109  H364  1.042 .      S
C326  C327  1.460 .      S
C326  H365  1.082 .      S
C326  H366  1.082 .      S
C329  H367  1.075 .      S
C330  H368  1.081 .      S
C331  H369  1.081 .      S
C332  H370  1.071 .      S
C334  N112  1.450 .      S
C334  H371  1.107 .      S
C334  H372  1.104 .      S
C334  H373  1.099 .      S
N112  C335  1.448 .      S
N112  H374  1.042 .      S
C335  C336  1.449 .      S
C335  H375  1.095 .      S
C335  H376  1.102 .      S
C338  H377  1.077 .      S
C339  H378  1.076 .      S
C340  H379  1.081 .      S
C341  H380  1.079 .      S
C343  N115  1.455 .      S
C343  H381  1.097 .      S
C343  H382  1.107 .      S
C343  H383  1.106 .      S
N115  C344  1.446 .      S
N115  H384  1.036 .      S
C344  C345  1.493 .      S
C344  H385  1.093 .      S
C344  H386  1.100 .      S
C347  H387  1.071 .      S
C348  H388  1.081 .      S
C349  H389  1.080 .      S
C350  H390  1.073 .      S
C352  N118  1.452 .      S
C352  H391  1.106 .      S
C352  H392  1.107 .      S
C352  H393  1.108 .      S
N118  C353  1.452 .      S
N118  H394  1.042 .      S
C353  C354  1.464 .      S
C353  H395  1.074 .      S
C353  H396  1.089 .      S
C356  H397  1.065 .      S
C357  H398  1.081 .      S
C358  H399  1.081 .      S
C359  H400  1.079 .      S
C361  N121  1.451 .      S
C361  H401  1.099 .      S
C361  H402  1.097 .      S
C361  H403  1.097 .      S
N121  C362  1.454 .      S
N121  H404  1.033 .      S
C362  C363  1.459 .      S
C362  H405  1.074 .      S
C362  H406  1.095 .      S
C365  H407  1.059 .      S
C366  H408  1.077 .      S
C367  H409  1.073 .      S
C368  H410  1.065 .      S
C370  N124  1.435 .      S
C370  H411  1.087 .      S
C370  H412  1.099 .      S
C370  H413  1.095 .      S
N124  C371  1.435 .      S
N124  H414  1.032 .      S
C371  C372  1.479 .      S
C371  H415  1.094 .      S
C371  H416  1.091 .      S
C374  H417  1.059 .      S
C375  H418  1.081 .      S
C376  H419  1.081 .      S
C377  H420  1.073 .      S
C379  N127  1.459 .      S
C379  H421  1.107 .      S
C379  H422  1.082 .      S
C379  H423  1.087 .      S
N127  C380  1.447 .      S
N127  H424  1.020 .      S
C380  C381  1.425 .      S
C380  H425  1.098 .      S
C380  H426  1.097 .      S
C383  H427  1.076 .      S
C384  H428  1.081 .      S
C385  H429  1.081 .      S
C386  H430  1.078 .      S
C388  N130  1.454 .      S
C388  H431  1.107 .      S
C388  H432  1.108 .      S
C388  H433  1.107 .      S
N130  C389  1.457 .      S
N130  H434  1.042 .      S
C389  C390  1.480 .      S
C389  H435  1.088 .      S
C389  H436  1.090 .      S
C392  H437  1.076 .      S
C393  H438  1.081 .      S
C394  H439  1.081 .      S
C395  H440  1.069 .      S
C397  N133  1.447 .      S
C397  H441  1.101 .      S
C397  H442  1.108 .      S
C397  H443  1.106 .      S
N133  C398  1.444 .      S
N133  H444  1.032 .      S
C398  C399  1.493 .      S
C398  H445  1.101 .      S
C398  H446  1.083 .      S
C401  H447  1.071 .      S
C402  H448  1.081 .      S
C403  H449  1.079 .      S
C404  H450  1.076 .      S
C406  N136  1.456 .      S
C406  H451  1.108 .      S
C406  H452  1.109 .      S
C406  H453  1.108 .      S
N136  C407  1.441 .      S
N136  H454  1.037 .      S
C407  C408  1.485 .      S
C407  H455  1.092 .      S
C407  H456  1.109 .      S
C410  H457  1.033 .      S
C411  H458  1.075 .      S
C412  H459  1.080 .      S
C413  H460  1.026 .      S
C415  N139  1.453 .      S
C415  H461  1.109 .      S
C415  H462  1.107 .      S
C415  H463  1.106 .      S
N139  C416  1.449 .      S
N139  H464  1.042 .      S
C416  C417  1.470 .      S
C416  H465  1.101 .      S
C416  H466  1.095 .      S
C419  H467  1.063 .      S
C420  H468  1.081 .      S
C421  H469  1.077 .      S
C422  H470  1.069 .      S
C424  N142  1.454 .      S
C424  H471  1.105 .      S
C424  H472  1.102 .      S
C424  H473  1.101 .      S
N142  C425  1.458 .      S
N142  H474  1.043 .      S
C425  C426  1.475 .      S
C425  H475  1.082 .      S
C425  H476  1.092 .      S
C428  H477  1.076 .      S
C429  H478  1.081 .      S
C430  H479  1.081 .      S
C431  H480  1.077 .      S
C433  N145  1.445 .      S
C433  H481  1.108 .      S
C433  H482  1.098 .      S
C433  H483  1.105 .      S
N145  C434  1.447 .      S
N145  H484  1.043 .      S
C434  C435  1.489 .      S
C434  H485  1.104 .      S
C434  H486  1.094 .      S
C437  H487  1.069 .      S
C438  H488  1.079 .      S
C439  H489  1.065 .      S
C440  H490  1.053 .      S
C442  N148  1.459 .      S
C442  H491  1.104 1_554  S
C442  H492  1.107 .      S
C442  H493  1.109 .      S
N148  C443  1.450 .      S
N148  H494  1.044 .      S
C443  C444  1.454 1_554  S
C443  H495  1.102 .      S
C443  H496  1.079 1_554  S
C444  C443  1.454 1_556  S
C446  H497  1.080 .      S
C447  H498  1.081 .      S
C448  H499  1.081 .      S
C449  H500  1.063 .      S
H491  C442  1.104 1_556  S
H496  C443  1.079 1_556  S
C451  N151  1.461 .      S
C451  H501  1.104 1_556  S
C451  H502  1.104 .      S
C451  H503  1.107 .      S
N151  C452  1.469 1_556  S
N151  H504  1.034 .      S
C452  N151  1.469 1_554  S
C452  C453  1.448 .      S
C452  H505  1.094 .      S
C452  H506  1.076 1_554  S
C455  H507  1.081 .      S
C456  H508  1.081 .      S
C457  H509  1.081 .      S
C458  H510  1.079 .      S
H501  C451  1.104 1_554  S
H506  C452  1.076 1_556  S
C460  N154  1.459 .      S
C460  H511  1.108 .      S
C460  H512  1.109 .      S
C460  H513  1.103 .      S
N154  C461  1.446 .      S
N154  H514  1.036 .      S
C461  C462  1.505 .      S
C461  H515  1.102 .      S
C461  H516  1.102 .      S
C464  H517  1.071 .      S
C465  H518  1.081 .      S
C466  H519  1.081 .      S
C467  H520  1.078 .      S
C469  N157  1.449 .      S
C469  H521  1.101 .      S
C469  H522  1.104 .      S
C469  H523  1.106 .      S
N157  C470  1.406 .      S
N157  H524  1.028 .      S
C470  C471  1.484 .      S
C470  H525  1.064 .      S
C470  H526  1.094 .      S
C473  H527  1.076 .      S
C474  H528  1.081 .      S
C475  H529  1.081 .      S
C476  H530  1.062 .      S
C478  N160  1.455 .      S
C478  H531  1.104 .      S
C478  H532  1.108 .      S
C478  H533  1.109 .      S
N160  C479  1.446 .      S
N160  H534  1.037 .      S
C479  C480  1.500 .      S
C479  H535  1.108 .      S
C479  H536  1.106 .      S
C482  H537  1.073 .      S
C483  H538  1.081 .      S
C484  H539  1.080 .      S
C485  H540  1.058 .      S
C487  N163  1.450 .      S
C487  H541  1.108 .      S
C487  H542  1.102 .      S
C487  H543  1.106 .      S
N163  C488  1.441 .      S
N163  H544  1.026 .      S
C488  C489  1.483 .      S
C488  H545  1.097 .      S
C488  H546  1.103 .      S
C491  H547  1.064 .      S
C492  H548  1.081 .      S
C493  H549  1.081 .      S
C494  H550  1.075 .      S
C496  N166  1.451 .      S
C496  H551  1.109 .      S
C496  H552  1.108 .      S
C496  H553  1.108 .      S
N166  C497  1.441 .      S
N166  H554  1.034 .      S
C497  C498  1.492 .      S
C497  H555  1.098 .      S
C497  H556  1.103 .      S
C500  H557  1.069 .      S
C501  H558  1.074 .      S
C502  H559  1.081 .      S
C503  H560  1.068 .      S
C505  N169  1.447 .      S
C505  H561  1.102 .      S
C505  H562  1.105 .      S
C505  H563  1.096 .      S
N169  C506  1.445 .      S
N169  H564  1.041 .      S
C506  C507  1.464 .      S
C506  H565  1.099 .      S
C506  H566  1.100 .      S
C509  H567  1.062 1_545  S
C510  H568  1.081 .      S
C511  H569  1.081 .      S
C512  H570  1.074 .      S
H567  C509  1.062 1_565  S
C514  N172  1.441 .      S
C514  H571  1.104 .      S
C514  H572  1.065 .      S
C514  H573  1.102 .      S
N172  C515  1.426 .      S
N172  H574  1.031 .      S
C515  C516  1.444 .      S
C515  H575  1.104 .      S
C515  H576  1.100 .      S
C518  H577  1.080 .      S
C519  H578  1.081 .      S
C520  H579  1.081 .      S
C521  H580  1.078 1_565  S
N174  Zn31  2.134 1_565  S
H580  C521  1.078 1_545  S
C523  N175  1.451 .      S
C523  H581  1.108 .      S
C523  H582  1.108 .      S
C523  H583  1.109 .      S
N175  C524  1.450 .      S
N175  H584  1.040 .      S
C524  C525  1.485 .      S
C524  H585  1.084 .      S
C524  H586  1.109 .      S
C527  H587  1.054 .      S
C528  H588  1.072 .      S
C529  H589  1.062 .      S
C530  H590  1.061 .      S
C532  N178  1.448 .      S
C532  H591  1.105 .      S
C532  H592  1.107 .      S
C532  H593  1.103 .      S
N178  C533  1.443 1_565  S
N178  H594  1.040 .      S
C533  N178  1.443 1_545  S
C533  C534  1.471 .      S
C533  H595  1.102 .      S
C533  H596  1.106 .      S
C536  H597  1.061 1_545  S
C537  H598  1.072 .      S
C538  H599  1.073 .      S
C539  H600  1.068 .      S
H597  C536  1.061 1_565  S
C541  N181  1.453 .      S
C541  H601  1.109 .      S
C541  H602  1.109 .      S
C541  H603  1.109 .      S
N181  C542  1.453 .      S
N181  H604  1.041 .      S
C542  C543  1.487 .      S
C542  H605  1.109 .      S
C542  H606  1.100 .      S
C545  H607  1.057 .      S
C546  H608  1.080 .      S
C547  H609  1.079 .      S
C548  H610  1.047 .      S
C550  N184  1.444 .      S
C550  H611  1.083 .      S
C550  H612  1.090 .      S
C550  H613  1.105 .      S
N184  C551  1.450 .      S
N184  H614  1.027 .      S
C551  C552  1.463 .      S
C551  H615  1.093 .      S
C551  H616  1.085 .      S
C554  H617  1.076 .      S
C555  H618  1.079 .      S
C556  H619  1.081 .      S
C557  H620  1.079 .      S
C559  N187  1.453 .      S
C559  H621  1.107 .      S
C559  H622  1.107 .      S
C559  H623  1.109 .      S
N187  C560  1.437 .      S
N187  H624  1.037 .      S
C560  C561  1.484 .      S
C560  H625  1.081 .      S
C560  H626  1.104 .      S
C563  H627  1.057 .      S
C564  H628  1.073 .      S
C565  H629  1.070 .      S
C566  H630  1.061 .      S
C568  N190  1.441 .      S
C568  H631  1.097 .      S
C568  H632  1.110 .      S
C568  H633  1.104 .      S
N190  C569  1.438 .      S
N190  H634  1.041 .      S
C569  C570  1.478 .      S
C569  H635  1.108 .      S
C569  H636  1.091 .      S
C572  H637  1.077 .      S
C573  H638  1.081 .      S
C574  H639  1.081 .      S
C575  H640  1.076 .      S
C577  N193  1.457 .      S
C577  H641  1.106 .      S
C577  H642  1.109 .      S
C577  H643  1.107 .      S
N193  C578  1.435 .      S
N193  H644  1.039 .      S
C578  C579  1.471 .      S
C578  H645  1.093 .      S
C578  H646  1.108 .      S
C581  H647  1.048 .      S
C582  H648  1.073 .      S
C583  H649  1.079 .      S
C584  H650  1.063 .      S
C586  N196  1.454 .      S
C586  H651  1.109 .      S
C586  H652  1.107 .      S
C586  H653  1.109 .      S
N196  C587  1.457 .      S
N196  H654  1.043 .      S
C587  C588  1.499 .      S
C587  H655  1.105 .      S
C587  H656  1.097 .      S
C590  H657  1.075 .      S
C591  H658  1.081 .      S
C592  H659  1.081 .      S
C593  H660  1.060 .      S
C595  N199  1.448 .      S
C595  H661  1.100 .      S
C595  H662  1.107 .      S
C595  H663  1.100 .      S
N199  C596  1.443 .      S
N199  H664  1.032 .      S
C596  C597  1.488 .      S
C596  H665  1.100 .      S
C596  H666  1.109 .      S
C599  H667  1.060 .      S
C600  H668  1.076 1_455  S
C601  H669  1.081 1_455  S
C602  H670  1.068 .      S
H668  C600  1.076 1_655  S
H669  C601  1.081 1_655  S
C604  N202  1.457 .      S
C604  H671  1.090 .      S
C604  H672  1.077 .      S
C604  H673  1.083 .      S
N202  C605  1.438 .      S
N202  H674  1.030 .      S
C605  C606  1.462 .      S
C605  H675  1.082 .      S
C605  H676  1.100 .      S
C608  H677  1.043 .      S
C609  H678  1.081 .      S
C610  H679  1.066 .      S
C611  H680  1.063 .      S
C613  N205  1.443 .      S
C613  H681  1.093 .      S
C613  H682  1.096 .      S
C613  H683  1.074 .      S
N205  C614  1.431 .      S
N205  H684  1.032 .      S
C614  C615  1.417 .      S
C614  H685  1.096 .      S
C614  H686  1.094 .      S
C617  H687  1.079 .      S
C618  H688  1.080 .      S
C619  H689  1.054 .      S
C620  H690  1.061 .      S
N207  Zn16  2.171 1_455  S
C622  N208  1.427 .      S
C622  H691  1.087 .      S
C622  H692  1.099 .      S
C622  H693  1.091 .      S
N208  C623  1.437 .      S
N208  H694  1.041 .      S
C623  C624  1.405 .      S
C623  H695  1.055 .      S
C623  H696  1.078 .      S
C626  H697  1.075 .      S
C627  H698  1.081 1_556  S
C628  H699  1.081 .      S
C629  H700  1.076 .      S
H698  C627  1.081 1_554  S
C631  N211  1.445 .      S
C631  H701  1.106 .      S
C631  H702  1.101 .      S
C631  H703  1.108 .      S
N211  C632  1.442 .      S
N211  H704  1.038 .      S
C632  C633  1.470 .      S
C632  H705  1.105 .      S
C632  H706  1.109 .      S
C635  H707  1.048 .      S
C636  H708  1.081 .      S
C637  H709  1.081 .      S
C638  H710  1.076 .      S
C640  N214  1.455 .      S
C640  H711  1.106 .      S
C640  H712  1.108 .      S
C640  H713  1.107 .      S
N214  C641  1.453 .      S
N214  H714  1.043 .      S
C641  C642  1.481 .      S
C641  H715  1.097 .      S
C641  H716  1.087 .      S
C644  H717  1.068 .      S
C645  H718  1.081 .      S
C646  H719  1.081 .      S
C647  H720  1.075 .      S
C649  N217  1.460 .      S
C649  H721  1.108 .      S
C649  H722  1.107 .      S
C649  H723  1.097 .      S
N217  C650  1.451 .      S
N217  H724  1.039 .      S
C650  C651  1.475 .      S
C650  H725  1.081 .      S
C650  H726  1.091 .      S
C653  H727  1.080 .      S
C654  H728  1.081 .      S
C655  H729  1.081 .      S
C656  H730  1.075 .      S
C658  N220  1.458 .      S
C658  H731  1.107 .      S
C658  H732  1.109 .      S
C658  H733  1.107 .      S
N220  C659  1.449 .      S
N220  H734  1.036 .      S
C659  C660  1.502 .      S
C659  H735  1.098 .      S
C659  H736  1.107 .      S
C662  H737  1.072 .      S
C663  H738  1.081 .      S
C664  H739  1.080 .      S
C665  H740  1.067 .      S
N222  Zn16  2.263 1_455  S
C667  N223  1.453 .      S
C667  H741  1.104 .      S
C667  H742  1.108 .      S
C667  H743  1.088 .      S
N223  C668  1.435 .      S
N223  H744  1.021 .      S
C668  C669  1.450 .      S
C668  H745  1.077 .      S
C668  H746  1.081 .      S
C671  H747  1.076 .      S
C672  H748  1.081 .      S
C673  H749  1.081 .      S
C674  H750  1.076 .      S
C676  N226  1.457 .      S
C676  H751  1.108 .      S
C676  H752  1.108 .      S
C676  H753  1.106 .      S
N226  C677  1.455 .      S
N226  H754  1.040 .      S
C677  C678  1.471 .      S
C677  H755  1.096 .      S
C677  H756  1.088 .      S
N227  Zn43  2.223 1_455  S
C680  H757  1.072 .      S
C681  H758  1.081 .      S
C682  H759  1.078 .      S
C683  H760  1.059 .      S
C685  N229  1.459 .      S
C685  H761  1.107 .      S
C685  H762  1.099 .      S
C685  H763  1.105 .      S
N229  C686  1.468 .      S
N229  H764  1.044 .      S
C686  C687  1.441 .      S
C686  H765  1.065 .      S
C686  H766  1.064 .      S
C689  H767  1.076 .      S
C690  H768  1.081 1_554  S
C691  H769  1.081 .      S
C692  H770  1.076 .      S
H768  C690  1.081 1_556  S
C694  N232  1.455 .      S
C694  H771  1.109 .      S
C694  H772  1.107 .      S
C694  H773  1.107 .      S
N232  C695  1.451 .      S
N232  H774  1.036 .      S
C695  C696  1.499 .      S
C695  H775  1.092 .      S
C695  H776  1.108 1_556  S
C698  H777  1.075 .      S
C699  H778  1.081 .      S
C700  H779  1.073 .      S
C701  H780  1.075 .      S
H776  C695  1.108 1_554  S
C703  N235  1.458 .      S
C703  H781  1.108 .      S
C703  H782  1.109 .      S
C703  H783  1.107 .      S
N235  C704  1.452 .      S
N235  H784  1.029 .      S
C704  C705  1.492 1_554  S
C704  H785  1.104 1_554  S
C704  H786  1.106 .      S
C705  C704  1.492 1_556  S
N236  Zn38  2.030 1_556  S
C707  H787  1.065 .      S
C708  H788  1.078 .      S
C709  H789  1.074 .      S
C710  H790  1.054 .      S
H785  C704  1.104 1_556  S
C712  N238  1.452 .      S
C712  H791  1.108 .      S
C712  H792  1.109 .      S
C712  H793  1.101 1_556  S
N238  C713  1.453 .      S
N238  H794  1.044 .      S
C713  C714  1.487 .      S
C713  H795  1.105 .      S
C713  H796  1.107 .      S
C716  H797  1.072 .      S
C717  H798  1.081 .      S
C718  H799  1.080 .      S
C719  H800  1.067 1_556  S
N240  Zn38  2.294 1_556  S
H793  C712  1.101 1_554  S
H800  C719  1.067 1_554  S
C721  N241  1.419 .      S
C721  H801  1.097 .      S
C721  H802  1.086 .      S
C721  H803  1.077 .      S
N241  C722  1.423 .      S
N241  H804  1.037 .      S
C722  C723  1.447 .      S
C722  H805  1.098 .      S
C722  H806  1.081 .      S
C725  H807  1.075 .      S
C726  H808  1.081 .      S
C727  H809  1.080 .      S
C728  H810  1.080 .      S
C730  N244  1.460 .      S
C730  H811  1.087 .      S
C730  H812  1.106 .      S
C730  H813  1.093 .      S
N244  C731  1.459 .      S
N244  H814  1.039 .      S
C731  C732  1.473 .      S
C731  H815  1.091 .      S
C731  H816  1.098 .      S
C734  H817  1.080 .      S
C735  H818  1.081 .      S
C736  H819  1.081 .      S
C737  H820  1.078 .      S
N246  Zn43  2.129 1_455  S
C739  N247  1.448 .      S
C739  H821  1.109 .      S
C739  H822  1.109 .      S
C739  H823  1.108 .      S
N247  C740  1.451 .      S
N247  H824  1.044 .      S
C740  C741  1.477 .      S
C740  H825  1.101 .      S
C740  H826  1.103 .      S
C743  H827  1.076 .      S
C744  H828  1.081 .      S
C745  H829  1.080 1_545  S
C746  H830  1.071 1_545  S
H829  C745  1.080 1_565  S
H830  C746  1.071 1_565  S
C748  N250  1.436 .      S
C748  H831  1.099 .      S
C748  H832  1.099 .      S
C748  H833  1.098 .      S
N250  C749  1.438 .      S
N250  H834  1.039 .      S
C749  C750  1.452 .      S
C749  H835  1.094 .      S
C749  H836  1.106 .      S
C752  H837  1.065 .      S
C753  H838  1.081 .      S
C754  H839  1.080 .      S
C755  H840  1.062 .      S
C757  N253  1.436 .      S
C757  H841  1.095 .      S
C757  H842  1.080 .      S
C757  H843  1.106 .      S
N253  C758  1.434 .      S
N253  H844  1.029 .      S
C758  C759  1.448 .      S
C758  H845  1.082 .      S
C758  H846  1.081 .      S
C761  H847  1.067 .      S
C762  H848  1.081 .      S
C763  H849  1.081 .      S
C764  H850  1.080 .      S
C766  N256  1.439 .      S
C766  H851  1.089 .      S
C766  H852  1.079 .      S
C766  H853  1.096 .      S
N256  C767  1.443 .      S
N256  H854  1.033 .      S
C767  C768  1.456 .      S
C767  H855  1.104 .      S
C767  H856  1.094 .      S
C770  H857  1.073 .      S
C771  H858  1.081 .      S
C772  H859  1.081 .      S
C773  H860  1.076 .      S
C775  N259  1.440 .      S
C775  H861  1.088 .      S
C775  H862  1.101 .      S
C775  H863  1.097 .      S
N259  C776  1.431 .      S
N259  H864  1.033 .      S
C776  C777  1.461 .      S
C776  H865  1.104 .      S
C776  H866  1.099 .      S
C779  H867  1.070 .      S
C780  H868  1.071 .      S
C781  H869  1.080 .      S
C782  H870  1.072 .      S
C784  N262  1.455 .      S
C784  H871  1.108 .      S
C784  H872  1.107 .      S
C784  H873  1.106 .      S
N262  C785  1.458 .      S
N262  H874  1.044 .      S
C785  C786  1.480 .      S
C785  H875  1.106 .      S
C785  H876  1.097 .      S
C788  H877  1.044 .      S
C789  H878  1.080 .      S
C790  H879  1.081 .      S
C791  H880  1.051 .      S
C793  N265  1.419 .      S
C793  H881  1.102 .      S
C793  H882  1.083 .      S
C793  H883  1.098 .      S
N265  C794  1.415 .      S
N265  H884  1.030 .      S
C794  C795  1.430 .      S
C794  H885  1.099 .      S
C794  H886  1.104 .      S
C797  H887  1.066 .      S
C798  H888  1.079 .      S
C799  H889  1.078 .      S
C800  H890  1.053 .      S
C802  N268  1.452 .      S
C802  H891  1.108 .      S
C802  H892  1.109 .      S
C802  H893  1.110 .      S
N268  C803  1.452 .      S
N268  H894  1.044 .      S
C803  C804  1.484 .      S
C803  H895  1.102 .      S
C803  H896  1.099 .      S
N269  Zn44  2.178 1_556  S
C806  H897  1.028 .      S
C807  H898  1.071 .      S
C808  H899  1.078 .      S
C809  H900  1.077 .      S
C811  N271  1.438 .      S
C811  H901  1.101 1_556  S
C811  H902  1.095 .      S
C811  H903  1.096 .      S
N271  C812  1.435 .      S
N271  H904  1.034 .      S
C812  C813  1.474 .      S
C812  H905  1.092 .      S
C812  H906  1.105 .      S
C815  H907  1.064 .      S
C816  H908  1.063 .      S
C817  H909  1.081 .      S
C818  H910  1.073 .      S
H901  C811  1.101 1_554  S
C820  N274  1.456 .      S
C820  H911  1.108 .      S
C820  H912  1.109 .      S
C820  H913  1.100 .      S
N274  C821  1.449 .      S
N274  H914  1.038 .      S
C821  C822  1.493 .      S
C821  H915  1.101 .      S
C821  H916  1.092 .      S
C824  H917  1.071 .      S
C825  H918  1.081 .      S
C826  H919  1.081 .      S
C827  H920  1.060 .      S
C829  N277  1.458 .      S
C829  H921  1.109 .      S
C829  H922  1.107 .      S
C829  H923  1.103 .      S
N277  C830  1.443 .      S
N277  H924  1.039 .      S
C830  C831  1.482 .      S
C830  H925  1.086 .      S
C830  H926  1.101 .      S
C833  H927  1.067 .      S
C834  H928  1.081 .      S
C835  H929  1.081 .      S
C836  H930  1.063 .      S
C838  N280  1.450 .      S
C838  H931  1.109 .      S
C838  H932  1.107 .      S
C838  H933  1.109 .      S
N280  C839  1.450 .      S
N280  H934  1.044 .      S
C839  C840  1.490 .      S
C839  H935  1.104 .      S
C839  H936  1.104 .      S
C842  H937  1.073 .      S
C843  H938  1.081 .      S
C844  H939  1.081 .      S
C845  H940  1.059 .      S
C847  N283  1.450 .      S
C847  H941  1.105 .      S
C847  H942  1.103 .      S
C847  H943  1.103 .      S
N283  C848  1.434 .      S
N283  H944  1.042 .      S
C848  C849  1.487 .      S
C848  H945  1.102 .      S
C848  H946  1.095 .      S
C851  H947  1.075 .      S
C852  H948  1.081 .      S
C853  H949  1.081 1_556  S
C854  H950  1.072 .      S
H949  C853  1.081 1_554  S
C856  N286  1.442 .      S
C856  H951  1.102 .      S
C856  H952  1.107 .      S
C856  H953  1.106 .      S
N286  C857  1.450 .      S
N286  H954  1.038 .      S
C857  C858  1.455 .      S
C857  H955  1.104 .      S
C857  H956  1.095 .      S
C860  H957  1.076 .      S
C861  H958  1.061 .      S
C862  H959  1.081 .      S
C863  H960  1.074 .      S
C3    N2    1.378 .      A
C3    N3    1.357 .      A
N2    C4    1.354 .      A
C4    C5    1.367 .      A
C4    C9    1.355 .      A
C5    C6    1.385 .      A
C6    C7    1.389 .      A
C7    C8    1.381 .      A
C8    C9    1.369 .      A
C9    N3    1.335 .      A
C12   N5    1.381 .      A
C12   N6    1.400 .      A
N5    C13   1.350 .      A
C13   C14   1.364 .      A
C13   C18   1.346 .      A
C14   C15   1.379 .      A
C15   C16   1.377 .      A
C16   C17   1.376 .      A
C17   C18   1.369 .      A
C18   N6    1.340 .      A
C21   N8    1.372 .      A
C21   N9    1.382 .      A
N8    C22   1.358 .      A
C22   C23   1.369 .      A
C22   C27   1.366 .      A
C23   C24   1.383 .      A
C24   C25   1.386 .      A
C25   C26   1.380 .      A
C26   C27   1.374 .      A
C27   N9    1.342 .      A
C30   N11   1.383 .      A
C30   N12   1.379 .      A
N11   C31   1.346 .      A
C31   C32   1.370 .      A
C31   C36   1.375 .      A
C32   C33   1.383 .      A
C33   C34   1.391 .      A
C34   C35   1.385 .      A
C35   C36   1.373 .      A
C36   N12   1.353 .      A
C39   N14   1.393 .      A
C39   N15   1.383 .      A
N14   C40   1.343 .      A
C40   C41   1.348 .      A
C40   C45   1.346 .      A
C41   C42   1.364 .      A
C42   C43   1.369 .      A
C43   C44   1.364 .      A
C44   C45   1.356 .      A
C45   N15   1.333 .      A
C48   N17   1.386 .      A
C48   N18   1.397 .      A
N17   C49   1.347 .      A
C49   C50   1.358 .      A
C49   C54   1.359 .      A
C50   C51   1.380 .      A
C51   C52   1.384 .      A
C52   C53   1.380 .      A
C53   C54   1.369 .      A
C54   N18   1.342 .      A
C57   N20   1.400 .      A
C57   N21   1.398 .      A
N20   C58   1.352 .      A
C58   C59   1.366 .      A
C58   C63   1.365 .      A
C59   C60   1.385 .      A
C60   C61   1.385 .      A
C61   C62   1.379 .      A
C62   C63   1.359 .      A
C63   N21   1.338 .      A
C66   N23   1.393 .      A
C66   N24   1.396 .      A
N23   C67   1.338 .      A
C67   C68   1.373 .      A
C67   C72   1.363 .      A
C68   C69   1.374 .      A
C69   C70   1.377 .      A
C70   C71   1.378 .      A
C71   C72   1.373 .      A
C72   N24   1.363 .      A
C75   N26   1.393 .      A
C75   N27   1.396 .      A
N26   C76   1.349 .      A
C76   C77   1.344 .      A
C76   C81   1.353 .      A
C77   C78   1.386 .      A
C78   C79   1.379 .      A
C79   C80   1.377 .      A
C80   C81   1.369 .      A
C81   N27   1.337 .      A
C84   N29   1.371 .      A
C84   N30   1.385 .      A
N29   C85   1.351 .      A
C85   C86   1.371 .      A
C85   C90   1.366 .      A
C86   C87   1.384 .      A
C87   C88   1.390 .      A
C88   C89   1.384 .      A
C89   C90   1.371 .      A
C90   N30   1.347 .      A
C93   N32   1.390 .      A
C93   N33   1.396 .      A
N32   C94   1.344 1_545  A
C94   N32   1.344 1_565  A
C94   C95   1.370 .      A
C94   C99   1.345 .      A
C95   C96   1.378 .      A
C96   C97   1.380 .      A
C97   C98   1.380 .      A
C98   C99   1.363 .      A
C99   N33   1.348 1_565  A
N33   C99   1.348 1_545  A
C102  N35   1.390 .      A
C102  N36   1.384 .      A
N35   C103  1.351 .      A
C103  C104  1.365 .      A
C103  C108  1.371 .      A
C104  C105  1.386 .      A
C105  C106  1.392 .      A
C106  C107  1.384 .      A
C107  C108  1.370 .      A
C108  N36   1.342 .      A
C111  N38   1.413 1_655  A
C111  N39   1.414 .      A
N38   C111  1.413 1_455  A
N38   C112  1.350 .      A
C112  C113  1.370 .      A
C112  C117  1.386 1_455  A
C113  C114  1.386 .      A
C114  C115  1.393 1_455  A
C115  C114  1.393 1_655  A
C115  C116  1.385 .      A
C116  C117  1.371 .      A
C117  C112  1.386 1_655  A
C117  N39   1.351 .      A
C120  N41   1.397 .      A
C120  N42   1.390 .      A
N41   C121  1.349 .      A
C121  C122  1.371 1_545  A
C121  C126  1.371 1_545  A
C122  C121  1.371 1_565  A
C122  C123  1.383 .      A
C123  C124  1.390 .      A
C124  C125  1.383 .      A
C125  C126  1.373 .      A
C126  C121  1.371 1_565  A
C126  N42   1.349 1_565  A
N42   C126  1.349 1_545  A
C129  N44   1.368 .      A
C129  N45   1.401 .      A
N44   C130  1.348 .      A
C130  C131  1.367 .      A
C130  C135  1.373 .      A
C131  C132  1.385 .      A
C132  C133  1.391 .      A
C133  C134  1.384 .      A
C134  C135  1.372 .      A
C135  N45   1.347 .      A
C138  N47   1.409 1_655  A
C138  N48   1.389 .      A
N47   C138  1.409 1_455  A
N47   C139  1.354 .      A
C139  C140  1.376 .      A
C139  C144  1.378 1_455  A
C140  C141  1.383 .      A
C141  C142  1.388 1_455  A
C142  C141  1.388 1_655  A
C142  C143  1.383 .      A
C143  C144  1.374 .      A
C144  C139  1.378 1_655  A
C144  N48   1.351 .      A
C147  N50   1.379 .      A
C147  N51   1.384 .      A
N50   C148  1.347 .      A
C148  C149  1.367 .      A
C148  C153  1.366 .      A
C149  C150  1.384 .      A
C150  C151  1.389 .      A
C151  C152  1.384 .      A
C152  C153  1.376 .      A
C153  N51   1.345 .      A
C156  N53   1.396 .      A
C156  N54   1.378 .      A
N53   C157  1.339 .      A
C157  C158  1.365 .      A
C157  C162  1.369 .      A
C158  C159  1.378 .      A
C159  C160  1.392 .      A
C160  C161  1.370 .      A
C161  C162  1.359 .      A
C162  N54   1.343 .      A
C165  N56   1.393 .      A
C165  N57   1.385 .      A
N56   C166  1.340 .      A
C166  C167  1.369 .      A
C166  C171  1.345 .      A
C167  C168  1.379 .      A
C168  C169  1.383 .      A
C169  C170  1.383 .      A
C170  C171  1.353 .      A
C171  N57   1.341 .      A
C174  N59   1.380 .      A
C174  N60   1.379 .      A
N59   C175  1.311 .      A
C175  C176  1.356 .      A
C175  C180  1.311 .      A
C176  C177  1.356 .      A
C177  C178  1.364 .      A
C178  C179  1.362 .      A
C179  C180  1.313 .      A
C180  N60   1.337 .      A
C183  N62   1.402 .      A
C183  N63   1.405 .      A
N62   C184  1.346 .      A
C184  C185  1.366 .      A
C184  C189  1.375 .      A
C185  C186  1.385 .      A
C186  C187  1.389 .      A
C187  C188  1.383 .      A
C188  C189  1.372 .      A
C189  N63   1.353 .      A
C192  N65   1.396 .      A
C192  N66   1.405 .      A
N65   C193  1.361 .      A
C193  C194  1.378 .      A
C193  C198  1.375 .      A
C194  C195  1.384 .      A
C195  C196  1.387 .      A
C196  C197  1.381 .      A
C197  C198  1.371 .      A
C198  N66   1.341 .      A
C201  N68   1.402 .      A
C201  N69   1.375 .      A
N68   C202  1.349 .      A
C202  C203  1.366 .      A
C202  C207  1.369 .      A
C203  C204  1.381 .      A
C204  C205  1.388 .      A
C205  C206  1.381 .      A
C206  C207  1.368 .      A
C207  N69   1.342 .      A
C210  N71   1.374 .      A
C210  N72   1.371 .      A
N71   C211  1.351 .      A
C211  C212  1.374 .      A
C211  C216  1.371 .      A
C212  C213  1.383 .      A
C213  C214  1.390 .      A
C214  C215  1.384 .      A
C215  C216  1.375 .      A
C216  N72   1.351 .      A
C219  N74   1.397 .      A
C219  N75   1.407 .      A
N74   C220  1.348 .      A
C220  C221  1.355 .      A
C220  C225  1.366 .      A
C221  C222  1.369 .      A
C222  C223  1.371 .      A
C223  C224  1.387 .      A
C224  C225  1.368 .      A
C225  N75   1.342 .      A
C228  N77   1.397 .      A
C228  N78   1.413 .      A
N77   C229  1.346 .      A
C229  C230  1.373 .      A
C229  C234  1.378 .      A
C230  C231  1.378 .      A
C231  C232  1.382 .      A
C232  C233  1.382 .      A
C233  C234  1.382 .      A
C234  N78   1.363 .      A
C237  N80   1.388 .      A
C237  N81   1.380 .      A
N80   C238  1.350 .      A
C238  C239  1.366 .      A
C238  C243  1.360 .      A
C239  C240  1.383 .      A
C240  C241  1.387 .      A
C241  C242  1.383 .      A
C242  C243  1.364 .      A
C243  N81   1.337 .      A
C246  N83   1.373 .      A
C246  N84   1.375 .      A
N83   C247  1.366 .      A
C247  C248  1.375 .      A
C247  C252  1.352 .      A
C248  C249  1.382 .      A
C249  C250  1.378 .      A
C250  C251  1.375 .      A
C251  C252  1.367 .      A
C252  N84   1.327 .      A
C255  N86   1.398 .      A
C255  N87   1.411 .      A
N86   C256  1.345 .      A
C256  C257  1.368 .      A
C256  C261  1.383 .      A
C257  C258  1.383 .      A
C258  C259  1.389 .      A
C259  C260  1.385 .      A
C260  C261  1.372 .      A
C261  N87   1.355 .      A
C264  N89   1.386 .      A
C264  N90   1.383 .      A
N89   C265  1.347 .      A
C265  C266  1.373 .      A
C265  C270  1.361 .      A
C266  C267  1.384 .      A
C267  C268  1.390 .      A
C268  C269  1.384 .      A
C269  C270  1.373 .      A
C270  N90   1.343 .      A
C273  N92   1.384 .      A
C273  N93   1.379 .      A
N92   C274  1.331 .      A
C274  C275  1.365 .      A
C274  C279  1.320 .      A
C275  C276  1.371 .      A
C276  C277  1.359 .      A
C277  C278  1.357 .      A
C278  C279  1.343 .      A
C279  N93   1.333 .      A
C282  N95   1.389 .      A
C282  N96   1.371 .      A
N95   C283  1.340 .      A
C283  C284  1.373 .      A
C283  C288  1.364 .      A
C284  C285  1.376 .      A
C285  C286  1.383 .      A
C286  C287  1.385 .      A
C287  C288  1.371 .      A
C288  N96   1.355 .      A
C291  N98   1.377 .      A
C291  N99   1.397 .      A
N98   C292  1.359 .      A
C292  C293  1.377 .      A
C292  C297  1.355 .      A
C293  C294  1.384 .      A
C294  C295  1.385 .      A
C295  C296  1.379 .      A
C296  C297  1.374 .      A
C297  N99   1.338 .      A
C300  N101  1.372 .      A
C300  N102  1.367 .      A
N101  C301  1.343 .      A
C301  C302  1.361 .      A
C301  C306  1.368 .      A
C302  C303  1.379 .      A
C303  C304  1.379 .      A
C304  C305  1.380 .      A
C305  C306  1.376 .      A
C306  N102  1.348 .      A
C309  N104  1.387 .      A
C309  N105  1.400 .      A
N104  C310  1.347 .      A
C310  C311  1.364 .      A
C310  C315  1.366 .      A
C311  C312  1.386 .      A
C312  C313  1.389 .      A
C313  C314  1.381 .      A
C314  C315  1.369 .      A
C315  N105  1.338 .      A
C318  N107  1.379 .      A
C318  N108  1.398 .      A
N107  C319  1.349 .      A
C319  C320  1.372 .      A
C319  C324  1.378 .      A
C320  C321  1.385 .      A
C321  C322  1.392 .      A
C322  C323  1.385 .      A
C323  C324  1.370 .      A
C324  N108  1.348 .      A
C327  N110  1.416 .      A
C327  N111  1.391 .      A
N110  C328  1.348 .      A
C328  C329  1.373 .      A
C328  C333  1.381 .      A
C329  C330  1.380 .      A
C330  C331  1.385 .      A
C331  C332  1.383 .      A
C332  C333  1.377 .      A
C333  N111  1.360 .      A
C336  N113  1.372 .      A
C336  N114  1.369 .      A
N113  C337  1.355 .      A
C337  C338  1.369 .      A
C337  C342  1.358 .      A
C338  C339  1.387 .      A
C339  C340  1.383 .      A
C340  C341  1.376 .      A
C341  C342  1.373 .      A
C342  N114  1.337 .      A
C345  N116  1.389 .      A
C345  N117  1.385 .      A
N116  C346  1.346 .      A
C346  C347  1.363 .      A
C346  C351  1.352 .      A
C347  C348  1.383 .      A
C348  C349  1.388 .      A
C349  C350  1.385 .      A
C350  C351  1.366 .      A
C351  N117  1.339 .      A
C354  N119  1.369 .      A
C354  N120  1.394 .      A
N119  C355  1.347 .      A
C355  C356  1.364 .      A
C355  C360  1.359 .      A
C356  C357  1.383 .      A
C357  C358  1.387 .      A
C358  C359  1.383 .      A
C359  C360  1.378 .      A
C360  N120  1.353 .      A
C363  N122  1.370 .      A
C363  N123  1.407 .      A
N122  C364  1.361 .      A
C364  C365  1.377 .      A
C364  C369  1.365 .      A
C365  C366  1.376 .      A
C366  C367  1.375 .      A
C367  C368  1.368 .      A
C368  C369  1.369 .      A
C369  N123  1.341 .      A
C372  N125  1.378 .      A
C372  N126  1.359 .      A
N125  C373  1.348 .      A
C373  C374  1.363 .      A
C373  C378  1.351 .      A
C374  C375  1.383 .      A
C375  C376  1.388 .      A
C376  C377  1.383 .      A
C377  C378  1.375 .      A
C378  N126  1.346 .      A
C381  N128  1.363 .      A
C381  N129  1.370 .      A
N128  C382  1.356 .      A
C382  C383  1.372 .      A
C382  C387  1.376 .      A
C383  C384  1.385 .      A
C384  C385  1.390 .      A
C385  C386  1.383 .      A
C386  C387  1.373 .      A
C387  N129  1.346 .      A
C390  N131  1.371 .      A
C390  N132  1.384 .      A
N131  C391  1.341 .      A
C391  C392  1.372 .      A
C391  C396  1.364 .      A
C392  C393  1.382 .      A
C393  C394  1.388 .      A
C394  C395  1.384 .      A
C395  C396  1.372 .      A
C396  N132  1.356 .      A
C399  N134  1.395 .      A
C399  N135  1.387 .      A
N134  C400  1.341 .      A
C400  C401  1.373 .      A
C400  C405  1.358 .      A
C401  C402  1.381 .      A
C402  C403  1.384 .      A
C403  C404  1.383 .      A
C404  C405  1.366 .      A
C405  N135  1.351 .      A
C408  N137  1.383 .      A
C408  N138  1.378 .      A
N137  C409  1.356 .      A
C409  C410  1.382 .      A
C409  C414  1.328 .      A
C410  C411  1.377 .      A
C411  C412  1.358 .      A
C412  C413  1.361 .      A
C413  C414  1.345 .      A
C414  N138  1.333 .      A
C417  N140  1.376 .      A
C417  N141  1.379 .      A
N140  C418  1.337 .      A
C418  C419  1.367 .      A
C418  C423  1.357 .      A
C419  C420  1.378 .      A
C420  C421  1.383 .      A
C421  C422  1.383 .      A
C422  C423  1.355 .      A
C423  N141  1.348 .      A
C426  N143  1.377 .      A
C426  N144  1.373 .      A
N143  C427  1.354 .      A
C427  C428  1.371 .      A
C427  C432  1.360 .      A
C428  C429  1.386 .      A
C429  C430  1.389 .      A
C430  C431  1.385 .      A
C431  C432  1.370 .      A
C432  N144  1.343 .      A
C435  N146  1.411 .      A
C435  N147  1.390 .      A
N146  C436  1.332 .      A
C436  C437  1.373 .      A
C436  C441  1.346 .      A
C437  C438  1.376 .      A
C438  C439  1.383 .      A
C439  C440  1.366 .      A
C440  C441  1.335 .      A
C441  N147  1.337 .      A
C444  N149  1.394 1_556  A
C444  N150  1.389 .      A
N149  C444  1.394 1_554  A
N149  C445  1.339 .      A
C445  C446  1.371 .      A
C445  C450  1.373 1_554  A
C446  C447  1.380 .      A
C447  C448  1.387 1_554  A
C448  C447  1.387 1_556  A
C448  C449  1.385 .      A
C449  C450  1.377 .      A
C450  C445  1.373 1_556  A
C450  N150  1.366 .      A
C453  N152  1.400 .      A
C453  N153  1.381 .      A
N152  C454  1.340 .      A
C454  C455  1.368 .      A
C454  C459  1.376 .      A
C455  C456  1.382 .      A
C456  C457  1.388 .      A
C457  C458  1.385 .      A
C458  C459  1.374 .      A
C459  N153  1.361 .      A
C462  N155  1.405 .      A
C462  N156  1.400 .      A
N155  C463  1.358 .      A
C463  C464  1.374 .      A
C463  C468  1.368 .      A
C464  C465  1.384 .      A
C465  C466  1.387 .      A
C466  C467  1.380 .      A
C467  C468  1.372 .      A
C468  N156  1.339 .      A
C471  N158  1.399 .      A
C471  N159  1.377 .      A
N158  C472  1.341 .      A
C472  C473  1.371 .      A
C472  C477  1.364 .      A
C473  C474  1.379 .      A
C474  C475  1.384 .      A
C475  C476  1.382 .      A
C476  C477  1.372 .      A
C477  N159  1.355 .      A
C480  N161  1.387 .      A
C480  N162  1.383 .      A
N161  C481  1.340 .      A
C481  C482  1.369 .      A
C481  C486  1.347 .      A
C482  C483  1.381 .      A
C483  C484  1.385 .      A
C484  C485  1.379 .      A
C485  C486  1.359 .      A
C486  N162  1.343 .      A
C489  N164  1.392 .      A
C489  N165  1.386 .      A
N164  C490  1.353 .      A
C490  C491  1.370 .      A
C490  C495  1.368 .      A
C491  C492  1.383 .      A
C492  C493  1.387 .      A
C493  C494  1.381 .      A
C494  C495  1.370 .      A
C495  N165  1.345 .      A
C498  N167  1.391 1_565  A
C498  N168  1.402 1_565  A
N167  C498  1.391 1_545  A
N167  C499  1.337 .      A
C499  C500  1.360 .      A
C499  C504  1.355 .      A
C500  C501  1.382 .      A
C501  C502  1.380 .      A
C502  C503  1.377 .      A
C503  C504  1.360 .      A
C504  N168  1.349 .      A
N168  C498  1.402 1_545  A
C507  N170  1.403 .      A
C507  N171  1.386 .      A
N170  C508  1.367 .      A
C508  C509  1.375 .      A
C508  C513  1.377 .      A
C509  C510  1.384 1_545  A
C510  C509  1.384 1_565  A
C510  C511  1.385 1_565  A
C511  C510  1.385 1_545  A
C511  C512  1.378 .      A
C512  C513  1.368 .      A
C513  N171  1.337 .      A
C516  N173  1.382 .      A
C516  N174  1.374 .      A
N173  C517  1.349 .      A
C517  C518  1.371 .      A
C517  C522  1.373 .      A
C518  C519  1.384 .      A
C519  C520  1.391 .      A
C520  C521  1.384 .      A
C521  C522  1.368 .      A
C522  N174  1.350 .      A
C525  N176  1.391 .      A
C525  N177  1.394 .      A
N176  C526  1.332 1_545  A
C526  N176  1.332 1_565  A
C526  C527  1.352 .      A
C526  C531  1.346 .      A
C527  C528  1.360 .      A
C528  C529  1.370 .      A
C529  C530  1.365 .      A
C530  C531  1.351 .      A
C531  N177  1.338 1_565  A
N177  C531  1.338 1_545  A
C534  N179  1.377 .      A
C534  N180  1.387 .      A
N179  C535  1.337 .      A
C535  C536  1.355 .      A
C535  C540  1.351 .      A
C536  C537  1.368 .      A
C537  C538  1.367 .      A
C538  C539  1.367 .      A
C539  C540  1.398 .      A
C540  N180  1.373 .      A
C543  N182  1.404 .      A
C543  N183  1.391 .      A
N182  C544  1.340 .      A
C544  C545  1.370 .      A
C544  C549  1.357 .      A
C545  C546  1.373 .      A
C546  C547  1.374 .      A
C547  C548  1.376 .      A
C548  C549  1.372 .      A
C549  N183  1.361 .      A
C552  N185  1.371 .      A
C552  N186  1.378 .      A
N185  C553  1.347 .      A
C553  C554  1.373 .      A
C553  C558  1.361 .      A
C554  C555  1.385 .      A
C555  C556  1.391 .      A
C556  C557  1.383 .      A
C557  C558  1.375 .      A
C558  N186  1.352 .      A
C561  N188  1.402 .      A
C561  N189  1.403 .      A
N188  C562  1.338 .      A
C562  C563  1.362 .      A
C562  C567  1.350 .      A
C563  C564  1.367 .      A
C564  C565  1.376 .      A
C565  C566  1.355 .      A
C566  C567  1.345 .      A
C567  N189  1.334 .      A
C570  N191  1.383 .      A
C570  N192  1.391 .      A
N191  C571  1.342 .      A
C571  C572  1.366 .      A
C571  C576  1.365 .      A
C572  C573  1.384 .      A
C573  C574  1.391 .      A
C574  C575  1.385 .      A
C575  C576  1.370 .      A
C576  N192  1.351 .      A
C579  N194  1.394 .      A
C579  N195  1.401 .      A
N194  C580  1.349 .      A
C580  C581  1.354 .      A
C580  C585  1.351 .      A
C581  C582  1.364 .      A
C582  C583  1.382 .      A
C583  C584  1.375 .      A
C584  C585  1.363 .      A
C585  N195  1.332 .      A
C588  N197  1.384 .      A
C588  N198  1.380 .      A
N197  C589  1.332 .      A
C589  C590  1.370 .      A
C589  C594  1.364 .      A
C590  C591  1.377 .      A
C591  C592  1.384 .      A
C592  C593  1.384 .      A
C593  C594  1.378 .      A
C594  N198  1.365 .      A
C597  N200  1.396 .      A
C597  N201  1.385 .      A
N200  C598  1.354 .      A
C598  C599  1.370 .      A
C598  C603  1.356 .      A
C599  C600  1.376 .      A
C600  C601  1.376 .      A
C601  C602  1.376 .      A
C602  C603  1.385 .      A
C603  N201  1.351 .      A
C606  N203  1.366 .      A
C606  N204  1.390 .      A
N203  C607  1.346 .      A
C607  C608  1.369 .      A
C607  C612  1.357 .      A
C608  C609  1.362 .      A
C609  C610  1.367 .      A
C610  C611  1.381 .      A
C611  C612  1.356 .      A
C612  N204  1.347 .      A
C615  N206  1.371 .      A
C615  N207  1.375 .      A
N206  C616  1.316 .      A
C616  C617  1.365 .      A
C616  C621  1.365 1_455  A
C617  C618  1.360 1_455  A
C618  C617  1.360 1_655  A
C618  C619  1.374 .      A
C619  C620  1.396 .      A
C620  C621  1.366 .      A
C621  C616  1.365 1_655  A
C621  N207  1.370 1_655  A
N207  C621  1.370 1_455  A
C624  N209  1.385 .      A
C624  N210  1.367 .      A
N209  C625  1.348 .      A
C625  C626  1.375 .      A
C625  C630  1.367 .      A
C626  C627  1.382 .      A
C627  C628  1.387 .      A
C628  C629  1.383 .      A
C629  C630  1.377 .      A
C630  N210  1.357 .      A
C633  N212  1.396 .      A
C633  N213  1.388 .      A
N212  C634  1.360 .      A
C634  C635  1.366 .      A
C634  C639  1.366 .      A
C635  C636  1.382 .      A
C636  C637  1.384 .      A
C637  C638  1.381 .      A
C638  C639  1.369 .      A
C639  N213  1.337 .      A
C642  N215  1.387 .      A
C642  N216  1.390 .      A
N215  C643  1.349 .      A
C643  C644  1.375 .      A
C643  C648  1.364 .      A
C644  C645  1.382 .      A
C645  C646  1.385 .      A
C646  C647  1.381 .      A
C647  C648  1.367 .      A
C648  N216  1.343 .      A
C651  N218  1.364 .      A
C651  N219  1.377 .      A
N218  C652  1.346 .      A
C652  C653  1.374 .      A
C652  C657  1.366 .      A
C653  C654  1.383 .      A
C654  C655  1.390 .      A
C655  C656  1.385 .      A
C656  C657  1.374 .      A
C657  N219  1.351 .      A
C660  N221  1.409 .      A
C660  N222  1.413 .      A
N221  C661  1.351 .      A
C661  C662  1.374 .      A
C661  C666  1.370 .      A
C662  C663  1.381 .      A
C663  C664  1.386 .      A
C664  C665  1.383 .      A
C665  C666  1.364 .      A
C666  N222  1.346 .      A
C669  N224  1.390 .      A
C669  N225  1.388 .      A
N224  C670  1.353 .      A
C670  C671  1.370 .      A
C670  C675  1.370 .      A
C671  C672  1.385 .      A
C672  C673  1.389 .      A
C673  C674  1.383 .      A
C674  C675  1.372 .      A
C675  N225  1.346 .      A
C678  N227  1.402 .      A
C678  N228  1.405 .      A
N227  C679  1.347 .      A
C679  C680  1.370 1_455  A
C679  C684  1.376 .      A
C680  C679  1.370 1_655  A
C680  C681  1.381 .      A
C681  C682  1.386 1_655  A
C682  C681  1.386 1_455  A
C682  C683  1.383 .      A
C683  C684  1.355 .      A
C684  N228  1.347 .      A
C687  N230  1.377 .      A
C687  N231  1.393 .      A
N230  C688  1.354 .      A
C688  C689  1.371 .      A
C688  C693  1.390 .      A
C689  C690  1.384 .      A
C690  C691  1.389 .      A
C691  C692  1.384 .      A
C692  C693  1.370 .      A
C693  N231  1.349 .      A
C696  N233  1.394 1_556  A
C696  N234  1.406 .      A
N233  C696  1.394 1_554  A
N233  C697  1.332 .      A
C697  C698  1.362 .      A
C697  C702  1.359 1_554  A
C698  C699  1.381 .      A
C699  C700  1.384 .      A
C700  C701  1.387 1_554  A
C701  C700  1.387 1_556  A
C701  C702  1.364 .      A
C702  C697  1.359 1_556  A
C702  N234  1.347 .      A
C705  N236  1.392 .      A
C705  N237  1.390 .      A
N236  C706  1.325 .      A
C706  C707  1.362 .      A
C706  C711  1.330 .      A
C707  C708  1.360 .      A
C708  C709  1.372 .      A
C709  C710  1.372 .      A
C710  C711  1.341 .      A
C711  N237  1.336 .      A
C714  N239  1.420 .      A
C714  N240  1.414 .      A
N239  C715  1.342 .      A
C715  C716  1.364 .      A
C715  C720  1.370 .      A
C716  C717  1.381 .      A
C717  C718  1.387 .      A
C718  C719  1.384 .      A
C719  C720  1.369 .      A
C720  N240  1.353 .      A
C723  N242  1.377 .      A
C723  N243  1.359 .      A
N242  C724  1.351 .      A
C724  C725  1.371 .      A
C724  C729  1.366 .      A
C725  C726  1.388 .      A
C726  C727  1.389 .      A
C727  C728  1.385 .      A
C728  C729  1.370 .      A
C729  N243  1.341 .      A
C732  N245  1.393 .      A
C732  N246  1.387 .      A
N245  C733  1.358 .      A
C733  C734  1.378 .      A
C733  C738  1.368 .      A
C734  C735  1.385 .      A
C735  C736  1.389 .      A
C736  C737  1.383 .      A
C737  C738  1.368 .      A
C738  N246  1.344 .      A
C741  N248  1.397 .      A
C741  N249  1.380 .      A
N248  C742  1.349 .      A
C742  C743  1.375 .      A
C742  C747  1.370 .      A
C743  C744  1.382 .      A
C744  C745  1.386 .      A
C745  C746  1.382 .      A
C746  C747  1.373 .      A
C747  N249  1.349 .      A
C750  N251  1.397 .      A
C750  N252  1.390 .      A
N251  C751  1.353 .      A
C751  C752  1.365 .      A
C751  C756  1.373 .      A
C752  C753  1.379 .      A
C753  C754  1.383 .      A
C754  C755  1.381 .      A
C755  C756  1.368 .      A
C756  N252  1.348 .      A
C759  N254  1.405 .      A
C759  N255  1.391 .      A
N254  C760  1.360 .      A
C760  C761  1.369 .      A
C760  C765  1.383 .      A
C761  C762  1.385 .      A
C762  C763  1.390 .      A
C763  C764  1.383 .      A
C764  C765  1.372 .      A
C765  N255  1.344 .      A
C768  N257  1.388 .      A
C768  N258  1.388 .      A
N257  C769  1.347 .      A
C769  C770  1.367 .      A
C769  C774  1.371 .      A
C770  C771  1.385 .      A
C771  C772  1.390 .      A
C772  C773  1.384 .      A
C773  C774  1.370 .      A
C774  N258  1.343 .      A
C777  N260  1.373 .      A
C777  N261  1.374 .      A
N260  C778  1.344 .      A
C778  C779  1.366 .      A
C778  C783  1.363 .      A
C779  C780  1.377 .      A
C780  C781  1.382 .      A
C781  C782  1.374 .      A
C782  C783  1.372 .      A
C783  N261  1.350 .      A
C786  N263  1.382 .      A
C786  N264  1.378 .      A
N263  C787  1.347 .      A
C787  C788  1.361 .      A
C787  C792  1.342 .      A
C788  C789  1.375 .      A
C789  C790  1.372 .      A
C790  C791  1.376 .      A
C791  C792  1.376 .      A
C792  N264  1.347 .      A
C795  N266  1.368 .      A
C795  N267  1.375 .      A
N266  C796  1.349 .      A
C796  C797  1.378 .      A
C796  C801  1.364 .      A
C797  C798  1.378 .      A
C798  C799  1.379 .      A
C799  C800  1.384 .      A
C800  C801  1.347 .      A
C801  N267  1.341 .      A
C804  N269  1.390 .      A
C804  N270  1.383 .      A
N269  C805  1.358 1_556  A
C805  N269  1.358 1_554  A
C805  C806  1.339 .      A
C805  C810  1.345 1_554  A
C806  C807  1.371 .      A
C807  C808  1.377 .      A
C808  C809  1.369 1_554  A
C809  C808  1.369 1_556  A
C809  C810  1.373 .      A
C810  C805  1.345 1_556  A
C810  N270  1.320 .      A
C813  N272  1.375 .      A
C813  N273  1.385 .      A
N272  C814  1.361 .      A
C814  C815  1.377 .      A
C814  C819  1.366 .      A
C815  C816  1.384 .      A
C816  C817  1.365 .      A
C817  C818  1.362 .      A
C818  C819  1.353 .      A
C819  N273  1.330 .      A
C822  N275  1.387 .      A
C822  N276  1.387 .      A
N275  C823  1.336 .      A
C823  C824  1.368 .      A
C823  C828  1.358 .      A
C824  C825  1.376 .      A
C825  C826  1.381 .      A
C826  C827  1.383 .      A
C827  C828  1.377 .      A
C828  N276  1.360 .      A
C831  N278  1.392 .      A
C831  N279  1.373 .      A
N278  C832  1.348 .      A
C832  C833  1.373 .      A
C832  C837  1.362 .      A
C833  C834  1.380 .      A
C834  C835  1.380 .      A
C835  C836  1.379 .      A
C836  C837  1.370 .      A
C837  N279  1.352 .      A
C840  N281  1.372 .      A
C840  N282  1.382 .      A
N281  C841  1.341 .      A
C841  C842  1.375 .      A
C841  C846  1.360 .      A
C842  C843  1.381 .      A
C843  C844  1.386 .      A
C844  C845  1.384 .      A
C845  C846  1.365 .      A
C846  N282  1.353 .      A
C849  N284  1.391 .      A
C849  N285  1.391 .      A
N284  C850  1.338 .      A
C850  C851  1.361 .      A
C850  C855  1.364 .      A
C851  C852  1.382 .      A
C852  C853  1.389 .      A
C853  C854  1.385 .      A
C854  C855  1.377 .      A
C855  N285  1.354 .      A
C858  N287  1.382 .      A
C858  N288  1.375 .      A
N287  C859  1.344 .      A
C859  C860  1.346 .      A
C859  C864  1.351 .      A
C860  C861  1.390 .      A
C861  C862  1.378 .      A
C862  C863  1.373 .      A
C863  C864  1.361 .      A
C864  N288  1.322 .      A
