data_str_m1_o12435_AFI
_audit_creation_date              2015-10-01T06:31:18-0700
_symmetry_space_group_name_H-M    P1
_symmetry_Int_Tables_number       1
_space_group_crystal_system       triclinic
loop_
_symmetry_equiv_pos_as_xyz
  x,y,z
_cell_length_a                    16.6566398
_cell_length_b                    27.1855537
_cell_length_c                    27.3480696
_cell_angle_alpha                 61.2365123
_cell_angle_beta                  86.0523615
_cell_angle_gamma                 87.2299884
_cell_volume                      10828.3721939

loop_
_atom_site_label
_atom_site_type_symbol
_atom_site_description
_atom_site_fract_x
_atom_site_fract_y
_atom_site_fract_z
_atom_type_partial_charge
Zn1   Zn    Zn3+2 0.979696 0.768624 0.470746 0.000000
Zn2   Zn    Zn3+2 0.852053 0.557979 0.471043 0.000000
Zn3   Zn    Zn3+2 0.829923 0.887870 0.240504 0.000000
Zn4   Zn    Zn3+2 0.967309 0.083685 0.014391 0.000000
Zn5   Zn    Zn3+2 0.984192 0.354830 0.692770 0.000000
Zn6   Zn    Zn3+2 0.464559 0.687980 0.020687 0.000000
Zn7   Zn    Zn3+2 0.848138 0.691902 0.008047 0.000000
Zn8   Zn    Zn3+2 0.344744 0.553433 0.907239 0.000000
Zn9   Zn    Zn3+2 0.337763 0.697031 0.234356 0.000000
Zn10  Zn    Zn3+2 0.342973 0.891997 0.815153 0.000000
Zn11  Zn    Zn3+2 0.969794 0.550804 0.904083 0.000000
Zn12  Zn    Zn3+2 0.475732 0.332873 0.906204 0.000000
Zn13  Zn    Zn3+2 0.980540 0.888203 0.791307 0.000000
Zn14  Zn    Zn3+2 0.471580 0.760237 0.701246 0.000000
Zn15  Zn    Zn3+2 0.496174 0.109968 0.797583 0.000000
Zn16  Zn    Zn3+2 0.961689 0.678121 0.230032 0.000000
Zn17  Zn    Zn3+2 0.450840 0.906927 0.238200 0.000000
Zn18  Zn    Zn3+2 0.464560 0.569488 0.471352 0.000000
Zn19  Zn    Zn3+2 0.366648 0.350785 0.688732 0.000000
Zn20  Zn    Zn3+2 0.338527 0.095720 0.008833 0.000000
Zn21  Zn    Zn3+2 0.842092 0.749216 0.696113 0.000000
Zn22  Zn    Zn3+2 0.847439 0.328655 0.912870 0.000000
Zn23  Zn    Zn3+2 0.860985 0.112402 0.791086 0.000000
Zn24  Zn    Zn3+2 0.348246 0.779071 0.485444 0.000000
Br1   Br    Br    0.171201 0.513265 0.455022 0.000000
C1    C     C_R   0.114974 0.575042 0.455323 0.000000
C2    C     C_R   0.153651 0.619735 0.453818 0.000000
C3    C     C_R   0.109776 0.660710 0.460892 0.000000
C4    C     C_R   0.027514 0.657834 0.466204 0.000000
N1    N     N_R   0.971284 0.692748 0.471975 0.000000
C5    C     C_R   0.900837 0.665577 0.477111 0.000000
N2    N     N_R   0.912177 0.616892 0.474496 0.000000
C6    C     C_R   0.991609 0.613684 0.467293 0.000000
C7    C     C_R   0.033161 0.572140 0.461651 0.000000
H1    H     H_    0.218469 0.621626 0.449070 0.000000
H2    H     H_    0.140372 0.691215 0.465209 0.000000
H3    H     H_    0.841736 0.680511 0.480741 0.000000
H4    H     H_    0.003858 0.536862 0.463472 0.000000
Br2   Br    Br    0.650252 0.367315 0.536266 0.000000
C8    C     C_R   0.727929 0.385304 0.570377 0.000000
C9    C     C_R   0.746087 0.348679 0.624973 0.000000
C10   C     C_R   0.817654 0.353518 0.644413 0.000000
C11   C     C_R   0.865368 0.397426 0.608732 0.000000
N3    N     N_R   0.937205 0.410067 0.618358 0.000000
C12   C     C_R   0.949444 0.463212 0.573805 0.000000
N4    N     N_R   0.887599 0.482472 0.537301 0.000000
C13   C     C_R   0.838367 0.438805 0.559893 0.000000
C14   C     C_R   0.771563 0.432653 0.538075 0.000000
H5    H     H_    0.706480 0.314617 0.651214 0.000000
H6    H     H_    0.833768 0.324447 0.686222 0.000000
H7    H     H_    0.998744 0.488926 0.570832 0.000000
H8    H     H_    0.756422 0.461522 0.495833 0.000000
Br3   Br    Br    0.722089 0.899809 0.506068 0.000000
C15   C     C_R   0.764695 0.891316 0.444274 0.000000
C16   C     C_R   0.713668 0.895429 0.404709 0.000000
C17   C     C_R   0.742902 0.886141 0.361357 0.000000
C18   C     C_R   0.823781 0.875798 0.356712 0.000000
N5    N     N_R   0.862684 0.861924 0.319987 0.000000
C19   C     C_R   0.927571 0.830890 0.348862 0.000000
N6    N     N_R   0.930867 0.827719 0.400333 0.000000
C20   C     C_R   0.868500 0.860591 0.401445 0.000000
C21   C     C_R   0.842944 0.872356 0.443633 0.000000
H9    H     H_    0.650128 0.903544 0.409084 0.000000
H10   H     H_    0.701086 0.879960 0.336992 0.000000
H11   H     H_    0.968889 0.808371 0.334280 0.000000
H12   H     H_    0.880479 0.864680 0.476977 0.000000
Br4   Br    Br    0.987012 0.037181 0.307336 0.000000
C22   C     C_R   0.971515 0.036969 0.239141 0.000000
C23   C     C_R   0.973439 0.086921 0.189511 0.000000
C24   C     C_R   0.959236 0.087580 0.140039 0.000000
C25   C     C_R   0.947902 0.037864 0.140394 0.000000
N7    N     N_R   0.927797 0.030544 0.097249 0.000000
C26   C     C_R   0.890204 0.979370 0.124749 0.000000
N8    N     N_R   0.892438 0.954166 0.181858 0.000000
C27   C     C_R   0.932481 0.991124 0.190008 0.000000
C28   C     C_R   0.948353 0.988488 0.239969 0.000000
H13   H     H_    0.982382 0.125886 0.189819 0.000000
H14   H     H_    0.946107 0.126518 0.104313 0.000000
H15   H     H_    0.857104 0.961755 0.104598 0.000000
H16   H     H_    0.939543 0.951024 0.279136 0.000000
Br5   Br    Br    0.554515 0.931964 0.905070 0.000000
C29   C     C_R   0.611502 0.862488 0.933900 0.000000
C30   C     C_R   0.694153 0.862402 0.930779 0.000000
C31   C     C_R   0.737176 0.812516 0.956037 0.000000
C32   C     C_R   0.695548 0.763343 0.979811 0.000000
N9    N     N_R   0.725736 0.710648 0.003317 0.000000
C33   C     C_R   0.657042 0.679152 0.016253 0.000000
N10   N     N_R   0.586184 0.710219 0.004191 0.000000
C34   C     C_R   0.613586 0.763248 0.980455 0.000000
C35   C     C_R   0.570519 0.812859 0.959011 0.000000
H17   H     H_    0.724075 0.902059 0.909015 0.000000
H18   H     H_    0.801098 0.813088 0.956827 0.000000
H19   H     H_    0.657803 0.634595 0.032705 0.000000
H20   H     H_    0.507116 0.814827 0.961083 0.000000
Br6   Br    Br    0.473447 0.375379 0.122353 0.000000
C36   C     C_R   0.466352 0.455308 0.085529 0.000000
C37   C     C_R   0.477656 0.483792 0.114928 0.000000
C38   C     C_R   0.469811 0.541573 0.089186 0.000000
C39   C     C_R   0.451784 0.569965 0.034070 0.000000
N11   N     N_R   0.437286 0.625474 0.002406 0.000000
C40   C     C_R   0.404281 0.628110 0.956225 0.000000
N12   N     N_R   0.401800 0.576852 0.957455 0.000000
C41   C     C_R   0.435100 0.541676 0.006318 0.000000
C42   C     C_R   0.444440 0.484278 0.030764 0.000000
H21   H     H_    0.490428 0.460602 0.158644 0.000000
H22   H     H_    0.470218 0.562507 0.113474 0.000000
H23   H     H_    0.380912 0.666399 0.922889 0.000000
H24   H     H_    0.434311 0.461587 0.009075 0.000000
Br7   Br    Br    0.646264 0.570450 0.299283 0.000000
C43   C     C_R   0.581065 0.598150 0.236434 0.000000
C44   C     C_R   0.606654 0.591355 0.190730 0.000000
C45   C     C_R   0.561822 0.613801 0.143773 0.000000
C46   C     C_R   0.489290 0.639760 0.144808 0.000000
N13   N     N_R   0.436692 0.665160 0.103794 0.000000
C47   C     C_R   0.374051 0.680177 0.129884 0.000000
N14   N     N_R   0.389817 0.669654 0.182725 0.000000
C48   C     C_R   0.462003 0.643144 0.191124 0.000000
C49   C     C_R   0.508750 0.625314 0.236450 0.000000
H25   H     H_    0.663090 0.569815 0.191139 0.000000
H26   H     H_    0.581786 0.608125 0.108818 0.000000
H27   H     H_    0.320888 0.702947 0.109238 0.000000
H28   H     H_    0.491321 0.632256 0.271147 0.000000
Br8   Br    Br    0.289184 0.966247 0.970650 0.000000
C50   C     C_R   0.308499 0.894636 0.975896 0.000000
C51   C     C_R   0.339166 0.852144 0.024027 0.000000
C52   C     C_R   0.367214 0.802798 0.025686 0.000000
C53   C     C_R   0.359378 0.794816 0.980837 0.000000
N15   N     N_R   0.398055 0.755668 0.970368 0.000000
C54   C     C_R   0.394112 0.778283 0.913863 0.000000
N16   N     N_R   0.354881 0.829249 0.890045 0.000000
C55   C     C_R   0.332341 0.837696 0.933163 0.000000
C56   C     C_R   0.304356 0.887527 0.929520 0.000000
H29   H     H_    0.347489 0.859761 0.058593 0.000000
H30   H     H_    0.405410 0.775503 0.057122 0.000000
H31   H     H_    0.426474 0.760485 0.890547 0.000000
H32   H     H_    0.285380 0.921565 0.890549 0.000000
Br9   Br    Br    0.101359 0.935824 0.950863 0.000000
C57   C     C_R   0.058436 0.871286 0.953467 0.000000
C58   C     C_R   0.043096 0.824016 0.003949 0.000000
C59   C     C_R   0.994231 0.782777 0.007270 0.000000
C60   C     C_R   0.967035 0.787487 0.958765 0.000000
N17   N     N_R   0.913610 0.756152 0.950933 0.000000
C61   C     C_R   0.909164 0.782415 0.894111 0.000000
N18   N     N_R   0.956624 0.828644 0.867446 0.000000
C62   C     C_R   0.990662 0.830987 0.909096 0.000000
C63   C     C_R   0.033983 0.874336 0.905254 0.000000
H33   H     H_    0.063029 0.821774 0.041668 0.000000
H34   H     H_    0.976662 0.750618 0.047542 0.000000
H35   H     H_    0.869098 0.769582 0.873095 0.000000
H36   H     H_    0.044613 0.911711 0.866566 0.000000
Br10  Br    Br    0.229452 0.592602 0.151306 0.000000
C64   C     C_R   0.122806 0.614320 0.128272 0.000000
C65   C     C_R   0.103154 0.625050 0.075563 0.000000
C66   C     C_R   0.024579 0.637617 0.059555 0.000000
C67   C     C_R   0.968665 0.643408 0.095725 0.000000
N19   N     N_R   0.895257 0.667473 0.083119 0.000000
C68   C     C_R   0.877017 0.681326 0.124558 0.000000
N20   N     N_R   0.935034 0.664799 0.163770 0.000000
C69   C     C_R   0.991081 0.640467 0.144108 0.000000
C70   C     C_R   0.066378 0.622379 0.163128 0.000000
H37   H     H_    0.149593 0.623271 0.046878 0.000000
H38   H     H_    0.009703 0.647156 0.018143 0.000000
H39   H     H_    0.829481 0.710588 0.119207 0.000000
H40   H     H_    0.081834 0.615700 0.203366 0.000000
Br11  Br    Br    0.682712 0.422979 0.059133 0.000000
C71   C     C_R   0.741563 0.488471 0.040786 0.000000
C72   C     C_R   0.732139 0.513977 0.074391 0.000000
C73   C     C_R   0.772482 0.562817 0.060016 0.000000
C74   C     C_R   0.821990 0.583989 0.012477 0.000000
N21   N     N_R   0.864416 0.631352 0.989399 0.000000
C75   C     C_R   0.911585 0.628067 0.948296 0.000000
N22   N     N_R   0.899079 0.580401 0.945192 0.000000
C76   C     C_R   0.838864 0.555340 0.983924 0.000000
C77   C     C_R   0.795168 0.509419 0.994673 0.000000
H41   H     H_    0.691681 0.496377 0.111153 0.000000
H42   H     H_    0.765297 0.583397 0.085463 0.000000
H43   H     H_    0.956260 0.658721 0.922460 0.000000
H44   H     H_    0.799844 0.491075 0.967417 0.000000
Br12  Br    Br    0.514430 0.596116 0.624798 0.000000
C78   C     C_R   0.473923 0.595531 0.691832 0.000000
C79   C     C_R   0.436080 0.548578 0.733857 0.000000
C80   C     C_R   0.405412 0.548453 0.782201 0.000000
C81   C     C_R   0.407250 0.596630 0.785934 0.000000
N23   N     N_R   0.378690 0.607148 0.827588 0.000000
C82   C     C_R   0.390321 0.663502 0.805190 0.000000
N24   N     N_R   0.428428 0.686539 0.753206 0.000000
C83   C     C_R   0.439076 0.643351 0.742891 0.000000
C84   C     C_R   0.478583 0.643044 0.697376 0.000000
H45   H     H_    0.430787 0.511775 0.728960 0.000000
H46   H     H_    0.377455 0.512380 0.814469 0.000000
H47   H     H_    0.375212 0.686774 0.827390 0.000000
H48   H     H_    0.510874 0.678873 0.666161 0.000000
Br13  Br    Br    0.228850 0.470805 0.137395 0.000000
C85   C     C_R   0.178921 0.512525 0.067997 0.000000
C86   C     C_R   0.096253 0.516242 0.066856 0.000000
C87   C     C_R   0.060053 0.538730 0.016564 0.000000
C88   C     C_R   0.107325 0.552493 0.968584 0.000000
N25   N     N_R   0.085521 0.557326 0.919722 0.000000
C89   C     C_R   0.158197 0.562599 0.890550 0.000000
N26   N     N_R   0.223265 0.560029 0.920175 0.000000
C90   C     C_R   0.188609 0.553807 0.968978 0.000000
C91   C     C_R   0.225368 0.534671 0.018723 0.000000
H49   H     H_    0.059757 0.500120 0.105465 0.000000
H50   H     H_    0.996116 0.540716 0.017379 0.000000
H51   H     H_    0.163916 0.565158 0.849817 0.000000
H52   H     H_    0.288041 0.526584 0.021273 0.000000
Br14  Br    Br    0.151814 0.366963 0.088283 0.000000
C92   C     C_R   0.241448 0.371602 0.039207 0.000000
C93   C     C_R   0.281163 0.323421 0.045943 0.000000
C94   C     C_R   0.345328 0.326103 0.010213 0.000000
C95   C     C_R   0.369013 0.377936 0.968341 0.000000
N27   N     N_R   0.428166 0.390214 0.928396 0.000000
C96   C     C_R   0.433412 0.447486 0.905139 0.000000
N28   N     N_R   0.373909 0.471335 0.925202 0.000000
C97   C     C_R   0.334161 0.425650 0.964478 0.000000
C98   C     C_R   0.267747 0.422980 0.997991 0.000000
H53   H     H_    0.261099 0.283674 0.079134 0.000000
H54   H     H_    0.376414 0.288152 0.017209 0.000000
H55   H     H_    0.478866 0.471324 0.873329 0.000000
H56   H     H_    0.234498 0.458779 0.992177 0.000000
Br15  Br    Br    0.208095 0.929531 0.106876 0.000000
C99   C     C_R   0.166428 0.856682 0.135304 0.000000
C100  C     C_R   0.085967 0.850161 0.130405 0.000000
C101  C     C_R   0.053536 0.797246 0.156240 0.000000
C102  C     C_R   0.101867 0.752756 0.188830 0.000000
N29   N     N_R   0.080098 0.699353 0.222395 0.000000
C103  C     C_R   0.152219 0.673138 0.243752 0.000000
N30   N     N_R   0.216756 0.708802 0.223877 0.000000
C104  C     C_R   0.181945 0.758678 0.190510 0.000000
C105  C     C_R   0.216172 0.810595 0.163047 0.000000
H57   H     H_    0.048321 0.886600 0.107100 0.000000
H58   H     H_    0.992002 0.791390 0.151419 0.000000
H59   H     H_    0.157623 0.628853 0.272768 0.000000
H60   H     H_    0.278534 0.816764 0.164612 0.000000
Br16  Br    Br    0.585468 0.946753 0.027352 0.000000
C106  C     C_R   0.527779 0.887083 0.087617 0.000000
C107  C     C_R   0.513532 0.838106 0.085997 0.000000
C108  C     C_R   0.472854 0.794227 0.130290 0.000000
C109  C     C_R   0.441783 0.801885 0.173696 0.000000
N31   N     N_R   0.393785 0.768334 0.218817 0.000000
C110  C     C_R   0.387845 0.797017 0.248679 0.000000
N32   N     N_R   0.429961 0.845975 0.223266 0.000000
C111  C     C_R   0.461274 0.848199 0.176280 0.000000
C112  C     C_R   0.506007 0.890750 0.135127 0.000000
H61   H     H_    0.536106 0.833626 0.050412 0.000000
H62   H     H_    0.467918 0.755460 0.130371 0.000000
H63   H     H_    0.352748 0.782962 0.287668 0.000000
H64   H     H_    0.521520 0.926934 0.138676 0.000000
Br17  Br    Br    0.248787 0.467855 0.296497 0.000000
C113  C     C_R   0.297669 0.503819 0.331639 0.000000
C114  C     C_R   0.315383 0.473091 0.387332 0.000000
C115  C     C_R   0.349155 0.498580 0.414159 0.000000
C116  C     C_R   0.370119 0.553941 0.383643 0.000000
N33   N     N_R   0.405266 0.587556 0.399845 0.000000
C117  C     C_R   0.391442 0.640115 0.355665 0.000000
N34   N     N_R   0.357280 0.639128 0.312115 0.000000
C118  C     C_R   0.344833 0.584619 0.330865 0.000000
C119  C     C_R   0.310173 0.560968 0.303148 0.000000
H65   H     H_    0.299224 0.429397 0.410737 0.000000
H66   H     H_    0.350125 0.476532 0.458738 0.000000
H67   H     H_    0.403866 0.678970 0.355023 0.000000
H68   H     H_    0.292155 0.586180 0.260837 0.000000
Br18  Br    Br    0.200355 0.131219 0.726071 0.000000
C120  C     C_R   0.177944 0.061267 0.731870 0.000000
C121  C     C_R   0.109144 0.057605 0.709236 0.000000
C122  C     C_R   0.077418 0.006570 0.724465 0.000000
C123  C     C_R   0.119196 0.959694 0.759899 0.000000
N35   N     N_R   0.097025 0.905996 0.783353 0.000000
C124  C     C_R   0.164987 0.876872 0.808603 0.000000
N36   N     N_R   0.226470 0.911367 0.802968 0.000000
C125  C     C_R   0.193879 0.963097 0.774265 0.000000
C126  C     C_R   0.224115 0.013994 0.762170 0.000000
H69   H     H_    0.078091 0.094993 0.681818 0.000000
H70   H     H_    0.021290 0.005288 0.708664 0.000000
H71   H     H_    0.169170 0.831583 0.831529 0.000000
H72   H     H_    0.278255 0.017595 0.778321 0.000000
Br19  Br    Br    0.231847 0.032525 0.588785 0.000000
C127  C     C_R   0.291348 0.964083 0.626642 0.000000
C128  C     C_R   0.307371 0.931172 0.601070 0.000000
C129  C     C_R   0.347694 0.880257 0.628558 0.000000
C130  C     C_R   0.371843 0.863372 0.681446 0.000000
N37   N     N_R   0.412904 0.816600 0.715929 0.000000
C131  C     C_R   0.411447 0.819122 0.764483 0.000000
N38   N     N_R   0.372682 0.866075 0.760780 0.000000
C132  C     C_R   0.350685 0.893721 0.707670 0.000000
C133  C     C_R   0.314013 0.945613 0.680510 0.000000
H73   H     H_    0.286226 0.944632 0.559949 0.000000
H74   H     H_    0.352226 0.853240 0.610275 0.000000
H75   H     H_    0.439963 0.787942 0.801028 0.000000
H76   H     H_    0.304774 0.971905 0.699692 0.000000
Br20  Br    Br    0.617723 0.938291 0.656678 0.000000
C134  C     C_R   0.569830 0.974147 0.696728 0.000000
C135  C     C_R   0.591514 0.027770 0.683139 0.000000
C136  C     C_R   0.562050 0.052074 0.715057 0.000000
C137  C     C_R   0.504994 0.024001 0.756971 0.000000
N39   N     N_R   0.466027 0.040486 0.791698 0.000000
C138  C     C_R   0.410015 0.999084 0.819587 0.000000
N40   N     N_R   0.412811 0.958538 0.802564 0.000000
C139  C     C_R   0.475923 0.974651 0.765130 0.000000
C140  C     C_R   0.512351 0.946716 0.738828 0.000000
H77   H     H_    0.632510 0.050306 0.647890 0.000000
H78   H     H_    0.580292 0.093057 0.704515 0.000000
H79   H     H_    0.366495 0.999808 0.850324 0.000000
H80   H     H_    0.500659 0.903938 0.751506 0.000000
Br21  Br    Br    0.989661 0.597288 0.612230 0.000000
C141  C     C_R   0.984132 0.599562 0.680654 0.000000
C142  C     C_R   0.033878 0.565322 0.722803 0.000000
C143  C     C_R   0.022212 0.561243 0.775239 0.000000
C144  C     C_R   0.967217 0.597423 0.780848 0.000000
N41   N     N_R   0.948304 0.602655 0.826345 0.000000
C145  C     C_R   0.901892 0.650298 0.807074 0.000000
N42   N     N_R   0.888051 0.673515 0.751372 0.000000
C146  C     C_R   0.928242 0.637597 0.736892 0.000000
C147  C     C_R   0.929595 0.635347 0.687891 0.000000
H81   H     H_    0.079903 0.541036 0.714281 0.000000
H82   H     H_    0.057732 0.533007 0.809714 0.000000
H83   H     H_    0.882041 0.667702 0.833686 0.000000
H84   H     H_    0.886560 0.656613 0.657180 0.000000
Br22  Br    Br    0.938247 0.378988 0.147301 0.000000
C148  C     C_R   0.920842 0.380245 0.078531 0.000000
C149  C     C_R   0.886767 0.334598 0.079024 0.000000
C150  C     C_R   0.872921 0.335687 0.029328 0.000000
C151  C     C_R   0.892503 0.382771 0.980184 0.000000
N43   N     N_R   0.885562 0.391308 0.927949 0.000000
C152  C     C_R   0.914054 0.445217 0.895664 0.000000
N44   N     N_R   0.937835 0.469463 0.926411 0.000000
C153  C     C_R   0.926003 0.427659 0.979423 0.000000
C154  C     C_R   0.941541 0.426892 0.028366 0.000000
H85   H     H_    0.871412 0.297971 0.118314 0.000000
H86   H     H_    0.848910 0.300220 0.029288 0.000000
H87   H     H_    0.917963 0.466605 0.850658 0.000000
H88   H     H_    0.967835 0.461553 0.028239 0.000000
Br23  Br    Br    0.671892 0.495479 0.627958 0.000000
C155  C     C_R   0.597253 0.457758 0.689374 0.000000
C156  C     C_R   0.604707 0.463017 0.736697 0.000000
C157  C     C_R   0.560380 0.430213 0.785179 0.000000
C158  C     C_R   0.506171 0.395273 0.783212 0.000000
N45   N     N_R   0.462218 0.356741 0.826014 0.000000
C159  C     C_R   0.415062 0.336087 0.800969 0.000000
N46   N     N_R   0.428389 0.361070 0.744219 0.000000
C160  C     C_R   0.489361 0.396141 0.734836 0.000000
C161  C     C_R   0.537989 0.424803 0.687428 0.000000
H89   H     H_    0.647275 0.491721 0.735890 0.000000
H90   H     H_    0.567885 0.432343 0.823004 0.000000
H91   H     H_    0.372277 0.303007 0.823181 0.000000
H92   H     H_    0.535067 0.419171 0.651348 0.000000
Br24  Br    Br    0.087259 0.259285 0.875306 0.000000
C162  C     C_R   0.178633 0.264144 0.910246 0.000000
C163  C     C_R   0.211588 0.315723 0.892175 0.000000
C164  C     C_R   0.289448 0.319613 0.903415 0.000000
C165  C     C_R   0.331205 0.270504 0.933819 0.000000
N47   N     N_R   0.410212 0.264504 0.941935 0.000000
C166  C     C_R   0.421854 0.207597 0.969561 0.000000
N48   N     N_R   0.352153 0.178518 0.979382 0.000000
C167  C     C_R   0.296363 0.219842 0.956285 0.000000
C168  C     C_R   0.217733 0.216139 0.947134 0.000000
H93   H     H_    0.176866 0.352369 0.867112 0.000000
H94   H     H_    0.317967 0.359737 0.884838 0.000000
H95   H     H_    0.480430 0.188219 0.980189 0.000000
H96   H     H_    0.186899 0.177758 0.965180 0.000000
Br25  Br    Br    0.730596 0.158320 0.144518 0.000000
C169  C     C_R   0.682239 0.208801 0.076875 0.000000
C170  C     C_R   0.599198 0.214668 0.075355 0.000000
C171  C     C_R   0.563715 0.250153 0.025840 0.000000
C172  C     C_R   0.613002 0.280311 0.979310 0.000000
N49   N     N_R   0.591671 0.316508 0.927199 0.000000
C173  C     C_R   0.664525 0.335959 0.898926 0.000000
N50   N     N_R   0.729065 0.313127 0.931813 0.000000
C174  C     C_R   0.694402 0.276993 0.981670 0.000000
C175  C     C_R   0.730618 0.239024 0.029387 0.000000
H97   H     H_    0.562160 0.190426 0.112808 0.000000
H98   H     H_    0.499543 0.254094 0.024497 0.000000
H99   H     H_    0.671238 0.365683 0.855206 0.000000
H100  H     H_    0.794357 0.231096 0.030512 0.000000
Br26  Br    Br    0.764203 0.118618 0.577453 0.000000
C176  C     C_R   0.794662 0.062953 0.649722 0.000000
C177  C     C_R   0.796880 0.007033 0.662833 0.000000
C178  C     C_R   0.830183 0.967431 0.711427 0.000000
C179  C     C_R   0.864007 0.985858 0.743753 0.000000
N51   N     N_R   0.917384 0.958555 0.783094 0.000000
C180  C     C_R   0.929506 0.996389 0.802066 0.000000
N52   N     N_R   0.887620 0.046338 0.774275 0.000000
C181  C     C_R   0.850441 0.038729 0.736000 0.000000
C182  C     C_R   0.817260 0.078589 0.687940 0.000000
H101  H     H_    0.776471 0.994879 0.633617 0.000000
H102  H     H_    0.830659 0.923732 0.722798 0.000000
H103  H     H_    0.969352 0.988830 0.834473 0.000000
H104  H     H_    0.819577 0.121749 0.676157 0.000000
Br27  Br    Br    0.891231 0.978016 0.493510 0.000000
C183  C     C_R   0.913015 0.941351 0.570694 0.000000
C184  C     C_R   0.957309 0.969803 0.589979 0.000000
C185  C     C_R   0.976414 0.944898 0.645244 0.000000
C186  C     C_R   0.950760 0.891452 0.680279 0.000000
N53   N     N_R   0.955184 0.861341 0.736278 0.000000
C187  C     C_R   0.926152 0.810364 0.747932 0.000000
N54   N     N_R   0.898933 0.809419 0.702081 0.000000
C188  C     C_R   0.913162 0.861722 0.660552 0.000000
C189  C     C_R   0.890366 0.886217 0.606176 0.000000
H105  H     H_    0.976973 0.011923 0.561460 0.000000
H106  H     H_    0.012062 0.966565 0.659425 0.000000
H107  H     H_    0.924026 0.774974 0.789338 0.000000
H108  H     H_    0.857712 0.863261 0.591212 0.000000
Br28  Br    Br    0.500645 0.002419 0.420583 0.000000
C190  C     C_R   0.498012 0.929549 0.483863 0.000000
C191  C     C_R   0.528126 0.921499 0.533298 0.000000
C192  C     C_R   0.522480 0.869886 0.580865 0.000000
C193  C     C_R   0.484888 0.827815 0.577697 0.000000
N55   N     N_R   0.458437 0.779513 0.620981 0.000000
C194  C     C_R   0.412949 0.757742 0.596156 0.000000
N56   N     N_R   0.409074 0.791557 0.539608 0.000000
C195  C     C_R   0.454434 0.835626 0.529427 0.000000
C196  C     C_R   0.461445 0.886217 0.481295 0.000000
H109  H     H_    0.554451 0.956235 0.534900 0.000000
H110  H     H_    0.541599 0.864121 0.620171 0.000000
H111  H     H_    0.378218 0.720066 0.619155 0.000000
H112  H     H_    0.435371 0.893831 0.443426 0.000000
Br29  Br    Br    0.598691 0.619730 0.935349 0.000000
C197  C     C_R   0.630892 0.681051 0.866401 0.000000
C198  C     C_R   0.710320 0.695845 0.860143 0.000000
C199  C     C_R   0.744329 0.726957 0.807645 0.000000
C200  C     C_R   0.698224 0.740684 0.763833 0.000000
N57   N     N_R   0.724520 0.759756 0.710903 0.000000
C201  C     C_R   0.654577 0.773780 0.683010 0.000000
N58   N     N_R   0.587021 0.758015 0.718126 0.000000
C202  C     C_R   0.617396 0.736206 0.769202 0.000000
C203  C     C_R   0.581094 0.705023 0.821511 0.000000
H113  H     H_    0.747140 0.678994 0.895911 0.000000
H114  H     H_    0.805516 0.739035 0.800789 0.000000
H115  H     H_    0.652645 0.792029 0.638299 0.000000
H116  H     H_    0.518635 0.695113 0.827559 0.000000
Br30  Br    Br    0.791706 0.261451 0.557769 0.000000
C204  C     C_R   0.726524 0.230142 0.625715 0.000000
C205  C     C_R   0.644166 0.226160 0.625479 0.000000
C206  C     C_R   0.599249 0.197733 0.675110 0.000000
C207  C     C_R   0.639037 0.169451 0.723895 0.000000
N59   N     N_R   0.611356 0.127394 0.773244 0.000000
C208  C     C_R   0.679986 0.103759 0.800871 0.000000
N60   N     N_R   0.747614 0.132125 0.772035 0.000000
C209  C     C_R   0.719815 0.172878 0.723659 0.000000
C210  C     C_R   0.763585 0.206931 0.675603 0.000000
H117  H     H_    0.615315 0.242947 0.586344 0.000000
H118  H     H_    0.537261 0.191175 0.673367 0.000000
H119  H     H_    0.680519 0.067125 0.841691 0.000000
H120  H     H_    0.827015 0.209044 0.674429 0.000000
Br31  Br    Br    0.347347 0.142312 0.587061 0.000000
C211  C     C_R   0.346791 0.181683 0.628732 0.000000
C212  C     C_R   0.309181 0.234107 0.608235 0.000000
C213  C     C_R   0.314440 0.265569 0.635300 0.000000
C214  C     C_R   0.358673 0.243394 0.682124 0.000000
N61   N     N_R   0.385243 0.270157 0.708312 0.000000
C215  C     C_R   0.429505 0.229518 0.749786 0.000000
N62   N     N_R   0.432217 0.179268 0.749318 0.000000
C216  C     C_R   0.388761 0.189934 0.705298 0.000000
C217  C     C_R   0.385105 0.158278 0.678659 0.000000
H121  H     H_    0.279244 0.251633 0.569360 0.000000
H122  H     H_    0.292158 0.308337 0.616629 0.000000
H123  H     H_    0.461181 0.236781 0.778849 0.000000
H124  H     H_    0.414110 0.117761 0.694196 0.000000
Br32  Br    Br    0.678552 0.096505 0.049576 0.000000
C218  C     C_R   0.615414 0.104298 0.990807 0.000000
C219  C     C_R   0.648524 0.127371 0.936620 0.000000
C220  C     C_R   0.605237 0.128894 0.894527 0.000000
C221  C     C_R   0.531706 0.103396 0.908687 0.000000
N63   N     N_R   0.480327 0.097040 0.876036 0.000000
C222  C     C_R   0.410810 0.081796 0.908676 0.000000
N64   N     N_R   0.417075 0.079430 0.959559 0.000000
C223  C     C_R   0.495225 0.089369 0.959425 0.000000
C224  C     C_R   0.535897 0.088372 0.001922 0.000000
H125  H     H_    0.708217 0.144641 0.927122 0.000000
H126  H     H_    0.627084 0.152931 0.852026 0.000000
H127  H     H_    0.356298 0.075925 0.893471 0.000000
H128  H     H_    0.508282 0.074219 0.043112 0.000000
Br33  Br    Br    0.887293 0.365365 0.409976 0.000000
C225  C     C_R   0.901336 0.444497 0.373592 0.000000
C226  C     C_R   0.924858 0.472574 0.317122 0.000000
C227  C     C_R   0.937274 0.529842 0.290017 0.000000
C228  C     C_R   0.925494 0.557542 0.320721 0.000000
N65   N     N_R   0.935650 0.612329 0.303892 0.000000
C229  C     C_R   0.915815 0.616509 0.350957 0.000000
N66   N     N_R   0.891522 0.566942 0.395872 0.000000
C230  C     C_R   0.900061 0.530327 0.375738 0.000000
C231  C     C_R   0.888500 0.473448 0.403598 0.000000
H129  H     H_    0.934408 0.449361 0.294303 0.000000
H130  H     H_    0.956107 0.551356 0.246481 0.000000
H131  H     H_    0.920322 0.655364 0.352062 0.000000
H132  H     H_    0.872019 0.451510 0.447520 0.000000
Br34  Br    Br    0.655478 0.729315 0.121931 0.000000
C232  C     C_R   0.715235 0.761021 0.155834 0.000000
C233  C     C_R   0.707030 0.817867 0.138383 0.000000
C234  C     C_R   0.747868 0.842084 0.163214 0.000000
C235  C     C_R   0.802962 0.808943 0.200481 0.000000
N67   N     N_R   0.852926 0.823601 0.227146 0.000000
C236  C     C_R   0.909443 0.781008 0.245308 0.000000
N68   N     N_R   0.893761 0.740288 0.231542 0.000000
C237  C     C_R   0.823187 0.757481 0.207315 0.000000
C238  C     C_R   0.773023 0.729283 0.192738 0.000000
H133  H     H_    0.669864 0.843310 0.104557 0.000000
H134  H     H_    0.741671 0.886375 0.149977 0.000000
H135  H     H_    0.962341 0.780515 0.266228 0.000000
H136  H     H_    0.781638 0.685009 0.206448 0.000000
Br35  Br    Br    0.147233 0.980743 0.407810 0.000000
C239  C     C_R   0.218890 0.947225 0.374499 0.000000
C240  C     C_R   0.222207 0.967384 0.317128 0.000000
C241  C     C_R   0.279698 0.946553 0.292486 0.000000
C242  C     C_R   0.332872 0.906211 0.326527 0.000000
N69   N     N_R   0.397728 0.883193 0.312613 0.000000
C243  C     C_R   0.418826 0.839245 0.362671 0.000000
N70   N     N_R   0.371201 0.836219 0.406734 0.000000
C244  C     C_R   0.320779 0.880689 0.382612 0.000000
C245  C     C_R   0.267644 0.902601 0.407975 0.000000
H137  H     H_    0.181628 0.000793 0.291382 0.000000
H138  H     H_    0.282219 0.961946 0.248073 0.000000
H139  H     H_    0.465903 0.808992 0.366533 0.000000
H140  H     H_    0.267304 0.888238 0.452144 0.000000
Br36  Br    Br    0.385778 0.211722 0.148661 0.000000
C246  C     C_R   0.386130 0.137521 0.158696 0.000000
C247  C     C_R   0.400798 0.093954 0.211012 0.000000
C248  C     C_R   0.405409 0.039715 0.219941 0.000000
C249  C     C_R   0.398076 0.029918 0.175842 0.000000
N71   N     N_R   0.405049 0.980488 0.175357 0.000000
C250  C     C_R   0.384335 0.995075 0.122068 0.000000
N72   N     N_R   0.366978 0.051302 0.090082 0.000000
C251  C     C_R   0.377164 0.072013 0.125259 0.000000
C252  C     C_R   0.371070 0.126830 0.115423 0.000000
H141  H     H_    0.408046 0.102421 0.245224 0.000000
H142  H     H_    0.409356 0.006349 0.261352 0.000000
H143  H     H_    0.383686 0.965832 0.106010 0.000000
H144  H     H_    0.355228 0.160926 0.075969 0.000000
Br37  Br    Br    0.754555 0.066813 0.292835 0.000000
C253  C     C_R   0.692413 0.023588 0.271759 0.000000
C254  C     C_R   0.611134 0.017209 0.286871 0.000000
C255  C     C_R   0.566985 0.980990 0.277688 0.000000
C256  C     C_R   0.603080 0.955811 0.248780 0.000000
N73   N     N_R   0.571885 0.915503 0.240994 0.000000
C257  C     C_R   0.639517 0.889138 0.232520 0.000000
N74   N     N_R   0.710494 0.912479 0.233624 0.000000
C258  C     C_R   0.684428 0.956851 0.240083 0.000000
C259  C     C_R   0.730180 0.991861 0.249525 0.000000
H145  H     H_    0.583691 0.037607 0.309442 0.000000
H146  H     H_    0.510539 0.966221 0.300248 0.000000
H147  H     H_    0.636652 0.853000 0.227238 0.000000
H148  H     H_    0.794134 0.991224 0.244551 0.000000
Br38  Br    Br    0.157072 0.510916 0.603822 0.000000
C260  C     C_R   0.232465 0.568891 0.580361 0.000000
C261  C     C_R   0.218692 0.611698 0.593963 0.000000
C262  C     C_R   0.266383 0.658553 0.569138 0.000000
C263  C     C_R   0.328666 0.659516 0.533135 0.000000
N75   N     N_R   0.375092 0.702845 0.498207 0.000000
C264  C     C_R   0.428270 0.680018 0.474005 0.000000
N76   N     N_R   0.414623 0.624473 0.492261 0.000000
C265  C     C_R   0.349264 0.613977 0.527149 0.000000
C266  C     C_R   0.298639 0.569597 0.546846 0.000000
H149  H     H_    0.168070 0.609948 0.621562 0.000000
H150  H     H_    0.254909 0.692463 0.578557 0.000000
H151  H     H_    0.472808 0.704066 0.441549 0.000000
H152  H     H_    0.305672 0.538604 0.533008 0.000000
Br39  Br    Br    0.479734 0.287593 0.502785 0.000000
C267  C     C_R   0.473570 0.353146 0.511550 0.000000
C268  C     C_R   0.495689 0.404343 0.466467 0.000000
C269  C     C_R   0.497934 0.451440 0.473340 0.000000
C270  C     C_R   0.465465 0.447342 0.522735 0.000000
N77   N     N_R   0.445486 0.489898 0.533049 0.000000
C271  C     C_R   0.413907 0.462983 0.587284 0.000000
N78   N     N_R   0.411072 0.405663 0.609724 0.000000
C272  C     C_R   0.443633 0.397523 0.567256 0.000000
C273  C     C_R   0.453917 0.348914 0.563618 0.000000
H153  H     H_    0.514852 0.406800 0.426791 0.000000
H154  H     H_    0.516575 0.491336 0.438970 0.000000
H155  H     H_    0.394296 0.484306 0.610745 0.000000
H156  H     H_    0.449951 0.308607 0.599598 0.000000
Br40  Br    Br    0.587837 0.747577 0.266917 0.000000
C274  C     C_R   0.633699 0.706684 0.336614 0.000000
C275  C     C_R   0.714850 0.709238 0.342846 0.000000
C276  C     C_R   0.750700 0.667467 0.389111 0.000000
C277  C     C_R   0.703836 0.623981 0.426676 0.000000
N79   N     N_R   0.727946 0.574026 0.467598 0.000000
C278  C     C_R   0.654960 0.547072 0.489116 0.000000
N80   N     N_R   0.588766 0.578851 0.462261 0.000000
C279  C     C_R   0.622884 0.626046 0.423086 0.000000
C280  C     C_R   0.586502 0.667551 0.379069 0.000000
H157  H     H_    0.750891 0.741874 0.310410 0.000000
H158  H     H_    0.813523 0.668371 0.394038 0.000000
H159  H     H_    0.649256 0.504442 0.521931 0.000000
H160  H     H_    0.524585 0.665722 0.374607 0.000000
Br41  Br    Br    0.237067 0.472807 0.816922 0.000000
C281  C     C_R   0.198781 0.441848 0.774733 0.000000
C282  C     C_R   0.116778 0.438038 0.777044 0.000000
C283  C     C_R   0.081701 0.417722 0.747240 0.000000
C284  C     C_R   0.129362 0.392968 0.722657 0.000000
N81   N     N_R   0.105086 0.366384 0.695974 0.000000
C285  C     C_R   0.177216 0.349603 0.680091 0.000000
N82   N     N_R   0.244359 0.365314 0.696181 0.000000
C286  C     C_R   0.211162 0.392886 0.722747 0.000000
C287  C     C_R   0.248179 0.419862 0.746664 0.000000
H161  H     H_    0.079593 0.452876 0.801199 0.000000
H162  H     H_    0.019162 0.422918 0.743406 0.000000
H163  H     H_    0.180198 0.324928 0.658801 0.000000
H164  H     H_    0.312319 0.423781 0.744464 0.000000
Br42  Br    Br    0.225296 0.219305 0.786018 0.000000
C288  C     C_R   0.192309 0.153599 0.851001 0.000000
C289  C     C_R   0.119726 0.130292 0.852918 0.000000
C290  C     C_R   0.083805 0.094455 0.903848 0.000000
C291  C     C_R   0.121100 0.084204 0.950920 0.000000
N83   N     N_R   0.088033 0.069715 0.002390 0.000000
C292  C     C_R   0.154348 0.065153 0.031910 0.000000
N84   N     N_R   0.224668 0.080694 0.999095 0.000000
C293  C     C_R   0.200215 0.094918 0.948092 0.000000
C294  C     C_R   0.235765 0.133439 0.898176 0.000000
H165  H     H_    0.087964 0.143610 0.815307 0.000000
H166  H     H_    0.030801 0.073406 0.905674 0.000000
H167  H     H_    0.150784 0.056021 0.075054 0.000000
H168  H     H_    0.290749 0.153539 0.896740 0.000000
Br43  Br    Br    0.629706 0.731065 0.474518 0.000000
C295  C     C_R   0.701307 0.733238 0.524595 0.000000
C296  C     C_R   0.676802 0.714342 0.580023 0.000000
C297  C     C_R   0.727410 0.718419 0.615777 0.000000
C298  C     C_R   0.799496 0.744649 0.593878 0.000000
N85   N     N_R   0.856929 0.753854 0.620670 0.000000
C299  C     C_R   0.924161 0.761037 0.586519 0.000000
N86   N     N_R   0.908810 0.761895 0.537321 0.000000
C300  C     C_R   0.828955 0.752626 0.543270 0.000000
C301  C     C_R   0.779258 0.750652 0.506260 0.000000
H169  H     H_    0.618032 0.696531 0.595222 0.000000
H170  H     H_    0.711796 0.699089 0.659860 0.000000
H171  H     H_    0.983271 0.759329 0.600761 0.000000
H172  H     H_    0.799173 0.762629 0.463826 0.000000
Br44  Br    Br    0.176237 0.184093 0.109183 0.000000
C302  C     C_R   0.102153 0.212877 0.051537 0.000000
C303  C     C_R   0.084318 0.269789 0.021975 0.000000
C304  C     C_R   0.023356 0.288881 0.984889 0.000000
C305  C     C_R   0.977996 0.249689 0.981642 0.000000
N87   N     N_R   0.911030 0.257257 0.953608 0.000000
C306  C     C_R   0.896689 0.204486 0.961721 0.000000
N88   N     N_R   0.951884 0.165004 0.994015 0.000000
C307  C     C_R   0.001406 0.194945 0.006064 0.000000
C308  C     C_R   0.064599 0.175688 0.040378 0.000000
H173  H     H_    0.117598 0.299297 0.028057 0.000000
H174  H     H_    0.013730 0.333081 0.959186 0.000000
H175  H     H_    0.846948 0.195106 0.944376 0.000000
H176  H     H_    0.079221 0.131919 0.062972 0.000000
Br45  Br    Br    0.747492 0.556546 0.767275 0.000000
C309  C     C_R   0.796447 0.496659 0.757570 0.000000
C310  C     C_R   0.827805 0.506352 0.705452 0.000000
C311  C     C_R   0.866203 0.463653 0.698347 0.000000
C312  C     C_R   0.871442 0.411188 0.744121 0.000000
N89   N     N_R   0.915191 0.365433 0.749768 0.000000
C313  C     C_R   0.908624 0.329681 0.805787 0.000000
N90   N     N_R   0.865088 0.352243 0.834371 0.000000
C314  C     C_R   0.841488 0.402682 0.794818 0.000000
C315  C     C_R   0.801530 0.443713 0.802856 0.000000
H177  H     H_    0.823542 0.547998 0.670223 0.000000
H178  H     H_    0.894515 0.473253 0.658653 0.000000
H179  H     H_    0.937622 0.289015 0.825605 0.000000
H180  H     H_    0.778037 0.435789 0.843730 0.000000
Br46  Br    Br    0.887821 0.856169 0.062436 0.000000
C316  C     C_R   0.880756 0.928877 0.000719 0.000000
C317  C     C_R   0.847219 0.935890 0.953000 0.000000
C318  C     C_R   0.836501 0.988749 0.908248 0.000000
C319  C     C_R   0.860767 0.033402 0.913269 0.000000
N91   N     N_R   0.867253 0.087263 0.873398 0.000000
C320  C     C_R   0.893226 0.113009 0.901969 0.000000
N92   N     N_R   0.908307 0.075823 0.956747 0.000000
C321  C     C_R   0.888793 0.026382 0.961704 0.000000
C322  C     C_R   0.906037 0.974398 0.004225 0.000000
H181  H     H_    0.832672 0.899133 0.950742 0.000000
H182  H     H_    0.809022 0.994326 0.871348 0.000000
H183  H     H_    0.910771 0.156387 0.881740 0.000000
H184  H     H_    0.941550 0.968963 0.037834 0.000000
Br47  Br    Br    0.025781 0.171915 0.563046 0.000000
C323  C     C_R   0.016343 0.204599 0.611256 0.000000
C324  C     C_R   0.044112 0.258525 0.592021 0.000000
C325  C     C_R   0.033011 0.284443 0.624847 0.000000
C326  C     C_R   0.996101 0.254461 0.676930 0.000000
N93   N     N_R   0.969508 0.274348 0.711462 0.000000
C327  C     C_R   0.928201 0.229922 0.753695 0.000000
N94   N     N_R   0.928263 0.183464 0.746095 0.000000
C328  C     C_R   0.971853 0.200656 0.697162 0.000000
C329  C     C_R   0.979408 0.175291 0.664244 0.000000
H185  H     H_    0.071814 0.281102 0.550391 0.000000
H186  H     H_    0.050141 0.327497 0.609151 0.000000
H187  H     H_    0.893626 0.232673 0.787153 0.000000
H188  H     H_    0.955541 0.134347 0.678503 0.000000
Br48  Br    Br    0.169131 0.827134 0.664478 0.000000
C330  C     C_R   0.153405 0.830810 0.594474 0.000000
C331  C     C_R   0.081385 0.852289 0.569940 0.000000
C332  C     C_R   0.057306 0.842153 0.528385 0.000000
C333  C     C_R   0.106934 0.809176 0.513921 0.000000
N95   N     N_R   0.093888 0.789914 0.478107 0.000000
C334  C     C_R   0.171040 0.779692 0.463534 0.000000
N96   N     N_R   0.228191 0.784550 0.494720 0.000000
C335  C     C_R   0.185000 0.801519 0.527321 0.000000
C336  C     C_R   0.209776 0.809696 0.569707 0.000000
H189  H     H_    0.042508 0.873855 0.586278 0.000000
H190  H     H_    0.000123 0.857426 0.510276 0.000000
H191  H     H_    0.186546 0.771618 0.429059 0.000000
H192  H     H_    0.268060 0.796628 0.586025 0.000000

loop_
_geom_bond_atom_site_label_1
_geom_bond_atom_site_label_2
_geom_bond_distance
_geom_bond_site_symmetry_2
_ccdc_geom_bond_type
Zn1   N1    2.058 .      S
Zn1   N6    2.016 .      S
Zn1   N86   2.036 .      S
Zn1   N95   2.065 1_655  S
Zn2   N2    1.972 .      S
Zn2   N4    2.073 .      S
Zn2   N66   2.016 .      S
Zn2   N79   2.091 .      S
Zn3   N5    2.042 .      S
Zn3   N8    2.019 .      S
Zn3   N67   1.966 .      S
Zn3   N74   2.060 .      S
Zn4   N7    2.095 .      S
Zn4   N83   2.062 1_655  S
Zn4   N88   2.011 1_554  S
Zn4   N92   2.014 1_554  S
Zn5   N3    2.043 .      S
Zn5   N81   2.067 1_655  S
Zn5   N89   1.997 .      S
Zn5   N93   2.017 .      S
Zn6   N10   2.098 .      S
Zn6   N11   2.066 .      S
Zn6   N13   2.072 .      S
Zn6   N15   2.021 1_554  S
Zn7   N9    2.075 .      S
Zn7   N17   2.001 1_554  S
Zn7   N19   2.033 .      S
Zn7   N21   1.947 1_554  S
Zn8   N12   2.067 .      S
Zn8   N23   2.011 .      S
Zn8   N26   2.044 .      S
Zn8   N28   2.081 .      S
Zn9   N14   2.020 .      S
Zn9   N30   2.044 .      S
Zn9   N31   2.034 .      S
Zn9   N34   1.982 .      S
Zn10  N16   1.951 .      S
Zn10  N36   1.994 .      S
Zn10  N38   1.956 .      S
Zn10  N40   2.072 .      S
Zn11  N22   1.974 .      S
Zn11  N25   2.037 1_655  S
Zn11  N41   1.951 .      S
Zn11  N44   2.077 .      S
Zn12  N27   2.037 .      S
Zn12  N45   1.991 .      S
Zn12  N47   1.975 .      S
Zn12  N49   2.020 .      S
Zn13  N18   1.954 .      S
Zn13  N35   1.994 1_655  S
Zn13  N51   2.059 .      S
Zn13  N53   2.038 .      S
Zn14  N24   1.952 .      S
Zn14  N37   1.964 .      S
Zn14  N55   2.022 .      S
Zn14  N58   2.000 .      S
Zn15  N39   2.059 .      S
Zn15  N59   1.989 .      S
Zn15  N62   2.008 .      S
Zn15  N63   2.000 .      S
Zn16  N20   2.090 .      S
Zn16  N29   2.050 1_655  S
Zn16  N65   1.986 .      S
Zn16  N68   2.003 .      S
Zn17  N32   1.939 .      S
Zn17  N69   1.971 .      S
Zn17  N71   2.064 .      S
Zn17  N73   2.052 .      S
Zn18  N33   2.082 .      S
Zn18  N76   1.972 .      S
Zn18  N77   2.027 .      S
Zn18  N80   2.080 .      S
Zn19  N46   2.022 .      S
Zn19  N61   2.004 .      S
Zn19  N78   2.056 .      S
Zn19  N82   2.071 .      S
Zn20  N48   2.012 1_554  S
Zn20  N64   2.000 1_554  S
Zn20  N72   2.032 .      S
Zn20  N84   2.021 1_554  S
Zn21  N42   2.030 .      S
Zn21  N54   2.007 .      S
Zn21  N57   2.007 .      S
Zn21  N85   2.004 .      S
Zn22  N43   2.071 .      S
Zn22  N50   2.016 .      S
Zn22  N87   2.003 .      S
Zn22  N90   1.927 .      S
Zn23  N52   2.079 .      S
Zn23  N60   1.973 .      S
Zn23  N91   2.022 .      S
Zn23  N94   2.058 .      S
Zn24  N56   2.015 .      S
Zn24  N70   1.980 .      S
Zn24  N75   1.963 .      S
Zn24  N96   2.006 .      S
Br1   C1    1.886 .      S
C2    H1    1.079 .      S
C3    H2    1.051 .      S
C5    H3    1.063 .      S
C7    H4    1.075 .      S
Br2   C8    1.857 .      S
C9    H5    1.078 .      S
C10   H6    1.075 .      S
C12   H7    1.078 .      S
C14   H8    1.078 .      S
Br3   C15   1.899 .      S
C16   H9    1.081 .      S
C17   H10   1.068 .      S
C19   H11   1.079 .      S
C21   H12   1.072 .      S
Br4   C22   1.903 .      S
C23   H13   1.081 .      S
C24   H14   1.065 .      S
C26   H15   1.076 .      S
C28   H16   1.072 .      S
Br5   C29   1.894 .      S
C30   H17   1.076 .      S
C31   H18   1.067 .      S
C33   H19   1.070 .      S
C35   H20   1.054 .      S
Br6   C36   1.907 .      S
C37   H21   1.081 .      S
C38   H22   1.063 .      S
C40   H23   1.078 .      S
C42   H24   1.066 .      S
Br7   C43   1.906 .      S
C44   H25   1.081 .      S
C45   H26   1.068 .      S
C47   H27   1.080 .      S
C49   H28   1.072 .      S
Br8   C50   1.895 .      S
C51   H29   1.079 .      S
C52   H30   1.054 .      S
N15   Zn6   2.021 1_556  S
C54   H31   1.075 .      S
C56   H32   1.078 .      S
Br9   C57   1.894 .      S
C58   H33   1.078 .      S
C59   H34   1.057 .      S
N17   Zn7   2.001 1_556  S
C61   H35   1.080 .      S
C63   H36   1.068 .      S
Br10  C64   1.896 .      S
C65   H37   1.080 .      S
C66   H38   1.078 .      S
C68   H39   1.060 .      S
C70   H40   1.074 .      S
Br11  C71   1.904 .      S
C72   H41   1.081 .      S
C73   H42   1.081 .      S
N21   Zn7   1.947 1_556  S
C75   H43   1.081 .      S
C77   H44   1.075 .      S
Br12  C78   1.902 .      S
C79   H45   1.080 .      S
C80   H46   1.055 .      S
C82   H47   1.080 .      S
C84   H48   1.074 .      S
Br13  C85   1.906 .      S
C86   H49   1.081 .      S
C87   H50   1.063 1_455  S
N25   Zn11  2.037 1_455  S
C89   H51   1.080 .      S
C91   H52   1.056 .      S
H50   C87   1.063 1_655  S
Br14  C92   1.904 .      S
C93   H53   1.073 .      S
C94   H54   1.068 .      S
C96   H55   1.079 .      S
C98   H56   1.044 .      S
Br15  C99   1.893 .      S
C100  H57   1.081 .      S
C101  H58   1.071 1_455  S
N29   Zn16  2.050 1_455  S
C103  H59   1.080 .      S
C105  H60   1.067 .      S
H58   C101  1.071 1_655  S
Br16  C106  1.905 .      S
C107  H61   1.078 .      S
C108  H62   1.060 .      S
C110  H63   1.081 .      S
C112  H64   1.079 .      S
Br17  C113  1.906 .      S
C114  H65   1.081 .      S
C115  H66   1.070 .      S
C117  H67   1.078 .      S
C119  H68   1.079 .      S
Br18  C120  1.884 .      S
C121  H69   1.064 .      S
C122  H70   1.065 .      S
N35   Zn13  1.994 1_455  S
C124  H71   1.081 .      S
C126  H72   1.060 .      S
Br19  C127  1.904 1_545  S
C127  Br19  1.904 1_565  S
C128  H73   1.081 .      S
C129  H74   1.067 .      S
C131  H75   1.074 .      S
C133  H76   1.072 .      S
Br20  C134  1.902 .      S
C135  H77   1.073 .      S
C136  H78   1.062 .      S
C138  H79   1.078 .      S
C140  H80   1.065 .      S
Br21  C141  1.898 .      S
C142  H81   1.074 .      S
C143  H82   1.079 .      S
C145  H83   1.071 .      S
C147  H84   1.063 .      S
Br22  C148  1.906 .      S
C149  H85   1.081 .      S
C150  H86   1.062 .      S
C152  H87   1.078 .      S
C154  H88   1.057 .      S
Br23  C155  1.896 .      S
C156  H89   1.071 .      S
C157  H90   1.079 .      S
C159  H91   1.078 .      S
C161  H92   1.073 .      S
Br24  C162  1.894 .      S
C163  H93   1.067 .      S
C164  H94   1.076 .      S
C166  H95   1.075 .      S
N48   Zn20  2.012 1_556  S
C168  H96   1.057 .      S
Br25  C169  1.900 .      S
C170  H97   1.080 .      S
C171  H98   1.070 .      S
C173  H99   1.075 .      S
C175  H100  1.073 .      S
Br26  C176  1.908 .      S
C177  H101  1.080 1_545  S
C178  H102  1.073 .      S
C180  H103  1.077 .      S
C182  H104  1.059 .      S
H101  C177  1.080 1_565  S
Br27  C183  1.904 .      S
C184  H105  1.081 1_565  S
C185  H106  1.066 1_655  S
C187  H107  1.076 .      S
C189  H108  1.078 .      S
H105  C184  1.081 1_545  S
H106  C185  1.066 1_455  S
Br28  C190  1.903 1_545  S
C190  Br28  1.903 1_565  S
C191  H109  1.081 .      S
C192  H110  1.078 .      S
C194  H111  1.080 .      S
C196  H112  1.073 .      S
Br29  C197  1.883 .      S
C198  H113  1.080 .      S
C199  H114  1.062 .      S
C201  H115  1.078 .      S
C203  H116  1.069 .      S
Br30  C204  1.909 .      S
C205  H117  1.079 .      S
C206  H118  1.064 .      S
C208  H119  1.081 .      S
C210  H120  1.058 .      S
Br31  C211  1.902 .      S
C212  H121  1.081 .      S
C213  H122  1.079 .      S
C215  H123  1.081 .      S
C217  H124  1.074 .      S
Br32  C218  1.902 1_554  S
C218  Br32  1.902 1_556  S
C219  H125  1.081 .      S
C220  H126  1.070 .      S
C222  H127  1.074 .      S
N64   Zn20  2.000 1_556  S
C224  H128  1.076 .      S
Br33  C225  1.905 .      S
C226  H129  1.081 .      S
C227  H130  1.074 .      S
C229  H131  1.077 .      S
C231  H132  1.075 .      S
Br34  C232  1.890 .      S
C233  H133  1.067 .      S
C234  H134  1.079 .      S
C236  H135  1.079 .      S
C238  H136  1.080 .      S
Br35  C239  1.905 .      S
C240  H137  1.081 1_565  S
C241  H138  1.076 .      S
C243  H139  1.081 .      S
C245  H140  1.076 .      S
H137  C240  1.081 1_545  S
Br36  C246  1.900 .      S
C247  H141  1.081 .      S
C248  H142  1.061 .      S
C250  H143  1.078 .      S
C252  H144  1.071 .      S
Br37  C253  1.907 .      S
C254  H145  1.079 .      S
C255  H146  1.070 .      S
C257  H147  1.063 .      S
C259  H148  1.065 .      S
Br38  C260  1.892 .      S
C261  H149  1.079 .      S
C262  H150  1.076 .      S
C264  H151  1.079 .      S
C266  H152  1.076 .      S
Br39  C267  1.906 .      S
C268  H153  1.081 .      S
C269  H154  1.081 .      S
C271  H155  1.079 .      S
C273  H156  1.065 .      S
Br40  C274  1.879 .      S
C275  H157  1.075 .      S
C276  H158  1.067 .      S
C278  H159  1.075 .      S
C280  H160  1.053 .      S
Br41  C281  1.880 .      S
C282  H161  1.076 .      S
C283  H162  1.050 .      S
N81   Zn5   2.067 1_455  S
C285  H163  1.077 .      S
C287  H164  1.073 .      S
Br42  C288  1.886 .      S
C289  H165  1.080 .      S
C290  H166  1.060 .      S
N83   Zn4   2.062 1_455  S
C292  H167  1.080 .      S
N84   Zn20  2.021 1_556  S
C294  H168  1.078 .      S
Br43  C295  1.900 .      S
C296  H169  1.078 .      S
C297  H170  1.076 .      S
C299  H171  1.074 .      S
C301  H172  1.075 .      S
Br44  C302  1.899 .      S
C303  H173  1.078 .      S
C304  H174  1.071 .      S
C306  H175  1.080 .      S
N88   Zn4   2.011 1_556  S
C308  H176  1.069 .      S
Br45  C309  1.909 .      S
C310  H177  1.080 .      S
C311  H178  1.067 .      S
C313  H179  1.076 .      S
C315  H180  1.079 .      S
Br46  C316  1.888 .      S
C317  H181  1.070 .      S
C318  H182  1.077 .      S
C320  H183  1.079 .      S
N92   Zn4   2.014 1_556  S
C322  H184  1.073 .      S
Br47  C323  1.907 .      S
C324  H185  1.081 .      S
C325  H186  1.081 .      S
C327  H187  1.079 .      S
C329  H188  1.074 .      S
Br48  C330  1.904 .      S
C331  H189  1.067 .      S
C332  H190  1.074 .      S
N95   Zn1   2.065 1_455  S
C334  H191  1.079 .      S
C336  H192  1.068 .      S
C1    C2    1.384 .      A
C1    C7    1.363 .      A
C2    C3    1.386 .      A
C3    C4    1.370 .      A
C4    N1    1.357 1_455  A
C4    C6    1.353 1_455  A
N1    C4    1.357 1_655  A
N1    C5    1.380 .      A
C5    N2    1.363 .      A
N2    C6    1.329 .      A
C6    C4    1.353 1_655  A
C6    C7    1.362 1_655  A
C7    C6    1.362 1_455  A
C8    C9    1.384 .      A
C8    C14   1.369 .      A
C9    C10   1.375 .      A
C10   C11   1.368 .      A
C11   N3    1.338 .      A
C11   C13   1.356 .      A
N3    C12   1.383 .      A
C12   N4    1.385 .      A
N4    C13   1.335 .      A
C13   C14   1.352 .      A
C15   C16   1.381 .      A
C15   C21   1.380 .      A
C16   C17   1.380 .      A
C17   C18   1.373 .      A
C18   N5    1.350 .      A
C18   C20   1.353 .      A
N5    C19   1.375 .      A
C19   N6    1.373 .      A
N6    C20   1.346 .      A
C20   C21   1.374 .      A
C22   C23   1.383 .      A
C22   C28   1.380 1_545  A
C23   C24   1.381 .      A
C24   C25   1.369 .      A
C25   N7    1.353 .      A
C25   C27   1.359 1_545  A
N7    C26   1.380 1_545  A
C26   N7    1.380 1_565  A
C26   N8    1.373 .      A
N8    C27   1.343 .      A
C27   C25   1.359 1_565  A
C27   C28   1.377 .      A
C28   C22   1.380 1_565  A
C29   C30   1.373 .      A
C29   C35   1.375 .      A
C30   C31   1.379 .      A
C31   C32   1.372 .      A
C32   N9    1.344 1_556  A
C32   C34   1.364 .      A
N9    C32   1.344 1_554  A
N9    C33   1.384 .      A
C33   N10   1.380 .      A
N10   C34   1.353 1_554  A
C34   N10   1.353 1_556  A
C34   C35   1.371 .      A
C36   C37   1.384 .      A
C36   C42   1.382 .      A
C37   C38   1.382 .      A
C38   C39   1.370 .      A
C39   N11   1.350 .      A
C39   C41   1.362 .      A
N11   C40   1.381 1_554  A
C40   N11   1.381 1_556  A
C40   N12   1.380 .      A
N12   C41   1.352 1_556  A
C41   N12   1.352 1_554  A
C41   C42   1.376 .      A
C43   C44   1.385 .      A
C43   C49   1.382 .      A
C44   C45   1.383 .      A
C45   C46   1.375 .      A
C46   N13   1.354 .      A
C46   C48   1.360 .      A
N13   C47   1.379 .      A
C47   N14   1.373 .      A
N14   C48   1.346 .      A
C48   C49   1.377 .      A
C50   C51   1.378 1_556  A
C50   C56   1.378 .      A
C51   C50   1.378 1_554  A
C51   C52   1.380 .      A
C52   C53   1.360 1_554  A
C53   C52   1.360 1_556  A
C53   N15   1.353 .      A
C53   C55   1.352 .      A
N15   C54   1.366 .      A
C54   N16   1.369 .      A
N16   C55   1.332 .      A
C55   C56   1.370 .      A
C57   C58   1.378 1_556  A
C57   C63   1.370 .      A
C58   C57   1.378 1_554  A
C58   C59   1.381 1_455  A
C59   C58   1.381 1_655  A
C59   C60   1.377 1_554  A
C60   C59   1.377 1_556  A
C60   N17   1.356 .      A
C60   C62   1.351 .      A
N17   C61   1.369 .      A
C61   N18   1.368 .      A
N18   C62   1.336 .      A
C62   C63   1.369 1_655  A
C63   C62   1.369 1_455  A
C64   C65   1.386 .      A
C64   C70   1.378 .      A
C65   C66   1.383 .      A
C66   C67   1.371 1_455  A
C67   C66   1.371 1_655  A
C67   N19   1.344 .      A
C67   C69   1.364 .      A
N19   C68   1.368 .      A
C68   N20   1.387 .      A
N20   C69   1.346 .      A
C69   C70   1.367 1_655  A
C70   C69   1.367 1_455  A
C71   C72   1.390 .      A
C71   C77   1.384 1_554  A
C72   C73   1.384 .      A
C73   C74   1.371 .      A
C74   N21   1.342 1_554  A
C74   C76   1.353 1_554  A
N21   C74   1.342 1_556  A
N21   C75   1.363 .      A
C75   N22   1.365 .      A
N22   C76   1.348 .      A
C76   C74   1.353 1_556  A
C76   C77   1.371 .      A
C77   C71   1.384 1_556  A
C78   C79   1.383 .      A
C78   C84   1.377 .      A
C79   C80   1.383 .      A
C80   C81   1.364 .      A
C81   N23   1.353 .      A
C81   C83   1.349 .      A
N23   C82   1.367 .      A
C82   N24   1.369 .      A
N24   C83   1.335 .      A
C83   C84   1.371 .      A
C85   C86   1.377 .      A
C85   C91   1.378 .      A
C86   C87   1.378 .      A
C87   C88   1.377 1_554  A
C88   C87   1.377 1_556  A
C88   N25   1.352 .      A
C88   C90   1.357 .      A
N25   C89   1.377 .      A
C89   N26   1.377 .      A
N26   C90   1.353 .      A
C90   C91   1.378 1_556  A
C91   C90   1.378 1_554  A
C92   C93   1.374 .      A
C92   C98   1.375 1_554  A
C93   C94   1.378 .      A
C94   C95   1.375 1_554  A
C95   C94   1.375 1_556  A
C95   N27   1.345 .      A
C95   C97   1.354 .      A
N27   C96   1.374 .      A
C96   N28   1.382 .      A
N28   C97   1.354 .      A
C97   C98   1.369 .      A
C98   C92   1.375 1_556  A
C99   C100  1.384 .      A
C99   C105  1.380 .      A
C100  C101  1.380 .      A
C101  C102  1.368 .      A
C102  N29   1.343 .      A
C102  C104  1.358 .      A
N29   C103  1.380 .      A
C103  N30   1.380 .      A
N30   C104  1.347 .      A
C104  C105  1.371 .      A
C106  C107  1.386 .      A
C106  C112  1.373 .      A
C107  C108  1.387 .      A
C108  C109  1.365 .      A
C109  N31   1.358 .      A
C109  C111  1.351 .      A
N31   C110  1.371 .      A
C110  N32   1.371 .      A
N32   C111  1.328 .      A
C111  C112  1.369 .      A
C113  C114  1.385 .      A
C113  C119  1.381 .      A
C114  C115  1.385 .      A
C115  C116  1.373 .      A
C116  N33   1.361 .      A
C116  C118  1.359 .      A
N33   C117  1.378 .      A
C117  N34   1.367 .      A
N34   C118  1.336 .      A
C118  C119  1.373 .      A
C120  C121  1.369 .      A
C120  C126  1.377 .      A
C121  C122  1.365 .      A
C122  C123  1.366 1_545  A
C123  C122  1.366 1_565  A
C123  N35   1.341 .      A
C123  C125  1.350 .      A
N35   C124  1.371 .      A
C124  N36   1.373 .      A
N36   C125  1.346 .      A
C125  C126  1.372 1_565  A
C126  C125  1.372 1_545  A
C127  C128  1.384 .      A
C127  C133  1.383 .      A
C128  C129  1.382 .      A
C129  C130  1.374 .      A
C130  N37   1.351 .      A
C130  C132  1.351 .      A
N37   C131  1.361 .      A
C131  N38   1.364 .      A
N38   C132  1.343 .      A
C132  C133  1.373 .      A
C134  C135  1.380 1_565  A
C134  C140  1.375 .      A
C135  C134  1.380 1_545  A
C135  C136  1.380 .      A
C136  C137  1.370 .      A
C137  N39   1.349 .      A
C137  C139  1.358 1_545  A
N39   C138  1.377 1_545  A
C138  N39   1.377 1_565  A
C138  N40   1.386 .      A
N40   C139  1.345 .      A
C139  C137  1.358 1_565  A
C139  C140  1.372 .      A
C141  C142  1.381 1_655  A
C141  C147  1.373 .      A
C142  C141  1.381 1_455  A
C142  C143  1.385 .      A
C143  C144  1.367 1_455  A
C144  C143  1.367 1_655  A
C144  N41   1.334 .      A
C144  C146  1.355 .      A
N41   C145  1.362 .      A
C145  N42   1.372 .      A
N42   C146  1.353 .      A
C146  C147  1.369 .      A
C148  C149  1.383 .      A
C148  C154  1.383 .      A
C149  C150  1.380 .      A
C150  C151  1.369 1_554  A
C151  C150  1.369 1_556  A
C151  N43   1.345 .      A
C151  C153  1.357 .      A
N43   C152  1.385 .      A
C152  N44   1.379 .      A
N44   C153  1.352 .      A
C153  C154  1.371 1_556  A
C154  C153  1.371 1_554  A
C155  C156  1.383 .      A
C155  C161  1.385 .      A
C156  C157  1.375 .      A
C157  C158  1.364 .      A
C158  N45   1.334 .      A
C158  C160  1.360 .      A
N45   C159  1.374 .      A
C159  N46   1.368 .      A
N46   C160  1.352 .      A
C160  C161  1.374 .      A
C162  C163  1.372 .      A
C162  C168  1.373 .      A
C163  C164  1.374 .      A
C164  C165  1.371 .      A
C165  N47   1.339 .      A
C165  C167  1.351 .      A
N47   C166  1.367 .      A
C166  N48   1.373 .      A
N48   C167  1.350 .      A
C167  C168  1.368 .      A
C169  C170  1.386 .      A
C169  C175  1.380 .      A
C170  C171  1.383 .      A
C171  C172  1.372 1_554  A
C172  C171  1.372 1_556  A
C172  N49   1.346 .      A
C172  C174  1.358 .      A
N49   C173  1.375 .      A
C173  N50   1.372 .      A
N50   C174  1.347 .      A
C174  C175  1.373 1_556  A
C175  C174  1.373 1_554  A
C176  C177  1.383 .      A
C176  C182  1.383 .      A
C177  C178  1.378 1_545  A
C178  C177  1.378 1_565  A
C178  C179  1.368 .      A
C179  N51   1.341 .      A
C179  C181  1.358 1_565  A
N51   C180  1.384 .      A
C180  N52   1.377 1_565  A
N52   C180  1.377 1_545  A
N52   C181  1.354 .      A
C181  C179  1.358 1_545  A
C181  C182  1.371 .      A
C183  C184  1.386 .      A
C183  C189  1.391 .      A
C184  C185  1.380 .      A
C185  C186  1.370 .      A
C186  N53   1.351 .      A
C186  C188  1.361 .      A
N53   C187  1.369 .      A
C187  N54   1.374 .      A
N54   C188  1.345 .      A
C188  C189  1.378 .      A
C190  C191  1.388 .      A
C190  C196  1.385 .      A
C191  C192  1.382 .      A
C192  C193  1.371 .      A
C193  N55   1.345 .      A
C193  C195  1.363 .      A
N55   C194  1.373 .      A
C194  N56   1.371 .      A
N56   C195  1.349 .      A
C195  C196  1.375 .      A
C197  C198  1.377 .      A
C197  C203  1.392 .      A
C198  C199  1.365 .      A
C199  C200  1.354 .      A
C200  N57   1.330 .      A
C200  C202  1.349 .      A
N57   C201  1.373 .      A
C201  N58   1.369 .      A
N58   C202  1.353 .      A
C202  C203  1.376 .      A
C204  C205  1.382 .      A
C204  C210  1.375 .      A
C205  C206  1.381 .      A
C206  C207  1.377 .      A
C207  N59   1.350 .      A
C207  C209  1.353 .      A
N59   C208  1.368 .      A
C208  N60   1.365 .      A
N60   C209  1.348 .      A
C209  C210  1.370 .      A
C211  C212  1.390 .      A
C211  C217  1.386 .      A
C212  C213  1.383 .      A
C213  C214  1.375 .      A
C214  N61   1.347 .      A
C214  C216  1.361 .      A
N61   C215  1.372 .      A
C215  N62   1.371 .      A
N62   C216  1.349 .      A
C216  C217  1.375 .      A
C218  C219  1.386 .      A
C218  C224  1.381 1_556  A
C219  C220  1.383 .      A
C220  C221  1.374 .      A
C221  N63   1.352 .      A
C221  C223  1.355 .      A
N63   C222  1.363 .      A
C222  N64   1.373 .      A
N64   C223  1.342 .      A
C223  C224  1.374 1_556  A
C224  C218  1.381 1_554  A
C224  C223  1.374 1_554  A
C225  C226  1.390 .      A
C225  C231  1.386 .      A
C226  C227  1.384 .      A
C227  C228  1.372 .      A
C228  N65   1.346 .      A
C228  C230  1.365 .      A
N65   C229  1.363 .      A
C229  N66   1.371 .      A
N66   C230  1.348 .      A
C230  C231  1.372 .      A
C232  C233  1.383 .      A
C232  C238  1.380 .      A
C233  C234  1.376 .      A
C234  C235  1.363 .      A
C235  N67   1.334 .      A
C235  C237  1.348 .      A
N67   C236  1.371 .      A
C236  N68   1.370 .      A
N68   C237  1.340 .      A
C237  C238  1.359 .      A
C239  C240  1.389 .      A
C239  C245  1.381 .      A
C240  C241  1.385 .      A
C241  C242  1.375 .      A
C242  N69   1.346 .      A
C242  C244  1.350 .      A
N69   C243  1.370 .      A
C243  N70   1.367 .      A
N70   C244  1.346 .      A
C244  C245  1.372 .      A
C246  C247  1.378 .      A
C246  C252  1.388 .      A
C247  C248  1.373 .      A
C248  C249  1.369 .      A
C249  N71   1.350 1_545  A
C249  C251  1.360 .      A
N71   C249  1.350 1_565  A
N71   C250  1.378 .      A
C250  N72   1.375 1_565  A
N72   C250  1.375 1_545  A
N72   C251  1.351 .      A
C251  C252  1.381 .      A
C253  C254  1.382 .      A
C253  C259  1.382 1_545  A
C254  C255  1.381 1_545  A
C255  C254  1.381 1_565  A
C255  C256  1.368 .      A
C256  N73   1.346 .      A
C256  C258  1.359 .      A
N73   C257  1.372 .      A
C257  N74   1.377 .      A
N74   C258  1.349 .      A
C258  C259  1.374 .      A
C259  C253  1.382 1_565  A
C260  C261  1.387 .      A
C260  C266  1.379 .      A
C261  C262  1.380 .      A
C262  C263  1.372 .      A
C263  N75   1.342 .      A
C263  C265  1.350 .      A
N75   C264  1.367 .      A
C264  N76   1.369 .      A
N76   C265  1.342 .      A
C265  C266  1.366 .      A
C267  C268  1.389 .      A
C267  C273  1.389 .      A
C268  C269  1.383 .      A
C269  C270  1.375 .      A
C270  N77   1.339 .      A
C270  C272  1.360 .      A
N77   C271  1.377 .      A
C271  N78   1.375 .      A
N78   C272  1.357 .      A
C272  C273  1.374 .      A
C274  C275  1.383 .      A
C274  C280  1.365 .      A
C275  C276  1.379 .      A
C276  C277  1.368 .      A
C277  N79   1.343 .      A
C277  C279  1.355 .      A
N79   C278  1.391 .      A
C278  N80   1.382 .      A
N80   C279  1.334 .      A
C279  C280  1.348 .      A
C281  C282  1.370 .      A
C281  C287  1.389 .      A
C282  C283  1.357 .      A
C283  C284  1.358 .      A
C284  N81   1.340 .      A
C284  C286  1.363 .      A
N81   C285  1.381 .      A
C285  N82   1.386 .      A
N82   C286  1.351 .      A
C286  C287  1.381 .      A
C288  C289  1.378 .      A
C288  C294  1.378 .      A
C289  C290  1.372 .      A
C290  C291  1.367 .      A
C291  N83   1.349 1_556  A
C291  C293  1.352 .      A
N83   C291  1.349 1_554  A
N83   C292  1.379 .      A
C292  N84   1.376 1_554  A
N84   C292  1.376 1_556  A
N84   C293  1.343 .      A
C293  C294  1.372 .      A
C295  C296  1.383 .      A
C295  C301  1.379 .      A
C296  C297  1.380 .      A
C297  C298  1.372 .      A
C298  N85   1.346 .      A
C298  C300  1.353 .      A
N85   C299  1.366 .      A
C299  N86   1.376 .      A
N86   C300  1.350 .      A
C300  C301  1.373 .      A
C302  C303  1.386 .      A
C302  C308  1.375 .      A
C303  C304  1.383 1_554  A
C304  C303  1.383 1_556  A
C304  C305  1.376 1_455  A
C305  C304  1.376 1_655  A
C305  N87   1.348 .      A
C305  C307  1.355 1_656  A
N87   C306  1.373 .      A
C306  N88   1.372 .      A
N88   C307  1.346 1_656  A
C307  C305  1.355 1_454  A
C307  N88   1.346 1_454  A
C307  C308  1.368 .      A
C309  C310  1.387 .      A
C309  C315  1.378 .      A
C310  C311  1.387 .      A
C311  C312  1.376 .      A
C312  N89   1.358 .      A
C312  C314  1.354 .      A
N89   C313  1.363 .      A
C313  N90   1.361 .      A
N90   C314  1.336 .      A
C314  C315  1.371 .      A
C316  C317  1.379 1_554  A
C316  C322  1.374 .      A
C317  C316  1.379 1_556  A
C317  C318  1.381 .      A
C318  C319  1.368 1_565  A
C319  C318  1.368 1_545  A
C319  N91   1.344 .      A
C319  C321  1.357 .      A
N91   C320  1.375 .      A
C320  N92   1.378 .      A
N92   C321  1.338 .      A
C321  C322  1.363 1_546  A
C322  C321  1.363 1_564  A
C323  C324  1.389 .      A
C323  C329  1.388 1_455  A
C324  C325  1.382 .      A
C325  C326  1.372 1_455  A
C326  C325  1.372 1_655  A
C326  N93   1.338 .      A
C326  C328  1.362 .      A
N93   C327  1.376 .      A
C327  N94   1.375 .      A
N94   C328  1.354 .      A
C328  C329  1.369 .      A
C329  C323  1.388 1_655  A
C330  C331  1.377 .      A
C330  C336  1.380 .      A
C331  C332  1.380 .      A
C332  C333  1.367 .      A
C333  N95   1.347 .      A
C333  C335  1.354 .      A
N95   C334  1.374 .      A
C334  N96   1.372 .      A
N96   C335  1.342 .      A
C335  C336  1.373 .      A
