data_str_m1_o12004_CAN
_audit_creation_date              2015-10-01T06:29:22-0700
_symmetry_space_group_name_H-M    P1
_symmetry_Int_Tables_number       1
_space_group_crystal_system       triclinic
loop_
_symmetry_equiv_pos_as_xyz
  x,y,z
_cell_length_a                    23.9409034
_cell_length_b                    24.1202876
_cell_length_c                    10.4579926
_cell_angle_alpha                 89.8091097
_cell_angle_beta                  86.6868385
_cell_angle_gamma                 61.5319475
_cell_volume                      5297.96815959

loop_
_atom_site_label
_atom_site_type_symbol
_atom_site_description
_atom_site_fract_x
_atom_site_fract_y
_atom_site_fract_z
_atom_type_partial_charge
Zn1   Zn    Zn3+2 0.315068 0.696873 0.598606 0.000000
Zn2   Zn    Zn3+2 0.894185 0.783227 0.063662 0.000000
Zn3   Zn    Zn3+2 0.634227 0.537669 0.050306 0.000000
Zn4   Zn    Zn3+2 0.900014 0.516852 0.082075 0.000000
Zn5   Zn    Zn3+2 0.631653 0.041506 0.098451 0.000000
Zn6   Zn    Zn3+2 0.384746 0.789519 0.077169 0.000000
Zn7   Zn    Zn3+2 0.568047 0.448395 0.564014 0.000000
Zn8   Zn    Zn3+2 0.304220 0.202128 0.603306 0.000000
Zn9   Zn    Zn3+2 0.048686 0.449176 0.572626 0.000000
Zn10  Zn    Zn3+2 0.049866 0.704416 0.562525 0.000000
Zn11  Zn    Zn3+2 0.375613 0.048272 0.087645 0.000000
Zn12  Zn    Zn3+2 0.563344 0.194318 0.605824 0.000000
C1    C     C_3   0.021367 0.631085 0.327698 0.000000
N1    N     N_3   0.989612 0.653277 0.210737 0.000000
C2    C     C_3   0.940866 0.634037 0.218878 0.000000
C3    C     C_R   0.904944 0.648023 0.103228 0.000000
N2    N     N_R   0.880235 0.704912 0.041654 0.000000
C4    C     C_R   0.846875 0.695579 0.951549 0.000000
C5    C     C_R   0.814082 0.733909 0.855577 0.000000
C6    C     C_R   0.774541 0.717752 0.790577 0.000000
C7    C     C_R   0.771236 0.663004 0.818042 0.000000
C8    C     C_R   0.813644 0.619745 0.897484 0.000000
C9    C     C_R   0.850051 0.637987 0.963205 0.000000
N3    N     N_R   0.886740 0.606127 0.056775 0.000000
H1    H     H_    0.064799 0.635827 0.323746 0.000000
H2    H     H_    0.986902 0.657903 0.407241 0.000000
H3    H     H_    0.035673 0.580538 0.338960 0.000000
H4    H     H_    0.023725 0.627847 0.138020 0.000000
H5    H     H_    0.963943 0.582233 0.228417 0.000000
H6    H     H_    0.906694 0.659749 0.300823 0.000000
H7    H     H_    0.818232 0.775181 0.832745 0.000000
H8    H     H_    0.746338 0.746985 0.716235 0.000000
H9    H     H_    0.740434 0.651129 0.766427 0.000000
H10   H     H_    0.815558 0.574555 0.913170 0.000000
C10   C     C_3   0.749523 0.704497 0.117567 0.000000
N4    N     N_3   0.776159 0.636856 0.119270 0.000000
C11   C     C_3   0.728536 0.620890 0.079206 0.000000
C12   C     C_R   0.756134 0.551757 0.085790 0.000000
N5    N     N_R   0.817881 0.513973 0.115605 0.000000
C13   C     C_R   0.818007 0.460075 0.148972 0.000000
C14   C     C_R   0.867985 0.405595 0.187814 0.000000
C15   C     C_R   0.859313 0.353174 0.203414 0.000000
C16   C     C_R   0.801660 0.356103 0.178321 0.000000
C17   C     C_R   0.751589 0.411879 0.140829 0.000000
C18   C     C_R   0.761122 0.463511 0.128721 0.000000
N6    N     N_R   0.720444 0.521147 0.089088 0.000000
H11   H     H_    0.784439 0.717949 0.152181 0.000000
H12   H     H_    0.739884 0.719393 0.017379 0.000000
H13   H     H_    0.706027 0.725730 0.183164 0.000000
H14   H     H_    0.784695 0.623707 0.213913 0.000000
H15   H     H_    0.685933 0.643346 0.147099 0.000000
H16   H     H_    0.714229 0.637365 0.981531 0.000000
H17   H     H_    0.912400 0.403561 0.205790 0.000000
H18   H     H_    0.898003 0.309390 0.233140 0.000000
H19   H     H_    0.796034 0.314402 0.186925 0.000000
H20   H     H_    0.707358 0.413742 0.119822 0.000000
C19   C     C_3   0.061858 0.463065 0.039944 0.000000
N7    N     N_3   0.009932 0.524024 0.010976 0.000000
C20   C     C_3   0.000724 0.526137 0.874762 0.000000
C21   C     C_R   0.982339 0.478136 0.840472 0.000000
N8    N     N_R   0.940679 0.467826 0.917417 0.000000
C22   C     C_R   0.934426 0.423383 0.849986 0.000000
C23   C     C_R   0.897011 0.395443 0.878216 0.000000
C24   C     C_R   0.896967 0.353004 0.789249 0.000000
C25   C     C_R   0.933115 0.339743 0.673721 0.000000
C26   C     C_R   0.970180 0.368549 0.646170 0.000000
C27   C     C_R   0.970341 0.409286 0.737158 0.000000
N9    N     N_R   0.001034 0.443329 0.728161 0.000000
H21   H     H_    0.107140 0.459227 0.998990 0.000000
H22   H     H_    0.064649 0.459206 0.145263 0.000000
H23   H     H_    0.053635 0.425211 0.001053 0.000000
H24   H     H_    0.025070 0.556740 0.028897 0.000000
H25   H     H_    0.960638 0.572739 0.856386 0.000000
H26   H     H_    0.044253 0.518560 0.817682 0.000000
H27   H     H_    0.867821 0.405796 0.964703 0.000000
H28   H     H_    0.867829 0.330508 0.809397 0.000000
H29   H     H_    0.931904 0.307112 0.604742 0.000000
H30   H     H_    0.997676 0.359500 0.555933 0.000000
C28   C     C_3   0.803764 0.592258 0.467494 0.000000
N10   N     N_3   0.869310 0.546990 0.487286 0.000000
C29   C     C_3   0.909590 0.556406 0.390538 0.000000
C30   C     C_R   0.960247 0.494305 0.340295 0.000000
N11   N     N_R   0.007089 0.449601 0.410593 0.000000
C31   C     C_R   0.031622 0.398130 0.332829 0.000000
C32   C     C_R   0.074499 0.337763 0.361819 0.000000
C33   C     C_R   0.089529 0.290649 0.269970 0.000000
C34   C     C_R   0.061783 0.304967 0.152666 0.000000
C35   C     C_R   0.017526 0.366297 0.126729 0.000000
C36   C     C_R   0.003305 0.412037 0.219652 0.000000
N12   N     N_R   0.958011 0.472937 0.221157 0.000000
H31   H     H_    0.774412 0.596994 0.556810 0.000000
H32   H     H_    0.799570 0.639042 0.444873 0.000000
H33   H     H_    0.787480 0.575079 0.387262 0.000000
H34   H     H_    0.874300 0.502097 0.471315 0.000000
H35   H     H_    0.880029 0.581521 0.310281 0.000000
H36   H     H_    0.930900 0.583856 0.429901 0.000000
H37   H     H_    0.093220 0.327191 0.455271 0.000000
H38   H     H_    0.122646 0.242305 0.289999 0.000000
H39   H     H_    0.073653 0.267632 0.082381 0.000000
H40   H     H_    0.993550 0.377071 0.038448 0.000000
C37   C     C_3   0.459936 0.220583 0.075221 0.000000
N13   N     N_3   0.501181 0.153067 0.077813 0.000000
C38   C     C_3   0.460552 0.125115 0.109330 0.000000
C39   C     C_R   0.496379 0.055615 0.092233 0.000000
N14   N     N_R   0.465815 0.022582 0.063847 0.000000
C40   C     C_R   0.512737 0.962969 0.048363 0.000000
C41   C     C_R   0.508035 0.909462 0.022380 0.000000
C42   C     C_R   0.562562 0.852307 0.026844 0.000000
C43   C     C_R   0.618729 0.850114 0.059960 0.000000
C44   C     C_R   0.622713 0.904484 0.081501 0.000000
C45   C     C_R   0.569323 0.960671 0.068516 0.000000
N15   N     N_R   0.561407 0.019081 0.089179 0.000000
H41   H     H_    0.418104 0.229756 0.021982 0.000000
H42   H     H_    0.442569 0.240105 0.173672 0.000000
H43   H     H_    0.486417 0.243157 0.028660 0.000000
H44   H     H_    0.531048 0.144297 0.152139 0.000000
H45   H     H_    0.438967 0.138847 0.207935 0.000000
H46   H     H_    0.421297 0.142030 0.043942 0.000000
H47   H     H_    0.464862 0.910292 0.995785 0.000000
H48   H     H_    0.561048 0.809013 0.008112 0.000000
H49   H     H_    0.659583 0.805519 0.069906 0.000000
H50   H     H_    0.665487 0.902098 0.113729 0.000000
C46   C     C_3   0.569024 0.022317 0.722068 0.000000
N16   N     N_3   0.530635 0.090213 0.715002 0.000000
C47   C     C_3   0.528978 0.115509 0.841025 0.000000
C48   C     C_R   0.585926 0.123366 0.854810 0.000000
N17   N     N_R   0.627370 0.096567 0.950016 0.000000
C49   C     C_R   0.672745 0.112931 0.919982 0.000000
C50   C     C_R   0.728757 0.094182 0.977773 0.000000
C51   C     C_R   0.769120 0.116573 0.930145 0.000000
C52   C     C_R   0.752900 0.156361 0.826624 0.000000
C53   C     C_R   0.697115 0.172713 0.767121 0.000000
C54   C     C_R   0.658117 0.149374 0.814671 0.000000
N18   N     N_R   0.603555 0.156146 0.769593 0.000000
H51   H     H_    0.612620 0.011530 0.771454 0.000000
H52   H     H_    0.541703 0.002835 0.777300 0.000000
H53   H     H_    0.581471 0.000520 0.624799 0.000000
H54   H     H_    0.553169 0.107282 0.650434 0.000000
H55   H     H_    0.484962 0.161051 0.858229 0.000000
H56   H     H_    0.531264 0.080768 0.909535 0.000000
H57   H     H_    0.741690 0.061999 0.055709 0.000000
H58   H     H_    0.813498 0.103086 0.973795 0.000000
H59   H     H_    0.784458 0.174190 0.791311 0.000000
H60   H     H_    0.684664 0.203867 0.688498 0.000000
C55   C     C_3   0.589841 0.247348 0.084246 0.000000
N19   N     N_3   0.597220 0.188357 0.134919 0.000000
C56   C     C_3   0.575342 0.199850 0.269164 0.000000
C57   C     C_R   0.595477 0.138707 0.333344 0.000000
N20   N     N_R   0.618034 0.081696 0.269830 0.000000
C58   C     C_R   0.640167 0.040290 0.364704 0.000000
C59   C     C_R   0.665389 0.976135 0.356621 0.000000
C60   C     C_R   0.688526 0.942120 0.465168 0.000000
C61   C     C_R   0.687603 0.972658 0.577889 0.000000
C62   C     C_R   0.658714 0.037715 0.585740 0.000000
C63   C     C_R   0.632964 0.070389 0.477770 0.000000
N21   N     N_R   0.601828 0.132915 0.462609 0.000000
H61   H     H_    0.594360 0.243635 0.978154 0.000000
H62   H     H_    0.542344 0.286343 0.116456 0.000000
H63   H     H_    0.627313 0.256962 0.119300 0.000000
H64   H     H_    0.645882 0.156747 0.131114 0.000000
H65   H     H_    0.597400 0.225357 0.315158 0.000000
H66   H     H_    0.523037 0.229199 0.279595 0.000000
H67   H     H_    0.664940 0.952882 0.270849 0.000000
H68   H     H_    0.707547 0.891577 0.461398 0.000000
H69   H     H_    0.707205 0.945882 0.661461 0.000000
H70   H     H_    0.659155 0.060851 0.672778 0.000000
C64   C     C_3   0.685701 0.862413 0.787884 0.000000
N22   N     N_3   0.704387 0.865924 0.915776 0.000000
C65   C     C_3   0.743049 0.897489 0.912454 0.000000
C66   C     C_R   0.756931 0.908081 0.044572 0.000000
N23   N     N_R   0.721279 0.966362 0.104256 0.000000
C67   C     C_R   0.759726 0.966830 0.193039 0.000000
C68   C     C_R   0.753088 0.017724 0.265707 0.000000
C69   C     C_R   0.800274 0.008893 0.345717 0.000000
C70   C     C_R   0.854607 0.951291 0.347026 0.000000
C71   C     C_R   0.862651 0.902346 0.266974 0.000000
C72   C     C_R   0.814006 0.910355 0.191833 0.000000
N24   N     N_R   0.814093 0.870747 0.100087 0.000000
H71   H     H_    0.663879 0.830932 0.787700 0.000000
H72   H     H_    0.648764 0.909588 0.761462 0.000000
H73   H     H_    0.727600 0.845490 0.718413 0.000000
H74   H     H_    0.729834 0.821107 0.951914 0.000000
H75   H     H_    0.787759 0.871303 0.852459 0.000000
H76   H     H_    0.715631 0.944460 0.870636 0.000000
H77   H     H_    0.716090 0.065066 0.256183 0.000000
H78   H     H_    0.796038 0.048061 0.403115 0.000000
H79   H     H_    0.892478 0.945478 0.406255 0.000000
H80   H     H_    0.907535 0.861296 0.262521 0.000000
C73   C     C_3   0.274985 0.930186 0.784051 0.000000
N25   N     N_3   0.325359 0.908191 0.872535 0.000000
C74   C     C_3   0.303826 0.954397 0.977433 0.000000
C75   C     C_R   0.351508 0.932214 0.076363 0.000000
N26   N     N_R   0.381698 0.871276 0.117075 0.000000
C76   C     C_R   0.424731 0.871377 0.194305 0.000000
C77   C     C_R   0.474302 0.820263 0.245248 0.000000
C78   C     C_R   0.517905 0.830291 0.309109 0.000000
C79   C     C_R   0.512137 0.890237 0.318053 0.000000
C80   C     C_R   0.463236 0.940547 0.261518 0.000000
C81   C     C_R   0.419694 0.929590 0.201700 0.000000
N27   N     N_R   0.374670 0.969028 0.126399 0.000000
H81   H     H_    0.289436 0.895933 0.702454 0.000000
H82   H     H_    0.230866 0.934479 0.833818 0.000000
H83   H     H_    0.265990 0.976824 0.747979 0.000000
H84   H     H_    0.364916 0.908184 0.824925 0.000000
H85   H     H_    0.297346 0.000190 0.941054 0.000000
H86   H     H_    0.257700 0.961009 0.020965 0.000000
H87   H     H_    0.480847 0.773397 0.232327 0.000000
H88   H     H_    0.557459 0.790940 0.350083 0.000000
H89   H     H_    0.547198 0.897252 0.365947 0.000000
H90   H     H_    0.460770 0.986280 0.262142 0.000000
C82   C     C_3   0.525210 0.623219 0.754551 0.000000
N28   N     N_3   0.475311 0.688496 0.764694 0.000000
C83   C     C_3   0.420996 0.687137 0.829226 0.000000
C84   C     C_R   0.361319 0.747524 0.820336 0.000000
N29   N     N_R   0.340646 0.791040 0.919671 0.000000
C85   C     C_R   0.277414 0.822643 0.910614 0.000000
C86   C     C_R   0.233126 0.863308 0.001237 0.000000
C87   C     C_R   0.169677 0.882010 0.985155 0.000000
C88   C     C_R   0.152629 0.856438 0.885240 0.000000
C89   C     C_R   0.198658 0.813055 0.798737 0.000000
C90   C     C_R   0.260709 0.799138 0.809847 0.000000
N30   N     N_R   0.312922 0.752518 0.747758 0.000000
H91   H     H_    0.568232 0.620650 0.703914 0.000000
H92   H     H_    0.535972 0.603534 0.851318 0.000000
H93   H     H_    0.508808 0.594227 0.703000 0.000000
H94   H     H_    0.463533 0.705001 0.673040 0.000000
H95   H     H_    0.415010 0.647858 0.793769 0.000000
H96   H     H_    0.430875 0.678040 0.929479 0.000000
H97   H     H_    0.247403 0.878291 0.084880 0.000000
H98   H     H_    0.133461 0.913984 0.054696 0.000000
H99   H     H_    0.103339 0.868133 0.878773 0.000000
H100  H     H_    0.186763 0.786950 0.732855 0.000000
C91   C     C_3   0.425065 0.822644 0.567202 0.000000
N31   N     N_3   0.401452 0.780746 0.526315 0.000000
C92   C     C_3   0.358979 0.811686 0.425885 0.000000
C93   C     C_R   0.344673 0.766150 0.359022 0.000000
N32   N     N_R   0.343892 0.763296 0.227574 0.000000
C94   C     C_R   0.317923 0.725233 0.210456 0.000000
C95   C     C_R   0.311570 0.701083 0.096282 0.000000
C96   C     C_R   0.297500 0.651858 0.100193 0.000000
C97   C     C_R   0.289251 0.628086 0.215921 0.000000
C98   C     C_R   0.295161 0.653297 0.329308 0.000000
C99   C     C_R   0.309338 0.702188 0.324253 0.000000
N33   N     N_R   0.325553 0.726962 0.421484 0.000000
H101  H     H_    0.453368 0.802844 0.651211 0.000000
H102  H     H_    0.455802 0.826892 0.488870 0.000000
H103  H     H_    0.384485 0.869638 0.593738 0.000000
H104  H     H_    0.373440 0.777609 0.603044 0.000000
H105  H     H_    0.313941 0.850514 0.469311 0.000000
H106  H     H_    0.381001 0.831214 0.356047 0.000000
H107  H     H_    0.321047 0.716391 0.005246 0.000000
H108  H     H_    0.293448 0.631201 0.012797 0.000000
H109  H     H_    0.279233 0.588895 0.216999 0.000000
H110  H     H_    0.292611 0.631809 0.416839 0.000000
C100  C     C_3   0.432377 0.625335 0.154966 0.000000
N34   N     N_3   0.487957 0.610113 0.225823 0.000000
C101  C     C_3   0.493501 0.666496 0.230050 0.000000
C102  C     C_R   0.512979 0.673922 0.100332 0.000000
N35   N     N_R   0.570311 0.633173 0.036850 0.000000
C103  C     C_R   0.571947 0.667982 0.936963 0.000000
C104  C     C_R   0.619744 0.652605 0.843046 0.000000
C105  C     C_R   0.610559 0.696762 0.750000 0.000000
C106  C     C_R   0.555057 0.754603 0.753487 0.000000
C107  C     C_R   0.506721 0.768526 0.847767 0.000000
C108  C     C_R   0.516585 0.723864 0.937589 0.000000
N36   N     N_R   0.477242 0.727421 0.037889 0.000000
H111  H     H_    0.443461 0.595811 0.067793 0.000000
H112  H     H_    0.395950 0.619523 0.214301 0.000000
H113  H     H_    0.416537 0.672555 0.119489 0.000000
H114  H     H_    0.525448 0.585365 0.160638 0.000000
H115  H     H_    0.448099 0.707134 0.263781 0.000000
H116  H     H_    0.531133 0.664714 0.288282 0.000000
H117  H     H_    0.662721 0.607787 0.841070 0.000000
H118  H     H_    0.647035 0.686501 0.674201 0.000000
H119  H     H_    0.550091 0.788970 0.682229 0.000000
H120  H     H_    0.463862 0.813612 0.853815 0.000000
C109  C     C_3   0.555851 0.603442 0.476196 0.000000
N37   N     N_3   0.488067 0.637424 0.503610 0.000000
C110  C     C_3   0.462301 0.598364 0.458537 0.000000
C111  C     C_R   0.442565 0.575039 0.569635 0.000000
N38   N     N_R   0.476977 0.515869 0.617100 0.000000
C112  C     C_R   0.436548 0.515442 0.712543 0.000000
C113  C     C_R   0.440617 0.465476 0.782568 0.000000
C114  C     C_R   0.389683 0.475919 0.867421 0.000000
C115  C     C_R   0.335767 0.534762 0.879481 0.000000
C116  C     C_R   0.331990 0.584217 0.806444 0.000000
C117  C     C_R   0.383107 0.572891 0.724118 0.000000
N39   N     N_R   0.385276 0.611076 0.632513 0.000000
H121  H     H_    0.575944 0.636039 0.486633 0.000000
H122  H     H_    0.576039 0.563130 0.540326 0.000000
H123  H     H_    0.565128 0.584193 0.378387 0.000000
H124  H     H_    0.469065 0.679273 0.454619 0.000000
H125  H     H_    0.419837 0.627285 0.405100 0.000000
H126  H     H_    0.497376 0.556240 0.404212 0.000000
H127  H     H_    0.482013 0.419618 0.773480 0.000000
H128  H     H_    0.391609 0.437781 0.924404 0.000000
H129  H     H_    0.295945 0.541240 0.943683 0.000000
H130  H     H_    0.289095 0.629202 0.808081 0.000000
C118  C     C_3   0.382173 0.375848 0.489221 0.000000
N40   N     N_3   0.450262 0.337290 0.498026 0.000000
C119  C     C_3   0.470218 0.364678 0.597608 0.000000
C120  C     C_R   0.541124 0.332181 0.589991 0.000000
N41   N     N_R   0.575680 0.268163 0.570415 0.000000
C121  C     C_R   0.631461 0.259892 0.516779 0.000000
C122  C     C_R   0.682041 0.204879 0.467970 0.000000
C123  C     C_R   0.733816 0.208507 0.411058 0.000000
C124  C     C_R   0.732797 0.266452 0.400267 0.000000
C125  C     C_R   0.680568 0.321180 0.448585 0.000000
C126  C     C_R   0.631614 0.315749 0.510673 0.000000
N42   N     N_R   0.576171 0.362514 0.560647 0.000000
H131  H     H_    0.365842 0.354951 0.415310 0.000000
H132  H     H_    0.357265 0.377281 0.582871 0.000000
H133  H     H_    0.371619 0.424031 0.460922 0.000000
H134  H     H_    0.472341 0.340336 0.411208 0.000000
H135  H     H_    0.451262 0.415727 0.581617 0.000000
H136  H     H_    0.450924 0.358283 0.691447 0.000000
H137  H     H_    0.682016 0.160244 0.474586 0.000000
H138  H     H_    0.774742 0.166213 0.372331 0.000000
H139  H     H_    0.772730 0.268783 0.352272 0.000000
H140  H     H_    0.676696 0.366848 0.432296 0.000000
C127  C     C_3   0.690327 0.569357 0.484251 0.000000
N43   N     N_3   0.667847 0.555233 0.369013 0.000000
C128  C     C_3   0.675391 0.492154 0.382124 0.000000
C129  C     C_R   0.626822 0.482173 0.318714 0.000000
N44   N     N_R   0.588862 0.462225 0.385193 0.000000
C130  C     C_R   0.552069 0.459817 0.296087 0.000000
C131  C     C_R   0.501014 0.448940 0.314121 0.000000
C132  C     C_R   0.461911 0.461246 0.213515 0.000000
C133  C     C_R   0.473251 0.486578 0.101559 0.000000
C134  C     C_R   0.525625 0.496589 0.087656 0.000000
C135  C     C_R   0.565042 0.480357 0.184313 0.000000
N45   N     N_R   0.611392 0.495822 0.194421 0.000000
H141  H     H_    0.686684 0.616757 0.475906 0.000000
H142  H     H_    0.661567 0.569596 0.571226 0.000000
H143  H     H_    0.739800 0.532026 0.495802 0.000000
H144  H     H_    0.699152 0.553978 0.294716 0.000000
H145  H     H_    0.724369 0.456353 0.349612 0.000000
H146  H     H_    0.664942 0.487339 0.482019 0.000000
H147  H     H_    0.490543 0.433449 0.404609 0.000000
H148  H     H_    0.420466 0.454391 0.224683 0.000000
H149  H     H_    0.439494 0.500969 0.028192 0.000000
H150  H     H_    0.533709 0.522682 0.011078 0.000000
C136  C     C_3   0.644797 0.340429 0.930377 0.000000
N46   N     N_3   0.601942 0.404741 0.974981 0.000000
C137  C     C_3   0.571286 0.440529 0.864331 0.000000
C138  C     C_R   0.605122 0.473851 0.809046 0.000000
N47   N     N_R   0.641135 0.493538 0.876521 0.000000
C139  C     C_R   0.692280 0.477861 0.793762 0.000000
C140  C     C_R   0.744583 0.486457 0.807511 0.000000
C141  C     C_R   0.794765 0.459724 0.715903 0.000000
C142  C     C_R   0.793231 0.423174 0.615907 0.000000
C143  C     C_R   0.739276 0.417508 0.600505 0.000000
C144  C     C_R   0.686892 0.450351 0.685230 0.000000
N48   N     N_R   0.628422 0.454637 0.686703 0.000000
H151  H     H_    0.673644 0.313247 0.009901 0.000000
H152  H     H_    0.616940 0.317913 0.897850 0.000000
H153  H     H_    0.677045 0.340621 0.850023 0.000000
H154  H     H_    0.630414 0.422714 0.007744 0.000000
H155  H     H_    0.576636 0.406082 0.788612 0.000000
H156  H     H_    0.519858 0.471223 0.880363 0.000000
H157  H     H_    0.747122 0.514804 0.882640 0.000000
H158  H     H_    0.835932 0.466515 0.723511 0.000000
H159  H     H_    0.833749 0.400400 0.547535 0.000000
H160  H     H_    0.738683 0.389712 0.521228 0.000000
C145  C     C_3   0.335143 0.958169 0.422499 0.000000
N49   N     N_3   0.325454 0.015160 0.358485 0.000000
C146  C     C_3   0.354067 0.044691 0.432454 0.000000
C147  C     C_R   0.343808 0.103696 0.368465 0.000000
N50   N     N_R   0.343779 0.108001 0.237247 0.000000
C148  C     C_R   0.307191 0.169900 0.219654 0.000000
C149  C     C_R   0.289691 0.200954 0.106514 0.000000
C150  C     C_R   0.239166 0.261396 0.112252 0.000000
C151  C     C_R   0.204705 0.286523 0.227610 0.000000
C152  C     C_R   0.225421 0.254315 0.339662 0.000000
C153  C     C_R   0.282902 0.200256 0.333782 0.000000
N51   N     N_R   0.309828 0.161337 0.430425 0.000000
H161  H     H_    0.309915 0.936994 0.372768 0.000000
H162  H     H_    0.386767 0.924412 0.419092 0.000000
H163  H     H_    0.315917 0.969761 0.523546 0.000000
H164  H     H_    0.276502 0.045757 0.361973 0.000000
H165  H     H_    0.329639 0.057249 0.529539 0.000000
H166  H     H_    0.404929 0.011111 0.440385 0.000000
H167  H     H_    0.314776 0.180941 0.016187 0.000000
H168  H     H_    0.223261 0.286763 0.025119 0.000000
H169  H     H_    0.160735 0.330353 0.228338 0.000000
H170  H     H_    0.192830 0.264712 0.422439 0.000000
C154  C     C_3   0.416971 0.988766 0.796223 0.000000
N52   N     N_3   0.438773 0.025696 0.719794 0.000000
C155  C     C_3   0.416198 0.085815 0.787080 0.000000
C156  C     C_R   0.348045 0.110818 0.825718 0.000000
N53   N     N_R   0.299567 0.151508 0.753651 0.000000
C157  C     C_R   0.247561 0.155056 0.817701 0.000000
C158  C     C_R   0.185357 0.189112 0.787566 0.000000
C159  C     C_R   0.139348 0.187239 0.871571 0.000000
C160  C     C_R   0.156297 0.152354 0.982583 0.000000
C161  C     C_R   0.219614 0.118046 0.010669 0.000000
C162  C     C_R   0.264312 0.119618 0.924834 0.000000
N54   N     N_R   0.327859 0.091054 0.932855 0.000000
H171  H     H_    0.421089 0.996514 0.898178 0.000000
H172  H     H_    0.366440 0.004114 0.779272 0.000000
H173  H     H_    0.446438 0.938065 0.769214 0.000000
H174  H     H_    0.414749 0.034928 0.636045 0.000000
H175  H     H_    0.443016 0.078876 0.873326 0.000000
H176  H     H_    0.422521 0.119310 0.724005 0.000000
H177  H     H_    0.172849 0.215658 0.700796 0.000000
H178  H     H_    0.089749 0.213356 0.851017 0.000000
H179  H     H_    0.119667 0.151904 0.047365 0.000000
H180  H     H_    0.233242 0.090803 0.096446 0.000000
C163  C     C_3   0.497728 0.056951 0.458401 0.000000
N55   N     N_3   0.509492 0.108536 0.422705 0.000000
C164  C     C_3   0.449740 0.166852 0.435129 0.000000
C165  C     C_R   0.436083 0.195153 0.566246 0.000000
N56   N     N_R   0.378122 0.214942 0.629506 0.000000
C166  C     C_R   0.379500 0.249060 0.729601 0.000000
C167  C     C_R   0.332726 0.280737 0.824324 0.000000
C168  C     C_R   0.344110 0.316085 0.913545 0.000000
C169  C     C_R   0.402103 0.316603 0.909334 0.000000
C170  C     C_R   0.450321 0.279929 0.818839 0.000000
C171  C     C_R   0.436254 0.248790 0.727247 0.000000
N57   N     N_R   0.473631 0.214446 0.626066 0.000000
H181  H     H_    0.483410 0.061519 0.560857 0.000000
H182  H     H_    0.460274 0.057752 0.400494 0.000000
H183  H     H_    0.541661 0.011661 0.437001 0.000000
H184  H     H_    0.519818 0.101218 0.324811 0.000000
H185  H     H_    0.452169 0.201142 0.367769 0.000000
H186  H     H_    0.409721 0.158666 0.411753 0.000000
H187  H     H_    0.289019 0.277876 0.829423 0.000000
H188  H     H_    0.308765 0.341911 0.989984 0.000000
H189  H     H_    0.410889 0.342481 0.982493 0.000000
H190  H     H_    0.496660 0.277417 0.818265 0.000000
C172  C     C_3   0.188450 0.392201 0.841108 0.000000
N58   N     N_3   0.133005 0.382465 0.839100 0.000000
C173  C     C_3   0.150715 0.323021 0.773074 0.000000
C174  C     C_R   0.172039 0.327465 0.639934 0.000000
N59   N     N_R   0.137813 0.378442 0.566183 0.000000
C175  C     C_R   0.180045 0.372575 0.470336 0.000000
C176  C     C_R   0.167832 0.405428 0.359338 0.000000
C177  C     C_R   0.217965 0.388382 0.268117 0.000000
C178  C     C_R   0.277696 0.338111 0.288270 0.000000
C179  C     C_R   0.287516 0.303115 0.398082 0.000000
C180  C     C_R   0.237457 0.322039 0.488143 0.000000
N60   N     N_R   0.233067 0.289956 0.590565 0.000000
H191  H     H_    0.173209 0.443311 0.835737 0.000000
H192  H     H_    0.212014 0.374347 0.931294 0.000000
H193  H     H_    0.222271 0.368670 0.757710 0.000000
H194  H     H_    0.101490 0.417488 0.782033 0.000000
H195  H     H_    0.189863 0.284078 0.821363 0.000000
H196  H     H_    0.108624 0.315259 0.773413 0.000000
H197  H     H_    0.119701 0.439460 0.339888 0.000000
H198  H     H_    0.210139 0.412965 0.178861 0.000000
H199  H     H_    0.316019 0.324565 0.215125 0.000000
H200  H     H_    0.332552 0.261777 0.411120 0.000000
C181  C     C_3   0.093060 0.866537 0.384060 0.000000
N61   N     N_3   0.122383 0.799355 0.407371 0.000000
C182  C     C_3   0.144656 0.790206 0.535638 0.000000
C183  C     C_R   0.173320 0.722105 0.570901 0.000000
N62   N     N_R   0.139778 0.688931 0.587195 0.000000
C184  C     C_R   0.184772 0.632099 0.625158 0.000000
C185  C     C_R   0.178810 0.581876 0.673693 0.000000
C186  C     C_R   0.233141 0.525985 0.692340 0.000000
C187  C     C_R   0.291867 0.519524 0.652332 0.000000
C188  C     C_R   0.296510 0.570865 0.606809 0.000000
C189  C     C_R   0.242519 0.629079 0.615903 0.000000
N63   N     N_R   0.236751 0.686476 0.593188 0.000000
H201  H     H_    0.074288 0.875500 0.287359 0.000000
H202  H     H_    0.053508 0.893027 0.456820 0.000000
H203  H     H_    0.129133 0.882778 0.389069 0.000000
H204  H     H_    0.163191 0.778495 0.345356 0.000000
H205  H     H_    0.181563 0.805560 0.536267 0.000000
H206  H     H_    0.104602 0.819392 0.605586 0.000000
H207  H     H_    0.134697 0.582945 0.691643 0.000000
H208  H     H_    0.229337 0.485575 0.726800 0.000000
H209  H     H_    0.333754 0.473933 0.652360 0.000000
H210  H     H_    0.338706 0.561506 0.548848 0.000000
C190  C     C_3   0.832112 0.842936 0.579369 0.000000
N64   N     N_3   0.881696 0.832647 0.481497 0.000000
C191  C     C_3   0.891723 0.780949 0.395993 0.000000
C192  C     C_R   0.955422 0.756841 0.327968 0.000000
N65   N     N_R   0.012212 0.738799 0.386235 0.000000
C193  C     C_R   0.051244 0.736615 0.286082 0.000000
C194  C     C_R   0.114805 0.718463 0.285712 0.000000
C195  C     C_R   0.143865 0.726300 0.174000 0.000000
C196  C     C_R   0.109932 0.750041 0.065859 0.000000
C197  C     C_R   0.047027 0.763481 0.065852 0.000000
C198  C     C_R   0.019690 0.753387 0.176215 0.000000
N66   N     N_R   0.959832 0.762895 0.197828 0.000000
H211  H     H_    0.853147 0.815695 0.665244 0.000000
H212  H     H_    0.807190 0.893564 0.607661 0.000000
H213  H     H_    0.798407 0.828852 0.541364 0.000000
H214  H     H_    0.923767 0.820149 0.525670 0.000000
H215  H     H_    0.885423 0.743495 0.444554 0.000000
H216  H     H_    0.855568 0.799840 0.323452 0.000000
H217  H     H_    0.141416 0.698491 0.368772 0.000000
H218  H     H_    0.192810 0.715759 0.171623 0.000000
H219  H     H_    0.132984 0.757705 0.980850 0.000000
H220  H     H_    0.020418 0.783692 0.983482 0.000000
C199  C     C_3   0.096474 0.655435 0.904908 0.000000
N67   N     N_3   0.058211 0.634463 0.838015 0.000000
C200  C     C_3   0.991838 0.677131 0.870281 0.000000
C201  C     C_R   0.973845 0.741068 0.824901 0.000000
N68   N     N_R   0.996235 0.757121 0.714819 0.000000
C202  C     C_R   0.968330 0.820490 0.726128 0.000000
C203  C     C_R   0.974816 0.861727 0.643935 0.000000
C204  C     C_R   0.941283 0.925442 0.677306 0.000000
C205  C     C_R   0.902764 0.946158 0.790623 0.000000
C206  C     C_R   0.897007 0.903493 0.872226 0.000000
C207  C     C_R   0.930519 0.840841 0.836569 0.000000
N69   N     N_R   0.932966 0.791283 0.899778 0.000000
H221  H     H_    0.147529 0.620787 0.887064 0.000000
H222  H     H_    0.088436 0.701683 0.868756 0.000000
H223  H     H_    0.084416 0.657994 0.009261 0.000000
H224  H     H_    0.068339 0.590550 0.873738 0.000000
H225  H     H_    0.960952 0.659823 0.832415 0.000000
H226  H     H_    0.983295 0.681000 0.975239 0.000000
H227  H     H_    0.004263 0.845058 0.555828 0.000000
H228  H     H_    0.945013 0.959429 0.614674 0.000000
H229  H     H_    0.877086 0.996015 0.815108 0.000000
H230  H     H_    0.867362 0.918990 0.960468 0.000000
C208  C     C_3   0.241727 0.520772 0.408204 0.000000
N70   N     N_3   0.176895 0.563203 0.456337 0.000000
C209  C     C_3   0.143475 0.526378 0.468491 0.000000
C210  C     C_R   0.081198 0.560009 0.546756 0.000000
N71   N     N_R   0.048775 0.623762 0.574443 0.000000
C211  C     C_R   0.991493 0.632963 0.619036 0.000000
C212  C     C_R   0.936950 0.689327 0.622973 0.000000
C213  C     C_R   0.879705 0.688889 0.634178 0.000000
C214  C     C_R   0.878626 0.632296 0.644643 0.000000
C215  C     C_R   0.934211 0.576127 0.646464 0.000000
C216  C     C_R   0.990183 0.578039 0.626546 0.000000
N72   N     N_R   0.046269 0.530593 0.583298 0.000000
H231  H     H_    0.241314 0.502913 0.310867 0.000000
H232  H     H_    0.269682 0.546510 0.404134 0.000000
H233  H     H_    0.264158 0.480504 0.472732 0.000000
H234  H     H_    0.156701 0.596927 0.387153 0.000000
H235  H     H_    0.135080 0.516304 0.370835 0.000000
H236  H     H_    0.173586 0.481267 0.514961 0.000000
H237  H     H_    0.938466 0.731483 0.599702 0.000000
H238  H     H_    0.836243 0.732213 0.624663 0.000000
H239  H     H_    0.834947 0.631157 0.638120 0.000000
H240  H     H_    0.932508 0.532736 0.646628 0.000000

loop_
_geom_bond_atom_site_label_1
_geom_bond_atom_site_label_2
_geom_bond_distance
_geom_bond_site_symmetry_2
_ccdc_geom_bond_type
Zn1   N30   2.044 .      S
Zn1   N33   2.033 .      S
Zn1   N39   1.995 .      S
Zn1   N63   2.011 .      S
Zn2   N2    2.085 .      S
Zn2   N24   2.083 .      S
Zn2   N66   2.048 .      S
Zn2   N69   1.955 1_554  S
Zn3   N6    1.974 .      S
Zn3   N35   2.081 .      S
Zn3   N45   2.002 .      S
Zn3   N47   2.067 1_554  S
Zn4   N3    2.040 .      S
Zn4   N5    2.011 .      S
Zn4   N8    2.008 1_554  S
Zn4   N12   1.997 .      S
Zn5   N15   2.004 .      S
Zn5   N17   2.015 1_554  S
Zn5   N20   1.975 .      S
Zn5   N23   2.049 1_545  S
Zn6   N26   1.983 .      S
Zn6   N29   1.998 1_554  S
Zn6   N32   2.058 .      S
Zn6   N36   2.013 .      S
Zn7   N38   2.048 .      S
Zn7   N42   1.986 .      S
Zn7   N44   1.976 .      S
Zn7   N48   2.045 .      S
Zn8   N51   2.028 .      S
Zn8   N53   2.018 .      S
Zn8   N56   1.969 .      S
Zn8   N60   1.998 .      S
Zn9   N9    1.976 .      S
Zn9   N11   2.012 .      S
Zn9   N59   1.995 .      S
Zn9   N72   1.940 .      S
Zn10  N62   2.034 .      S
Zn10  N65   2.090 .      S
Zn10  N68   2.006 1_455  S
Zn10  N71   1.961 .      S
Zn11  N14   1.942 .      S
Zn11  N27   1.963 1_545  S
Zn11  N50   1.984 .      S
Zn11  N54   2.018 1_554  S
Zn12  N18   2.011 .      S
Zn12  N21   1.960 .      S
Zn12  N41   1.970 .      S
Zn12  N57   1.962 .      S
C1    N1    1.441 1_455  S
C1    H1    1.097 .      S
C1    H2    1.098 1_455  S
C1    H3    1.106 .      S
N1    C1    1.441 1_655  S
N1    C2    1.445 .      S
N1    H4    1.037 1_655  S
C2    C3    1.469 .      S
C2    H5    1.106 .      S
C2    H6    1.108 .      S
C5    H7    1.071 .      S
C6    H8    1.077 .      S
C7    H9    1.080 .      S
C8    H10   1.081 .      S
H2    C1    1.098 1_655  S
H4    N1    1.037 1_455  S
C10   N4    1.442 .      S
C10   H11   1.109 .      S
C10   H12   1.108 .      S
C10   H13   1.108 .      S
N4    C11   1.449 .      S
N4    H14   1.040 .      S
C11   C12   1.475 .      S
C11   H15   1.109 .      S
C11   H16   1.108 1_554  S
C14   H17   1.069 .      S
C15   H18   1.081 .      S
C16   H19   1.079 .      S
C17   H20   1.074 .      S
H16   C11   1.108 1_556  S
C19   N7    1.448 .      S
C19   H21   1.104 1_554  S
C19   H22   1.108 .      S
C19   H23   1.105 .      S
N7    C20   1.451 1_554  S
N7    H24   1.035 .      S
C20   N7    1.451 1_556  S
C20   C21   1.473 1_455  S
C20   H25   1.101 1_455  S
C20   H26   1.106 .      S
C21   C20   1.473 1_655  S
N8    Zn4   2.008 1_556  S
C23   H27   1.063 .      S
C24   H28   1.081 .      S
C25   H29   1.081 .      S
C26   H30   1.079 .      S
H21   C19   1.104 1_556  S
H25   C20   1.101 1_655  S
C28   N10   1.449 .      S
C28   H31   1.108 .      S
C28   H32   1.110 .      S
C28   H33   1.105 .      S
N10   C29   1.449 .      S
N10   H34   1.044 .      S
C29   C30   1.480 .      S
C29   H35   1.109 .      S
C29   H36   1.103 .      S
C32   H37   1.078 .      S
C33   H38   1.081 .      S
C34   H39   1.081 .      S
C35   H40   1.080 1_455  S
H40   C35   1.080 1_655  S
C37   N13   1.448 .      S
C37   H41   1.102 .      S
C37   H42   1.105 .      S
C37   H43   1.108 .      S
N13   C38   1.448 .      S
N13   H44   1.039 .      S
C38   C39   1.480 .      S
C38   H45   1.103 .      S
C38   H46   1.106 .      S
C41   H47   1.077 1_554  S
C42   H48   1.081 .      S
C43   H49   1.064 .      S
C44   H50   1.072 .      S
H47   C41   1.077 1_556  S
C46   N16   1.451 .      S
C46   H51   1.107 .      S
C46   H52   1.109 .      S
C46   H53   1.104 .      S
N16   C47   1.445 .      S
N16   H54   1.041 .      S
C47   C48   1.478 .      S
C47   H55   1.107 .      S
C47   H56   1.084 .      S
N17   Zn5   2.015 1_556  S
C50   H57   1.076 1_556  S
C51   H58   1.081 .      S
C52   H59   1.081 .      S
C53   H60   1.068 .      S
H57   C50   1.076 1_554  S
C55   N19   1.450 .      S
C55   H61   1.108 1_554  S
C55   H62   1.109 .      S
C55   H63   1.109 .      S
N19   C56   1.450 .      S
N19   H64   1.043 .      S
C56   C57   1.487 .      S
C56   H65   1.109 .      S
C56   H66   1.105 .      S
C59   H67   1.063 .      S
C60   H68   1.079 .      S
C61   H69   1.075 .      S
C62   H70   1.072 .      S
H61   C55   1.108 1_556  S
C64   N22   1.450 .      S
C64   H71   1.108 .      S
C64   H72   1.105 .      S
C64   H73   1.108 .      S
N22   C65   1.451 .      S
N22   H74   1.039 .      S
C65   C66   1.490 1_556  S
C65   H75   1.104 .      S
C65   H76   1.108 .      S
C66   C65   1.490 1_554  S
N23   Zn5   2.049 1_565  S
C68   H77   1.069 .      S
C69   H78   1.081 .      S
C70   H79   1.081 .      S
C71   H80   1.057 .      S
C73   N25   1.452 .      S
C73   H81   1.108 .      S
C73   H82   1.109 .      S
C73   H83   1.109 .      S
N25   C74   1.451 .      S
N25   H84   1.044 .      S
C74   C75   1.487 1_556  S
C74   H85   1.109 1_565  S
C74   H86   1.108 1_556  S
C75   C74   1.487 1_554  S
C77   H87   1.073 .      S
C78   H88   1.081 .      S
C79   H89   1.081 .      S
C80   H90   1.076 .      S
N27   Zn11  1.963 1_565  S
H85   C74   1.109 1_545  S
H86   C74   1.108 1_554  S
C82   N28   1.453 .      S
C82   H91   1.105 .      S
C82   H92   1.107 .      S
C82   H93   1.106 .      S
N28   C83   1.444 .      S
N28   H94   1.038 .      S
C83   C84   1.484 .      S
C83   H95   1.093 .      S
C83   H96   1.087 .      S
N29   Zn6   1.998 1_556  S
C86   H97   1.080 .      S
C87   H98   1.081 1_556  S
C88   H99   1.081 .      S
C89   H100  1.072 .      S
H98   C87   1.081 1_554  S
C91   N31   1.449 .      S
C91   H101  1.103 .      S
C91   H102  1.107 .      S
C91   H103  1.108 .      S
N31   C92   1.445 .      S
N31   H104  1.042 .      S
C92   C93   1.485 .      S
C92   H105  1.109 .      S
C92   H106  1.106 .      S
C95   H107  1.071 .      S
C96   H108  1.073 .      S
C97   H109  1.080 .      S
C98   H110  1.063 .      S
C100  N34   1.449 .      S
C100  H111  1.098 .      S
C100  H112  1.104 .      S
C100  H113  1.086 .      S
N34   C101  1.429 .      S
N34   H114  1.024 .      S
C101  C102  1.447 .      S
C101  H115  1.100 .      S
C101  H116  1.100 .      S
C104  H117  1.079 .      S
C105  H118  1.081 .      S
C106  H119  1.081 .      S
C107  H120  1.081 .      S
C109  N37   1.438 .      S
C109  H121  1.108 .      S
C109  H122  1.102 .      S
C109  H123  1.091 .      S
N37   C110  1.443 .      S
N37   H124  1.036 .      S
C110  C111  1.441 .      S
C110  H125  1.104 .      S
C110  H126  1.093 .      S
C113  H127  1.077 .      S
C114  H128  1.078 .      S
C115  H129  1.081 .      S
C116  H130  1.081 .      S
C118  N40   1.450 .      S
C118  H131  1.109 .      S
C118  H132  1.109 .      S
C118  H133  1.108 .      S
N40   C119  1.453 .      S
N40   H134  1.044 .      S
C119  C120  1.490 .      S
C119  H135  1.107 .      S
C119  H136  1.102 .      S
C122  H137  1.079 .      S
C123  H138  1.081 .      S
C124  H139  1.079 .      S
C125  H140  1.074 .      S
C127  N43   1.453 .      S
C127  H141  1.108 .      S
C127  H142  1.107 .      S
C127  H143  1.108 .      S
N43   C128  1.451 .      S
N43   H144  1.038 .      S
C128  C129  1.486 .      S
C128  H145  1.108 .      S
C128  H146  1.079 .      S
C131  H147  1.076 .      S
C132  H148  1.081 .      S
C133  H149  1.079 .      S
C134  H150  1.082 .      S
C136  N46   1.452 .      S
C136  H151  1.109 1_556  S
C136  H152  1.108 .      S
C136  H153  1.109 .      S
N46   C137  1.453 .      S
N46   H154  1.039 1_556  S
C137  C138  1.483 .      S
C137  H155  1.107 .      S
C137  H156  1.096 .      S
N47   Zn3   2.067 1_556  S
C140  H157  1.066 .      S
C141  H158  1.081 .      S
C142  H159  1.081 .      S
C143  H160  1.073 .      S
H151  C136  1.109 1_554  S
H154  N46   1.039 1_554  S
C145  N49   1.449 1_565  S
C145  H161  1.108 .      S
C145  H162  1.108 .      S
C145  H163  1.109 .      S
N49   C145  1.449 1_545  S
N49   C146  1.451 .      S
N49   H164  1.044 .      S
C146  C147  1.488 .      S
C146  H165  1.109 .      S
C146  H166  1.103 .      S
C149  H167  1.071 .      S
C150  H168  1.079 .      S
C151  H169  1.079 .      S
C152  H170  1.076 .      S
C154  N52   1.447 1_565  S
C154  H171  1.101 .      S
C154  H172  1.109 1_565  S
C154  H173  1.109 .      S
N52   C154  1.447 1_545  S
N52   C155  1.451 .      S
N52   H174  1.040 .      S
C155  C156  1.475 .      S
C155  H175  1.103 .      S
C155  H176  1.101 .      S
C158  H177  1.081 .      S
C159  H178  1.081 .      S
C160  H179  1.081 1_556  S
C161  H180  1.081 .      S
N54   Zn11  2.018 1_556  S
H172  C154  1.109 1_545  S
H179  C160  1.081 1_554  S
C163  N55   1.444 .      S
C163  H181  1.095 .      S
C163  H182  1.103 .      S
C163  H183  1.109 .      S
N55   C164  1.450 .      S
N55   H184  1.035 .      S
C164  C165  1.481 .      S
C164  H185  1.105 .      S
C164  H186  1.107 .      S
C167  H187  1.079 .      S
C168  H188  1.080 .      S
C169  H189  1.080 .      S
C170  H190  1.081 .      S
C172  N58   1.455 .      S
C172  H191  1.109 .      S
C172  H192  1.105 .      S
C172  H193  1.105 .      S
N58   C173  1.451 .      S
N58   H194  1.039 .      S
C173  C174  1.476 .      S
C173  H195  1.108 .      S
C173  H196  1.109 .      S
C176  H197  1.080 .      S
C177  H198  1.081 .      S
C178  H199  1.081 .      S
C179  H200  1.080 .      S
C181  N61   1.453 .      S
C181  H201  1.109 .      S
C181  H202  1.108 .      S
C181  H203  1.109 .      S
N61   C182  1.449 .      S
N61   H204  1.043 .      S
C182  C183  1.502 .      S
C182  H205  1.109 .      S
C182  H206  1.109 .      S
C185  H207  1.050 .      S
C186  H208  1.080 .      S
C187  H209  1.079 .      S
C188  H210  1.073 .      S
C190  N64   1.449 .      S
C190  H211  1.107 .      S
C190  H212  1.106 .      S
C190  H213  1.106 .      S
N64   C191  1.452 .      S
N64   H214  1.040 .      S
C191  C192  1.484 .      S
C191  H215  1.102 .      S
C191  H216  1.109 .      S
C194  H217  1.078 .      S
C195  H218  1.073 .      S
C196  H219  1.081 1_554  S
C197  H220  1.072 1_554  S
H219  C196  1.081 1_556  S
H220  C197  1.072 1_556  S
C199  N67   1.450 .      S
C199  H221  1.108 .      S
C199  H222  1.107 .      S
C199  H223  1.107 1_556  S
N67   C200  1.442 1_455  S
N67   H224  1.041 .      S
C200  N67   1.442 1_655  S
C200  C201  1.475 .      S
C200  H225  1.099 .      S
C200  H226  1.101 .      S
N68   Zn10  2.006 1_655  S
C203  H227  1.079 1_655  S
C204  H228  1.081 .      S
C205  H229  1.081 .      S
C206  H230  1.081 .      S
N69   Zn2   1.955 1_556  S
H223  C199  1.107 1_554  S
H227  C203  1.079 1_455  S
C208  N70   1.452 .      S
C208  H231  1.109 .      S
C208  H232  1.108 .      S
C208  H233  1.108 .      S
N70   C209  1.453 .      S
N70   H234  1.039 .      S
C209  C210  1.504 .      S
C209  H235  1.102 .      S
C209  H236  1.109 .      S
C212  H237  1.062 .      S
C213  H238  1.077 .      S
C214  H239  1.065 .      S
C215  H240  1.067 .      S
C3    N2    1.383 .      A
C3    N3    1.376 .      A
N2    C4    1.355 1_554  A
C4    N2    1.355 1_556  A
C4    C5    1.368 .      A
C4    C9    1.360 .      A
C5    C6    1.392 .      A
C6    C7    1.388 .      A
C7    C8    1.375 .      A
C8    C9    1.365 .      A
C9    N3    1.331 1_556  A
N3    C9    1.331 1_554  A
C12   N5    1.371 .      A
C12   N6    1.369 .      A
N5    C13   1.344 .      A
C13   C14   1.370 .      A
C13   C18   1.354 .      A
C14   C15   1.383 .      A
C15   C16   1.388 .      A
C16   C17   1.383 .      A
C17   C18   1.373 .      A
C18   N6    1.343 .      A
C21   N8    1.359 .      A
C21   N9    1.368 1_655  A
N8    C22   1.356 .      A
C22   C23   1.374 .      A
C22   C27   1.362 .      A
C23   C24   1.386 .      A
C24   C25   1.389 .      A
C25   C26   1.382 .      A
C26   C27   1.372 .      A
C27   N9    1.338 1_655  A
N9    C21   1.368 1_455  A
N9    C27   1.338 1_455  A
C30   N11   1.378 1_655  A
C30   N12   1.364 .      A
N11   C30   1.378 1_455  A
N11   C31   1.343 .      A
C31   C32   1.369 .      A
C31   C36   1.359 .      A
C32   C33   1.386 .      A
C33   C34   1.392 .      A
C34   C35   1.386 .      A
C35   C36   1.374 .      A
C36   N12   1.347 1_455  A
N12   C36   1.347 1_655  A
C39   N14   1.357 .      A
C39   N15   1.374 .      A
N14   C40   1.340 1_545  A
C40   N14   1.340 1_565  A
C40   C41   1.377 .      A
C40   C45   1.358 .      A
C41   C42   1.378 .      A
C42   C43   1.384 .      A
C43   C44   1.380 .      A
C44   C45   1.362 .      A
C45   N15   1.345 1_565  A
N15   C45   1.345 1_545  A
C48   N17   1.376 .      A
C48   N18   1.367 .      A
N17   C49   1.343 .      A
C49   C50   1.372 .      A
C49   C54   1.361 .      A
C50   C51   1.383 .      A
C51   C52   1.389 .      A
C52   C53   1.385 .      A
C53   C54   1.372 .      A
C54   N18   1.350 .      A
C57   N20   1.371 .      A
C57   N21   1.368 .      A
N20   C58   1.346 .      A
C58   C59   1.368 1_545  A
C58   C63   1.348 .      A
C59   C58   1.368 1_565  A
C59   C60   1.379 .      A
C60   C61   1.386 .      A
C61   C62   1.381 1_565  A
C62   C61   1.381 1_545  A
C62   C63   1.374 .      A
C63   N21   1.340 .      A
C66   N23   1.376 .      A
C66   N24   1.391 .      A
N23   C67   1.348 .      A
C67   C68   1.384 1_565  A
C67   C72   1.362 .      A
C68   C67   1.384 1_545  A
C68   C69   1.379 .      A
C69   C70   1.379 1_545  A
C70   C69   1.379 1_565  A
C70   C71   1.379 .      A
C71   C72   1.379 .      A
C72   N24   1.355 .      A
C75   N26   1.372 .      A
C75   N27   1.370 .      A
N26   C76   1.346 .      A
C76   C77   1.373 .      A
C76   C81   1.353 .      A
C77   C78   1.384 .      A
C78   C79   1.388 .      A
C79   C80   1.383 .      A
C80   C81   1.374 .      A
C81   N27   1.343 .      A
C84   N29   1.371 .      A
C84   N30   1.379 .      A
N29   C85   1.341 .      A
C85   C86   1.372 1_556  A
C85   C90   1.364 .      A
C86   C85   1.372 1_554  A
C86   C87   1.384 1_554  A
C87   C86   1.384 1_556  A
C87   C88   1.390 .      A
C88   C89   1.385 .      A
C89   C90   1.370 .      A
C90   N30   1.349 .      A
C93   N32   1.378 .      A
C93   N33   1.380 .      A
N32   C94   1.349 .      A
C94   C95   1.378 .      A
C94   C99   1.358 .      A
C95   C96   1.380 .      A
C96   C97   1.381 .      A
C97   C98   1.379 .      A
C98   C99   1.374 .      A
C99   N33   1.346 .      A
C102  N35   1.380 .      A
C102  N36   1.353 .      A
N35   C103  1.349 1_554  A
C103  N35   1.349 1_556  A
C103  C104  1.371 .      A
C103  C108  1.367 .      A
C104  C105  1.387 .      A
C105  C106  1.393 .      A
C106  C107  1.387 .      A
C107  C108  1.369 .      A
C108  N36   1.343 1_556  A
N36   C108  1.343 1_554  A
C111  N38   1.372 .      A
C111  N39   1.354 .      A
N38   C112  1.353 .      A
C112  C113  1.374 .      A
C112  C117  1.366 .      A
C113  C114  1.386 .      A
C114  C115  1.390 .      A
C115  C116  1.383 .      A
C116  C117  1.369 .      A
C117  N39   1.343 .      A
C120  N41   1.369 .      A
C120  N42   1.374 .      A
N41   C121  1.341 .      A
C121  C122  1.374 .      A
C121  C126  1.350 .      A
C122  C123  1.384 .      A
C123  C124  1.391 .      A
C124  C125  1.385 .      A
C125  C126  1.368 .      A
C126  N42   1.343 .      A
C129  N44   1.372 .      A
C129  N45   1.368 .      A
N44   C130  1.339 .      A
C130  C131  1.370 .      A
C130  C135  1.345 .      A
C131  C132  1.385 .      A
C132  C133  1.391 .      A
C133  C134  1.385 .      A
C134  C135  1.349 .      A
C135  N45   1.338 .      A
C138  N47   1.389 .      A
C138  N48   1.356 .      A
N47   C139  1.353 .      A
C139  C140  1.378 .      A
C139  C144  1.360 .      A
C140  C141  1.382 .      A
C141  C142  1.383 .      A
C142  C143  1.380 .      A
C143  C144  1.384 .      A
C144  N48   1.353 .      A
C147  N50   1.376 .      A
C147  N51   1.372 .      A
N50   C148  1.342 .      A
C148  C149  1.374 .      A
C148  C153  1.349 .      A
C149  C150  1.380 .      A
C150  C151  1.384 .      A
C151  C152  1.384 .      A
C152  C153  1.370 .      A
C153  N51   1.346 .      A
C156  N53   1.374 .      A
C156  N54   1.367 .      A
N53   C157  1.345 .      A
C157  C158  1.370 .      A
C157  C162  1.366 .      A
C158  C159  1.387 .      A
C159  C160  1.394 .      A
C160  C161  1.387 1_556  A
C161  C160  1.387 1_554  A
C161  C162  1.371 1_554  A
C162  C161  1.371 1_556  A
C162  N54   1.346 .      A
C165  N56   1.362 .      A
C165  N57   1.372 .      A
N56   C166  1.345 .      A
C166  C167  1.371 .      A
C166  C171  1.354 .      A
C167  C168  1.389 .      A
C168  C169  1.393 .      A
C169  C170  1.384 .      A
C170  C171  1.371 .      A
C171  N57   1.340 .      A
C174  N59   1.373 .      A
C174  N60   1.370 .      A
N59   C175  1.340 .      A
C175  C176  1.369 .      A
C175  C180  1.357 .      A
C176  C177  1.385 .      A
C177  C178  1.393 .      A
C178  C179  1.386 .      A
C179  C180  1.372 .      A
C180  N60   1.348 .      A
C183  N62   1.382 .      A
C183  N63   1.376 .      A
N62   C184  1.355 .      A
C184  C185  1.378 .      A
C184  C189  1.347 .      A
C185  C186  1.380 .      A
C186  C187  1.378 .      A
C187  C188  1.376 .      A
C188  C189  1.381 .      A
C189  N63   1.346 .      A
C192  N65   1.393 1_655  A
C192  N66   1.372 .      A
N65   C192  1.393 1_455  A
N65   C193  1.347 .      A
C193  C194  1.368 .      A
C193  C198  1.364 .      A
C194  C195  1.384 .      A
C195  C196  1.388 .      A
C196  C197  1.381 .      A
C197  C198  1.372 .      A
C198  N66   1.344 1_455  A
N66   C198  1.344 1_655  A
C201  N68   1.373 .      A
C201  N69   1.351 .      A
N68   C202  1.347 .      A
C202  C203  1.371 .      A
C202  C207  1.362 .      A
C203  C204  1.387 .      A
C204  C205  1.394 .      A
C205  C206  1.386 .      A
C206  C207  1.371 .      A
C207  N69   1.342 .      A
C210  N71   1.375 .      A
C210  N72   1.370 .      A
N71   C211  1.336 1_455  A
C211  N71   1.336 1_655  A
C211  C212  1.363 .      A
C211  C216  1.342 .      A
C212  C213  1.374 .      A
C213  C214  1.381 .      A
C214  C215  1.375 .      A
C215  C216  1.367 .      A
C216  N72   1.336 1_655  A
N72   C216  1.336 1_455  A
