data_str_m1_o12216_AFY
_audit_creation_date              2015-10-01T06:47:33-0700
_symmetry_space_group_name_H-M    P1
_symmetry_Int_Tables_number       1
_space_group_crystal_system       triclinic
loop_
_symmetry_equiv_pos_as_xyz
  x,y,z
_cell_length_a                    26.7037740
_cell_length_b                    25.9864408
_cell_length_c                    18.0457122
_cell_angle_alpha                 86.5721851
_cell_angle_beta                  95.7517886
_cell_angle_gamma                 117.254828
_cell_volume                      11074.8826015

loop_
_atom_site_label
_atom_site_type_symbol
_atom_site_description
_atom_site_fract_x
_atom_site_fract_y
_atom_site_fract_z
_atom_type_partial_charge
Zn1   Zn    Zn3+2 0.385267 0.772169 0.763976 0.000000
Zn2   Zn    Zn3+2 0.569386 0.161629 0.756955 0.000000
Zn3   Zn    Zn3+2 0.560230 0.953715 0.544118 0.000000
Zn4   Zn    Zn3+2 0.184827 0.981436 0.730946 0.000000
Zn5   Zn    Zn3+2 0.377597 0.163455 0.525189 0.000000
Zn6   Zn    Zn3+2 0.181620 0.776204 0.548827 0.000000
Zn7   Zn    Zn3+2 0.720938 0.641376 0.333585 0.000000
Zn8   Zn    Zn3+2 0.366203 0.958237 0.324378 0.000000
Zn9   Zn    Zn3+2 0.728512 0.645188 0.957949 0.000000
Zn10  Zn    Zn3+2 0.379305 0.973844 0.963550 0.000000
Zn11  Zn    Zn3+2 0.713200 0.839198 0.540040 0.000000
Zn12  Zn    Zn3+2 0.529343 0.442112 0.524309 0.000000
Zn13  Zn    Zn3+2 0.528727 0.642062 0.721226 0.000000
Zn14  Zn    Zn3+2 0.918487 0.640984 0.567694 0.000000
Zn15  Zn    Zn3+2 0.722940 0.440339 0.765109 0.000000
Zn16  Zn    Zn3+2 0.912559 0.842016 0.745355 0.000000
C1    C     C_3   0.324560 0.669529 0.517653 0.000000
C2    C     C_R   0.375275 0.725182 0.535356 0.000000
C3    C     C_R   0.410079 0.759195 0.481433 0.000000
C4    C     C_R   0.458921 0.808656 0.501859 0.000000
C5    C     C_R   0.468230 0.827538 0.572955 0.000000
N1    N     N_R   0.507974 0.878092 0.601866 0.000000
C6    C     C_R   0.495090 0.871964 0.674691 0.000000
N2    N     N_R   0.445944 0.822054 0.689656 0.000000
C7    C     C_R   0.432889 0.794845 0.624592 0.000000
C8    C     C_R   0.388515 0.742047 0.608087 0.000000
S1    S     S_3+2 0.543236 0.922561 0.741159 0.000000
O1    O     O_2   0.524303 0.963561 0.770948 0.000000
O2    O     O_2   0.560373 0.898070 0.812482 0.000000
O3    O     O_3   0.478332 0.876537 0.767661 0.000000
H1    H     H_    0.321606 0.658593 0.458504 0.000000
H2    H     H_    0.286164 0.672444 0.530078 0.000000
H3    H     H_    0.328095 0.635289 0.553775 0.000000
H4    H     H_    0.400973 0.745890 0.424081 0.000000
H5    H     H_    0.490156 0.829756 0.464670 0.000000
H6    H     H_    0.362830 0.714761 0.649683 0.000000
H7    H     H_    0.462877 0.903492 0.776282 0.000000
C9    C     C_3   0.080277 0.566174 0.740200 0.000000
C10   C     C_R   0.138702 0.613446 0.734282 0.000000
C11   C     C_R   0.180596 0.619147 0.790040 0.000000
C12   C     C_R   0.235766 0.661169 0.784786 0.000000
C13   C     C_R   0.248223 0.697098 0.722803 0.000000
N3    N     N_R   0.299264 0.740021 0.705205 0.000000
C14   C     C_R   0.282863 0.762101 0.640646 0.000000
N4    N     N_R   0.225752 0.738823 0.621143 0.000000
C15   C     C_R   0.205689 0.694380 0.670733 0.000000
C16   C     C_R   0.151109 0.651509 0.673884 0.000000
S2    S     S_3+2 0.325522 0.830006 0.611956 0.000000
O4    O     O_2   0.364843 0.855170 0.681997 0.000000
O5    O     O_2   0.294482 0.867387 0.603576 0.000000
O6    O     O_3   0.368044 0.846374 0.540349 0.000000
H8    H     H_    0.080922 0.523751 0.741744 0.000000
H9    H     H_    0.051936 0.567758 0.691792 0.000000
H10   H     H_    0.064082 0.571187 0.792139 0.000000
H11   H     H_    0.170436 0.589219 0.836929 0.000000
H12   H     H_    0.268556 0.662322 0.825547 0.000000
H13   H     H_    0.118955 0.647205 0.630279 0.000000
H14   H     H_    0.355977 0.869902 0.505506 0.000000
C17   C     C_3   0.389832 0.965416 0.753062 0.000000
C18   C     C_R   0.434024 0.992813 0.700352 0.000000
C19   C     C_R   0.430306 0.963200 0.638742 0.000000
C20   C     C_R   0.476086 0.973449 0.603221 0.000000
C21   C     C_R   0.525182 0.017170 0.629265 0.000000
N5    N     N_R   0.576094 0.026346 0.613941 0.000000
C22   C     C_R   0.609520 0.076555 0.655990 0.000000
N6    N     N_R   0.579114 0.097080 0.694779 0.000000
C23   C     C_R   0.526603 0.055958 0.677436 0.000000
C24   C     C_R   0.479689 0.045506 0.711844 0.000000
S3    S     S_3+2 0.685092 0.110386 0.661836 0.000000
O7    O     O_2   0.709295 0.088197 0.729965 0.000000
O8    O     O_2   0.711120 0.175116 0.678849 0.000000
O9    O     O_3   0.718922 0.105825 0.588356 0.000000
H15   H     H_    0.390569 0.995760 0.793794 0.000000
H16   H     H_    0.396487 0.931315 0.784434 0.000000
H17   H     H_    0.349493 0.942870 0.720646 0.000000
H18   H     H_    0.390532 0.938072 0.611821 0.000000
H19   H     H_    0.471829 0.947143 0.557617 0.000000
H20   H     H_    0.477902 0.075634 0.746731 0.000000
H21   H     H_    0.726952 0.141619 0.558637 0.000000
C25   C     C_3   0.654927 0.210626 0.488592 0.000000
C26   C     C_R   0.597738 0.195262 0.512649 0.000000
C27   C     C_R   0.554614 0.188666 0.459003 0.000000
C28   C     C_R   0.501115 0.174966 0.478914 0.000000
C29   C     C_R   0.492670 0.170622 0.553164 0.000000
N7    N     N_R   0.447485 0.166971 0.584690 0.000000
C30   C     C_R   0.465067 0.172298 0.658910 0.000000
N8    N     N_R   0.517962 0.174834 0.674613 0.000000
C31   C     C_R   0.534339 0.175921 0.605994 0.000000
C32   C     C_R   0.587062 0.186777 0.587282 0.000000
S4    S     S_3+2 0.434234 0.201009 0.716344 0.000000
O10   O     O_2   0.436332 0.253640 0.671676 0.000000
O11   O     O_2   0.470386 0.230852 0.786672 0.000000
O12   O     O_3   0.364904 0.168318 0.734915 0.000000
H22   H     H_    0.652181 0.177936 0.449612 0.000000
H23   H     H_    0.684414 0.212774 0.537337 0.000000
H24   H     H_    0.671512 0.253002 0.458825 0.000000
H25   H     H_    0.563106 0.195573 0.400938 0.000000
H26   H     H_    0.469572 0.174563 0.436889 0.000000
H27   H     H_    0.620473 0.192910 0.629739 0.000000
H28   H     H_    0.354535 0.200388 0.733617 0.000000
C33   C     C_3   0.244419 0.277586 0.620593 0.000000
C34   C     C_R   0.238617 0.217880 0.630734 0.000000
C35   C     C_R   0.196860 0.177945 0.673466 0.000000
C36   C     C_R   0.192010 0.122971 0.686924 0.000000
C37   C     C_R   0.227867 0.108503 0.653994 0.000000
N9    N     N_R   0.233330 0.059579 0.665658 0.000000
C38   C     C_R   0.279504 0.072197 0.625442 0.000000
N10   N     N_R   0.302714 0.125491 0.589620 0.000000
C39   C     C_R   0.268764 0.147489 0.609892 0.000000
C40   C     C_R   0.275751 0.203096 0.599865 0.000000
S5    S     S_3+2 0.321058 0.039100 0.650775 0.000000
O13   O     O_2   0.287532 0.975454 0.670752 0.000000
O14   O     O_2   0.296709 0.047409 0.719022 0.000000
O15   O     O_3   0.379614 0.068376 0.711094 0.000000
H29   H     H_    0.204564 0.275545 0.592907 0.000000
H30   H     H_    0.279656 0.304172 0.585761 0.000000
H31   H     H_    0.252951 0.297890 0.675796 0.000000
H32   H     H_    0.169175 0.190598 0.698624 0.000000
H33   H     H_    0.162131 0.093192 0.724113 0.000000
H34   H     H_    0.310770 0.235185 0.572486 0.000000
H35   H     H_    0.364206 0.063492 0.759597 0.000000
C41   C     C_3   0.098616 0.984076 0.439019 0.000000
C42   C     C_R   0.107953 0.939095 0.484673 0.000000
C43   C     C_R   0.090454 0.884294 0.456646 0.000000
C44   C     C_R   0.110921 0.847751 0.491230 0.000000
C45   C     C_R   0.143499 0.865281 0.557294 0.000000
N11   N     N_R   0.171154 0.839587 0.597641 0.000000
C46   C     C_R   0.187628 0.870188 0.662750 0.000000
N12   N     N_R   0.174731 0.916095 0.661475 0.000000
C47   C     C_R   0.149231 0.912626 0.592463 0.000000
C48   C     C_R   0.137271 0.953391 0.554006 0.000000
S6    S     S_3+2 0.216702 0.848354 0.743562 0.000000
O16   O     O_2   0.174404 0.822263 0.802760 0.000000
O17   O     O_2   0.265627 0.899208 0.782776 0.000000
O18   O     O_3   0.243143 0.801236 0.742374 0.000000
H36   H     H_    0.139966 0.018694 0.423427 0.000000
H37   H     H_    0.078945 0.003515 0.472033 0.000000
H38   H     H_    0.071153 0.964984 0.387641 0.000000
H39   H     H_    0.067002 0.872859 0.402801 0.000000
H40   H     H_    0.103225 0.808209 0.465176 0.000000
H41   H     H_    0.151300 0.995889 0.575451 0.000000
H42   H     H_    0.282404 0.823705 0.763712 0.000000
C49   C     C_3   0.543408 0.827378 0.263663 0.000000
C50   C     C_R   0.513071 0.857684 0.289707 0.000000
C51   C     C_R   0.468027 0.857974 0.245090 0.000000
C52   C     C_R   0.440340 0.887514 0.266468 0.000000
C53   C     C_R   0.457957 0.915848 0.333204 0.000000
N13   N     N_R   0.441174 0.952254 0.359778 0.000000
C54   C     C_R   0.481152 0.976871 0.418266 0.000000
N14   N     N_R   0.513357 0.948943 0.438559 0.000000
C55   C     C_R   0.501640 0.914831 0.378560 0.000000
C56   C     C_R   0.530296 0.886163 0.356965 0.000000
S7    S     S_3+2 0.519413 0.051760 0.414085 0.000000
O19   O     O_2   0.482920 0.082349 0.392268 0.000000
O20   O     O_2   0.558026 0.069946 0.349884 0.000000
O21   O     O_3   0.563898 0.083454 0.489778 0.000000
H43   H     H_    0.513753 0.780714 0.257408 0.000000
H44   H     H_    0.579708 0.832948 0.303777 0.000000
H45   H     H_    0.559370 0.845681 0.208991 0.000000
H46   H     H_    0.455559 0.836495 0.192044 0.000000
H47   H     H_    0.408613 0.891068 0.228371 0.000000
H48   H     H_    0.563793 0.883541 0.392392 0.000000
H49   H     H_    0.598251 0.079699 0.482001 0.000000
C57   C     C_3   0.155150 0.899037 0.183109 0.000000
C58   C     C_R   0.213314 0.925115 0.158309 0.000000
C59   C     C_R   0.225343 0.958995 0.094253 0.000000
C60   C     C_R   0.277145 0.977839 0.066024 0.000000
C61   C     C_R   0.314429 0.959315 0.099877 0.000000
N15   N     N_R   0.366997 0.973445 0.080779 0.000000
C62   C     C_R   0.394724 0.975364 0.150814 0.000000
N16   N     N_R   0.358725 0.954840 0.208224 0.000000
C63   C     C_R   0.308264 0.941651 0.171853 0.000000
C64   C     C_R   0.256528 0.918955 0.200421 0.000000
S8    S     S_3+2 0.467813 0.025390 0.169595 0.000000
O22   O     O_2   0.493779 0.057179 0.098391 0.000000
O23   O     O_2   0.506531 0.997734 0.195701 0.000000
O24   O     O_3   0.484455 0.080321 0.230119 0.000000
H50   H     H_    0.146535 0.933477 0.203233 0.000000
H51   H     H_    0.150486 0.866506 0.227863 0.000000
H52   H     H_    0.124304 0.876986 0.135498 0.000000
H53   H     H_    0.193643 0.969016 0.064675 0.000000
H54   H     H_    0.287738 0.006649 0.019233 0.000000
H55   H     H_    0.249440 0.895669 0.252579 0.000000
H56   H     H_    0.491064 0.114518 0.197598 0.000000
C65   C     C_3   0.383422 0.241622 0.216973 0.000000
C66   C     C_R   0.376290 0.185522 0.251782 0.000000
C67   C     C_R   0.371676 0.141773 0.206933 0.000000
C68   C     C_R   0.367972 0.090313 0.237875 0.000000
C69   C     C_R   0.366198 0.082626 0.313634 0.000000
N17   N     N_R   0.365363 0.037303 0.355202 0.000000
C70   C     C_R   0.363735 0.054040 0.425365 0.000000
N18   N     N_R   0.366249 0.108597 0.430769 0.000000
C71   C     C_R   0.367457 0.124700 0.357938 0.000000
C72   C     C_R   0.375074 0.177348 0.328269 0.000000
S9    S     S_3+2 0.376748 0.015560 0.498774 0.000000
O25   O     O_2   0.389364 0.970996 0.465750 0.000000
O26   O     O_2   0.327732 0.974371 0.542477 0.000000
O27   O     O_3   0.435197 0.052708 0.555631 0.000000
H57   H     H_    0.422314 0.261041 0.186806 0.000000
H58   H     H_    0.386917 0.271950 0.260157 0.000000
H59   H     H_    0.346391 0.233969 0.177080 0.000000
H60   H     H_    0.372394 0.148476 0.147355 0.000000
H61   H     H_    0.366965 0.057939 0.202868 0.000000
H62   H     H_    0.381799 0.211817 0.363558 0.000000
H63   H     H_    0.420134 0.063273 0.596170 0.000000
C73   C     C_3   0.311430 0.720972 0.266754 0.000000
C74   C     C_R   0.294605 0.747874 0.323782 0.000000
C75   C     C_R   0.261625 0.713287 0.379158 0.000000
C76   C     C_R   0.242828 0.736578 0.430454 0.000000
C77   C     C_R   0.255578 0.793888 0.422436 0.000000
N19   N     N_R   0.233419 0.822215 0.457187 0.000000
C78   C     C_R   0.259901 0.877688 0.423366 0.000000
N20   N     N_R   0.299814 0.883977 0.375338 0.000000
C79   C     C_R   0.292363 0.829191 0.372487 0.000000
C80   C     C_R   0.310608 0.806688 0.320690 0.000000
S10   S     S_3+2 0.227831 0.925072 0.405658 0.000000
O28   O     O_2   0.169307 0.895152 0.363696 0.000000
O29   O     O_2   0.257864 0.965117 0.341857 0.000000
O30   O     O_3   0.228377 0.974675 0.464244 0.000000
H64   H     H_    0.336585 0.700137 0.294610 0.000000
H65   H     H_    0.337160 0.754273 0.226501 0.000000
H66   H     H_    0.272977 0.687792 0.236443 0.000000
H67   H     H_    0.248801 0.667340 0.380608 0.000000
H68   H     H_    0.216283 0.709578 0.472712 0.000000
H69   H     H_    0.331188 0.832842 0.274523 0.000000
H70   H     H_    0.236202 0.961661 0.514335 0.000000
C81   C     C_3   0.912724 0.588442 0.072203 0.000000
C82   C     C_R   0.867369 0.565091 0.010326 0.000000
C83   C     C_R   0.863419 0.520548 0.967181 0.000000
C84   C     C_R   0.820021 0.496393 0.911751 0.000000
C85   C     C_R   0.780967 0.517235 0.901485 0.000000
N21   N     N_R   0.731524 0.493582 0.859010 0.000000
C86   C     C_R   0.704026 0.523158 0.884108 0.000000
N22   N     N_R   0.738250 0.569686 0.930092 0.000000
C87   C     C_R   0.785146 0.561918 0.942910 0.000000
C88   C     C_R   0.828178 0.586571 0.997804 0.000000
S11   S     S_3+2 0.628930 0.488324 0.890549 0.000000
O31   O     O_2   0.646610 0.512700 0.813089 0.000000
O32   O     O_2   0.654099 0.541027 0.940841 0.000000
O33   O     O_3   0.662152 0.447743 0.923721 0.000000
H71   H     H_    0.938940 0.565275 0.076098 0.000000
H72   H     H_    0.893260 0.582629 0.125525 0.000000
H73   H     H_    0.940177 0.635098 0.062006 0.000000
H74   H     H_    0.893850 0.503786 0.977227 0.000000
H75   H     H_    0.816159 0.460982 0.879184 0.000000
H76   H     H_    0.829046 0.618699 0.033751 0.000000
H77   H     H_    0.638816 0.422861 0.963263 0.000000
C89   C     C_3   0.744195 0.873363 0.992176 0.000000
C90   C     C_R   0.772322 0.852660 0.942552 0.000000
C91   C     C_R   0.809382 0.890704 0.893309 0.000000
C92   C     C_R   0.840247 0.872844 0.854013 0.000000
C93   C     C_R   0.830659 0.816268 0.861574 0.000000
N23   N     N_R   0.863370 0.794579 0.838952 0.000000
C94   C     C_R   0.844977 0.742532 0.880596 0.000000
N24   N     N_R   0.794473 0.726840 0.912530 0.000000
C95   C     C_R   0.791114 0.777359 0.905614 0.000000
C96   C     C_R   0.763957 0.796008 0.949346 0.000000
S12   S     S_3+2 0.895275 0.739827 0.950456 0.000000
O34   O     O_2   0.950604 0.796286 0.960195 0.000000
O35   O     O_2   0.914340 0.692893 0.946045 0.000000
O36   O     O_3   0.868152 0.729878 0.034626 0.000000
H78   H     H_    0.755776 0.919644 0.980449 0.000000
H79   H     H_    0.757669 0.868110 0.051110 0.000000
H80   H     H_    0.697703 0.847452 0.982804 0.000000
H81   H     H_    0.817573 0.935506 0.889566 0.000000
H82   H     H_    0.874517 0.903986 0.824049 0.000000
H83   H     H_    0.743506 0.770207 0.994857 0.000000
H84   H     H_    0.868534 0.767228 0.043964 0.000000
C97   C     C_3   0.739603 0.587773 0.702637 0.000000
C98   C     C_R   0.710790 0.620375 0.722061 0.000000
C99   C     C_R   0.670459 0.623528 0.671624 0.000000
C100  C     C_R   0.631473 0.637602 0.694443 0.000000
C101  C     C_R   0.630987 0.642481 0.769001 0.000000
N25   N     N_R   0.587693 0.638803 0.803538 0.000000
C102  C     C_R   0.604754 0.632607 0.877494 0.000000
N26   N     N_R   0.659979 0.640146 0.888078 0.000000
C103  C     C_R   0.673070 0.643686 0.817751 0.000000
C104  C     C_R   0.716848 0.637607 0.793980 0.000000
S13   S     S_3+2 0.554655 0.597388 0.946451 0.000000
O37   O     O_2   0.496692 0.555638 0.909522 0.000000
O38   O     O_2   0.539295 0.637925 0.986836 0.000000
O39   O     O_3   0.568819 0.556384 0.015421 0.000000
H85   H     H_    0.713247 0.557304 0.658353 0.000000
H86   H     H_    0.744245 0.562208 0.750840 0.000000
H87   H     H_    0.781431 0.618400 0.686063 0.000000
H88   H     H_    0.663841 0.607259 0.616671 0.000000
H89   H     H_    0.598137 0.635458 0.655038 0.000000
H90   H     H_    0.750415 0.637347 0.831109 0.000000
H91   H     H_    0.543857 0.515861 0.000573 0.000000
C105  C     C_3   0.611710 0.762666 0.200240 0.000000
C106  C     C_R   0.639590 0.733108 0.165923 0.000000
C107  C     C_R   0.636942 0.731111 0.089185 0.000000
C108  C     C_R   0.661312 0.702667 0.055821 0.000000
C109  C     C_R   0.691254 0.679628 0.099809 0.000000
N27   N     N_R   0.716171 0.648696 0.077508 0.000000
C110  C     C_R   0.726921 0.625974 0.146341 0.000000
N28   N     N_R   0.715184 0.647022 0.209382 0.000000
C111  C     C_R   0.691892 0.679677 0.176058 0.000000
C112  C     C_R   0.666136 0.706025 0.210052 0.000000
S14   S     S_3+2 0.730085 0.558765 0.150649 0.000000
O40   O     O_2   0.677276 0.515062 0.187136 0.000000
O41   O     O_2   0.777281 0.556683 0.204713 0.000000
O42   O     O_3   0.725888 0.521831 0.073413 0.000000
H92   H     H_    0.630842 0.808768 0.182082 0.000000
H93   H     H_    0.617270 0.760130 0.261810 0.000000
H94   H     H_    0.565988 0.741521 0.181793 0.000000
H95   H     H_    0.614719 0.751013 0.055049 0.000000
H96   H     H_    0.657555 0.700043 0.996282 0.000000
H97   H     H_    0.664397 0.703717 0.269186 0.000000
H98   H     H_    0.690858 0.485029 0.077098 0.000000
C113  C     C_3   0.566846 0.946048 0.073685 0.000000
C114  C     C_R   0.518532 0.911028 0.019980 0.000000
C115  C     C_R   0.522924 0.871296 0.976547 0.000000
C116  C     C_R   0.480714 0.841578 0.921864 0.000000
C117  C     C_R   0.435182 0.851493 0.911343 0.000000
N29   N     N_R   0.390407 0.826603 0.860617 0.000000
C118  C     C_R   0.354925 0.847240 0.885431 0.000000
N30   N     N_R   0.383633 0.895525 0.931969 0.000000
C119  C     C_R   0.430723 0.890633 0.953727 0.000000
C120  C     C_R   0.471133 0.920343 0.009536 0.000000
S15   S     S_3+2 0.295924 0.789659 0.926338 0.000000
O43   O     O_2   0.301071 0.734029 0.918158 0.000000
O44   O     O_2   0.236278 0.772443 0.889538 0.000000
O45   O     O_3   0.292857 0.789628 0.020793 0.000000
H99   H     H_    0.572911 0.917403 0.117626 0.000000
H100  H     H_    0.559051 0.979070 0.099156 0.000000
H101  H     H_    0.605746 0.968344 0.043762 0.000000
H102  H     H_    0.560391 0.864988 0.983933 0.000000
H103  H     H_    0.483440 0.813829 0.884098 0.000000
H104  H     H_    0.466518 0.951054 0.042254 0.000000
H105  H     H_    0.306939 0.761931 0.040862 0.000000
C121  C     C_3   0.525005 0.279556 0.998817 0.000000
C122  C     C_R   0.499674 0.218582 0.973906 0.000000
C123  C     C_R   0.457094 0.176252 0.013105 0.000000
C124  C     C_R   0.436608 0.118373 0.997391 0.000000
C125  C     C_R   0.459798 0.104440 0.942075 0.000000
N31   N     N_R   0.452505 0.051189 0.927505 0.000000
C126  C     C_R   0.497142 0.064888 0.883203 0.000000
N32   N     N_R   0.522225 0.122032 0.857009 0.000000
C127  C     C_R   0.500475 0.146155 0.900784 0.000000
C128  C     C_R   0.520655 0.203893 0.915549 0.000000
S16   S     S_3+2 0.539334 0.027387 0.899959 0.000000
O46   O     O_2   0.477251 0.992564 0.872908 0.000000
O47   O     O_2   0.538206 0.050513 0.975510 0.000000
O48   O     O_3   0.570487 0.087682 0.845762 0.000000
H106  H     H_    0.492935 0.295738 0.990124 0.000000
H107  H     H_    0.562209 0.307156 0.967720 0.000000
H108  H     H_    0.539126 0.281308 0.058951 0.000000
H109  H     H_    0.441525 0.188635 0.058349 0.000000
H110  H     H_    0.405500 0.085264 0.030240 0.000000
H111  H     H_    0.553567 0.236731 0.885008 0.000000
H112  H     H_    0.609271 0.092435 0.843083 0.000000
C129  C     C_3   0.175061 0.795658 0.039764 0.000000
C130  C     C_R   0.188869 0.842066 0.981439 0.000000
C131  C     C_R   0.145132 0.848774 0.941385 0.000000
C132  C     C_R   0.156613 0.892332 0.888097 0.000000
C133  C     C_R   0.211677 0.929919 0.878107 0.000000
N33   N     N_R   0.231629 0.976239 0.831807 0.000000
C134  C     C_R   0.287498 0.005476 0.860270 0.000000
N34   N     N_R   0.304833 0.971157 0.907406 0.000000
C135  C     C_R   0.254776 0.925035 0.919430 0.000000
C136  C     C_R   0.244580 0.879620 0.968808 0.000000
S17   S     S_3+2 0.311918 0.080678 0.881967 0.000000
O49   O     O_2   0.277973 0.105196 0.831294 0.000000
O50   O     O_2   0.372033 0.121576 0.862603 0.000000
O51   O     O_3   0.306958 0.100539 0.968854 0.000000
H113  H     H_    0.145723 0.798546 0.076738 0.000000
H114  H     H_    0.213786 0.800850 0.074049 0.000000
H115  H     H_    0.154448 0.752731 0.012970 0.000000
H116  H     H_    0.101805 0.819133 0.950807 0.000000
H117  H     H_    0.123447 0.895867 0.854496 0.000000
H118  H     H_    0.279217 0.876552 0.000994 0.000000
H119  H     H_    0.276883 0.113011 0.961465 0.000000
C137  C     C_3   0.866921 0.085589 0.604413 0.000000
C138  C     C_R   0.865989 0.029463 0.628991 0.000000
C139  C     C_R   0.908911 0.029482 0.679536 0.000000
C140  C     C_R   0.910034 0.978181 0.702479 0.000000
C141  C     C_R   0.867103 0.927420 0.674351 0.000000
N35   N     N_R   0.860906 0.872953 0.685530 0.000000
C142  C     C_R   0.810913 0.841037 0.643666 0.000000
N36   N     N_R   0.786260 0.872539 0.608347 0.000000
C143  C     C_R   0.823443 0.927201 0.627267 0.000000
C144  C     C_R   0.822625 0.977752 0.601948 0.000000
S18   S     S_3+2 0.786126 0.768326 0.621210 0.000000
O52   O     O_2   0.803468 0.763886 0.544464 0.000000
O53   O     O_2   0.721841 0.736805 0.607539 0.000000
O54   O     O_3   0.804794 0.725580 0.681095 0.000000
H120  H     H_    0.865692 0.108515 0.653573 0.000000
H121  H     H_    0.829941 0.078173 0.564583 0.000000
H122  H     H_    0.906275 0.112642 0.576966 0.000000
H123  H     H_    0.942175 0.070086 0.700590 0.000000
H124  H     H_    0.943570 0.978517 0.741525 0.000000
H125  H     H_    0.789339 0.977192 0.562399 0.000000
H126  H     H_    0.802164 0.737153 0.730818 0.000000
C145  C     C_3   0.665128 0.033146 0.269095 0.000000
C146  C     C_R   0.670859 0.996797 0.333059 0.000000
C147  C     C_R   0.697534 0.962666 0.324866 0.000000
C148  C     C_R   0.703930 0.928668 0.383438 0.000000
C149  C     C_R   0.684874 0.930992 0.450281 0.000000
N37   N     N_R   0.686052 0.901613 0.514313 0.000000
C150  C     C_R   0.654019 0.915243 0.557758 0.000000
N38   N     N_R   0.631120 0.948180 0.521649 0.000000
C151  C     C_R   0.654607 0.960792 0.456256 0.000000
C152  C     C_R   0.647818 0.995070 0.399218 0.000000
S19   S     S_3+2 0.662432 0.916895 0.656507 0.000000
O55   O     O_2   0.652945 0.967289 0.679713 0.000000
O56   O     O_2   0.724017 0.938562 0.687841 0.000000
O57   O     O_3   0.621076 0.859989 0.711286 0.000000
H127  H     H_    0.707742 0.064481 0.253138 0.000000
H128  H     H_    0.642609 0.057195 0.284450 0.000000
H129  H     H_    0.641033 0.005021 0.221179 0.000000
H130  H     H_    0.712906 0.962090 0.271894 0.000000
H131  H     H_    0.720962 0.899619 0.375158 0.000000
H132  H     H_    0.624854 0.019264 0.405877 0.000000
H133  H     H_    0.585978 0.838216 0.679194 0.000000
C153  C     C_3   0.441143 0.660681 0.439417 0.000000
C154  C     C_R   0.493037 0.701945 0.482832 0.000000
C155  C     C_R   0.534507 0.746601 0.445302 0.000000
C156  C     C_R   0.587312 0.778793 0.480600 0.000000
C157  C     C_R   0.597096 0.764155 0.553080 0.000000
N39   N     N_R   0.646881 0.783520 0.593834 0.000000
C158  C     C_R   0.632149 0.755628 0.661278 0.000000
N40   N     N_R   0.575844 0.714924 0.659711 0.000000
C159  C     C_R   0.555466 0.723370 0.591377 0.000000
C160  C     C_R   0.502226 0.693148 0.558475 0.000000
S20   S     S_3+2 0.679416 0.779058 0.744950 0.000000
O58   O     O_2   0.719900 0.843640 0.740581 0.000000
O59   O     O_2   0.722544 0.755527 0.754389 0.000000
O60   O     O_3   0.654622 0.770956 0.830640 0.000000
H134  H     H_    0.433538 0.681080 0.386658 0.000000
H135  H     H_    0.404672 0.645809 0.472907 0.000000
H136  H     H_    0.446574 0.622830 0.425762 0.000000
H137  H     H_    0.527139 0.753029 0.386550 0.000000
H138  H     H_    0.620883 0.809120 0.448710 0.000000
H139  H     H_    0.469635 0.663439 0.591178 0.000000
H140  H     H_    0.670264 0.811100 0.848231 0.000000
C161  C     C_3   0.867219 0.947640 0.306244 0.000000
C162  C     C_R   0.833766 0.886109 0.329744 0.000000
C163  C     C_R   0.833741 0.842370 0.288883 0.000000
C164  C     C_R   0.801119 0.784719 0.307227 0.000000
C165  C     C_R   0.766914 0.772274 0.364354 0.000000
N41   N     N_R   0.726716 0.719595 0.383882 0.000000
C166  C     C_R   0.701101 0.735225 0.436322 0.000000
N42   N     N_R   0.725857 0.793664 0.452732 0.000000
C167  C     C_R   0.766834 0.815490 0.404934 0.000000
C168  C     C_R   0.802475 0.872681 0.391366 0.000000
S21   S     S_3+2 0.631692 0.689757 0.456580 0.000000
O61   O     O_2   0.649556 0.658391 0.404679 0.000000
O62   O     O_2   0.588382 0.685681 0.391800 0.000000
O63   O     O_3   0.606342 0.624509 0.502742 0.000000
H141  H     H_    0.912245 0.957859 0.305144 0.000000
H142  H     H_    0.863785 0.976962 0.345373 0.000000
H143  H     H_    0.850726 0.954466 0.249601 0.000000
H144  H     H_    0.858972 0.853458 0.241735 0.000000
H145  H     H_    0.799974 0.750819 0.274477 0.000000
H146  H     H_    0.803675 0.906198 0.425221 0.000000
H147  H     H_    0.572335 0.621338 0.524022 0.000000
C169  C     C_3   0.433601 0.336723 0.781307 0.000000
C170  C     C_R   0.491729 0.355683 0.758328 0.000000
C171  C     C_R   0.533466 0.356014 0.810607 0.000000
C172  C     C_R   0.588394 0.376373 0.792098 0.000000
C173  C     C_R   0.601667 0.402654 0.723824 0.000000
N43   N     N_R   0.653054 0.431328 0.697337 0.000000
C174  C     C_R   0.639367 0.443152 0.624891 0.000000
N44   N     N_R   0.582865 0.429079 0.609228 0.000000
C175  C     C_R   0.560561 0.401016 0.671945 0.000000
C176  C     C_R   0.504676 0.374228 0.685869 0.000000
S22   S     S_3+2 0.684069 0.456349 0.552505 0.000000
O64   O     O_2   0.684748 0.507272 0.506293 0.000000
O65   O     O_2   0.655460 0.408871 0.494941 0.000000
O66   O     O_3   0.752152 0.466491 0.559707 0.000000
H148  H     H_    0.404584 0.335842 0.732396 0.000000
H149  H     H_    0.435040 0.367422 0.822580 0.000000
H150  H     H_    0.417425 0.293002 0.807395 0.000000
H151  H     H_    0.522744 0.340171 0.866164 0.000000
H152  H     H_    0.619943 0.374459 0.832095 0.000000
H153  H     H_    0.472637 0.372833 0.643463 0.000000
H154  H     H_    0.753144 0.442333 0.520021 0.000000
C177  C     C_3   0.322183 0.368493 0.296744 0.000000
C178  C     C_R   0.339694 0.338359 0.358947 0.000000
C179  C     C_R   0.303516 0.281211 0.375847 0.000000
C180  C     C_R   0.321992 0.250060 0.425911 0.000000
C181  C     C_R   0.374763 0.278801 0.462662 0.000000
N45   N     N_R   0.404132 0.254317 0.501746 0.000000
C182  C     C_R   0.455676 0.302437 0.518079 0.000000
N46   N     N_R   0.458346 0.355571 0.495566 0.000000
C183  C     C_R   0.407507 0.337727 0.454966 0.000000
C184  C     C_R   0.392841 0.366235 0.396628 0.000000
S23   S     S_3+2 0.517718 0.295984 0.519395 0.000000
O67   O     O_2   0.555433 0.304824 0.591976 0.000000
O68   O     O_2   0.545696 0.360514 0.504179 0.000000
O69   O     O_3   0.547514 0.290342 0.442435 0.000000
H155  H     H_    0.314307 0.344717 0.244375 0.000000
H156  H     H_    0.355692 0.413457 0.289792 0.000000
H157  H     H_    0.282852 0.369624 0.309119 0.000000
H158  H     H_    0.262638 0.259619 0.345134 0.000000
H159  H     H_    0.296745 0.203920 0.433358 0.000000
H160  H     H_    0.423766 0.405555 0.373292 0.000000
H161  H     H_    0.588659 0.311516 0.454395 0.000000
C185  C     C_3   0.315151 0.523793 0.498287 0.000000
C186  C     C_R   0.372284 0.526667 0.511060 0.000000
C187  C     C_R   0.387664 0.498069 0.462667 0.000000
C188  C     C_R   0.436507 0.492847 0.479589 0.000000
C189  C     C_R   0.468162 0.515793 0.543370 0.000000
N47   N     N_R   0.505678 0.499828 0.578079 0.000000
C190  C     C_R   0.517294 0.528267 0.645806 0.000000
N48   N     N_R   0.495634 0.567293 0.647893 0.000000
C191  C     C_R   0.459275 0.552451 0.585422 0.000000
C192  C     C_R   0.409261 0.556493 0.571197 0.000000
S24   S     S_3+2 0.522717 0.492886 0.731253 0.000000
O70   O     O_2   0.511970 0.542839 0.751029 0.000000
O71   O     O_2   0.463858 0.454611 0.693593 0.000000
O72   O     O_3   0.568339 0.516300 0.663087 0.000000
H162  H     H_    0.313150 0.549311 0.447595 0.000000
H163  H     H_    0.305466 0.540341 0.547158 0.000000
H164  H     H_    0.283147 0.478012 0.490518 0.000000
H165  H     H_    0.360087 0.477324 0.413974 0.000000
H166  H     H_    0.450617 0.471122 0.445678 0.000000
H167  H     H_    0.397024 0.579505 0.606992 0.000000
H168  H     H_    0.602870 0.516283 0.687988 0.000000
C193  C     C_3   0.721334 0.427754 0.293979 0.000000
C194  C     C_R   0.679069 0.442305 0.322650 0.000000
C195  C     C_R   0.624873 0.398509 0.331535 0.000000
C196  C     C_R   0.586791 0.409611 0.365881 0.000000
C197  C     C_R   0.604321 0.464935 0.389174 0.000000
N49   N     N_R   0.576245 0.485249 0.427169 0.000000
C198  C     C_R   0.599061 0.542052 0.401057 0.000000
N50   N     N_R   0.651329 0.560685 0.371245 0.000000
C199  C     C_R   0.651090 0.509464 0.362220 0.000000
C200  C     C_R   0.692319 0.499306 0.336658 0.000000
S25   S     S_3+2 0.548395 0.556962 0.342783 0.000000
O73   O     O_2   0.507398 0.501596 0.300992 0.000000
O74   O     O_2   0.574613 0.597098 0.276622 0.000000
O75   O     O_3   0.504771 0.580258 0.376347 0.000000
H169  H     H_    0.726114 0.394292 0.330822 0.000000
H170  H     H_    0.762887 0.466630 0.293290 0.000000
H171  H     H_    0.706584 0.410717 0.236776 0.000000
H172  H     H_    0.613224 0.354974 0.314731 0.000000
H173  H     H_    0.544220 0.376398 0.371479 0.000000
H174  H     H_    0.732729 0.534623 0.325959 0.000000
H175  H     H_    0.471227 0.566164 0.339842 0.000000
C201  C     C_3   0.236961 0.524154 0.702233 0.000000
C202  C     C_R   0.298245 0.557131 0.726138 0.000000
C203  C     C_R   0.331116 0.528382 0.734594 0.000000
C204  C     C_R   0.388939 0.559748 0.746591 0.000000
C205  C     C_R   0.411265 0.618508 0.754970 0.000000
N51   N     N_R   0.465742 0.656678 0.758988 0.000000
C206  C     C_R   0.465464 0.706586 0.780122 0.000000
N52   N     N_R   0.411290 0.702911 0.777705 0.000000
C207  C     C_R   0.378775 0.645723 0.760726 0.000000
C208  C     C_R   0.322520 0.616273 0.737744 0.000000
S26   S     S_3+2 0.517475 0.741392 0.854055 0.000000
O76   O     O_2   0.549111 0.705185 0.865861 0.000000
O77   O     O_2   0.493624 0.730447 0.930693 0.000000
O78   O     O_3   0.572353 0.809544 0.852542 0.000000
H176  H     H_    0.231790 0.503325 0.648227 0.000000
H177  H     H_    0.216955 0.553425 0.695627 0.000000
H178  H     H_    0.215929 0.490282 0.744683 0.000000
H179  H     H_    0.312117 0.482238 0.726027 0.000000
H180  H     H_    0.415488 0.538592 0.747687 0.000000
H181  H     H_    0.299382 0.638951 0.721001 0.000000
H182  H     H_    0.591715 0.814455 0.903253 0.000000
C209  C     C_3   0.955176 0.435767 0.580864 0.000000
C210  C     C_R   0.912107 0.447258 0.612944 0.000000
C211  C     C_R   0.874639 0.405761 0.659148 0.000000
C212  C     C_R   0.835571 0.416024 0.692239 0.000000
C213  C     C_R   0.832951 0.467079 0.675114 0.000000
N53   N     N_R   0.801054 0.487193 0.705517 0.000000
C214  C     C_R   0.830803 0.545879 0.688105 0.000000
N54   N     N_R   0.868222 0.559399 0.632587 0.000000
C215  C     C_R   0.871132 0.508924 0.630697 0.000000
C216  C     C_R   0.911275 0.499980 0.599747 0.000000
S27   S     S_3+2 0.863560 0.589664 0.765080 0.000000
O79   O     O_2   0.911990 0.633185 0.722574 0.000000
O80   O     O_2   0.901250 0.571492 0.818545 0.000000
O81   O     O_3   0.846695 0.635887 0.808454 0.000000
H183  H     H_    0.982174 0.428303 0.626667 0.000000
H184  H     H_    0.982027 0.473164 0.546191 0.000000
H185  H     H_    0.933574 0.396718 0.545817 0.000000
H186  H     H_    0.877146 0.365718 0.671224 0.000000
H187  H     H_    0.809236 0.385400 0.732167 0.000000
H188  H     H_    0.943365 0.534316 0.570272 0.000000
H189  H     H_    0.854488 0.668673 0.773265 0.000000
C217  C     C_3   0.944504 0.902064 0.441121 0.000000
C218  C     C_R   0.934745 0.847884 0.482906 0.000000
C219  C     C_R   0.950223 0.809165 0.455444 0.000000
C220  C     C_R   0.949655 0.764055 0.500151 0.000000
C221  C     C_R   0.931064 0.756722 0.569273 0.000000
N55   N     N_R   0.932517 0.718063 0.621040 0.000000
C222  C     C_R   0.931319 0.743788 0.686394 0.000000
N56   N     N_R   0.918103 0.788638 0.672679 0.000000
C223  C     C_R   0.919824 0.796516 0.598292 0.000000
C224  C     C_R   0.918603 0.841261 0.554449 0.000000
S28   S     S_3+2 0.976463 0.751117 0.771491 0.000000
O82   O     O_2   0.965864 0.701171 0.827365 0.000000
O83   O     O_2   0.954382 0.782705 0.816500 0.000000
O84   O     O_3   0.045297 0.801196 0.786980 0.000000
H190  H     H_    0.983935 0.937798 0.464881 0.000000
H191  H     H_    0.910058 0.913045 0.448702 0.000000
H192  H     H_    0.947957 0.897498 0.381440 0.000000
H193  H     H_    0.966181 0.816120 0.401133 0.000000
H194  H     H_    0.969957 0.739530 0.485890 0.000000
H195  H     H_    0.908581 0.872995 0.574756 0.000000
H196  H     H_    0.042849 0.824168 0.826805 0.000000
C225  C     C_3   0.081716 0.601064 0.302772 0.000000
C226  C     C_R   0.059276 0.612383 0.368907 0.000000
C227  C     C_R   0.003208 0.577355 0.382585 0.000000
C228  C     C_R   0.980311 0.588375 0.441490 0.000000
C229  C     C_R   0.015360 0.633223 0.487887 0.000000
N57   N     N_R   0.000503 0.654825 0.543404 0.000000
C230  C     C_R   0.051946 0.699171 0.567744 0.000000
N58   N     N_R   0.096651 0.709951 0.526199 0.000000
C231  C     C_R   0.071411 0.667182 0.475613 0.000000
C232  C     C_R   0.093625 0.658399 0.415003 0.000000
S29   S     S_3+2 0.063096 0.724667 0.657784 0.000000
O85   O     O_2   0.059887 0.781783 0.658900 0.000000
O86   O     O_2   0.124017 0.742380 0.687523 0.000000
O87   O     O_3   0.025079 0.678907 0.725800 0.000000
H197  H     H_    0.077918 0.556691 0.307332 0.000000
H198  H     H_    0.126772 0.632670 0.299506 0.000000
H199  H     H_    0.056918 0.604824 0.251492 0.000000
H200  H     H_    0.976606 0.542470 0.345214 0.000000
H201  H     H_    0.935769 0.563642 0.448869 0.000000
H202  H     H_    0.135347 0.687992 0.401213 0.000000
H203  H     H_    0.052966 0.670585 0.757718 0.000000
C233  C     C_3   0.924820 0.721019 0.172120 0.000000
C234  C     C_R   0.911266 0.697764 0.247769 0.000000
C235  C     C_R   0.954131 0.698388 0.297184 0.000000
C236  C     C_R   0.943713 0.679270 0.368822 0.000000
C237  C     C_R   0.889643 0.656823 0.390253 0.000000
N59   N     N_R   0.872234 0.641191 0.459910 0.000000
C238  C     C_R   0.817334 0.632794 0.447458 0.000000
N60   N     N_R   0.799263 0.641527 0.375554 0.000000
C239  C     C_R   0.846766 0.656920 0.340878 0.000000
C240  C     C_R   0.857002 0.677833 0.269293 0.000000
S30   S     S_3+2 0.780266 0.625697 0.521553 0.000000
O88   O     O_2   0.816038 0.673857 0.575549 0.000000
O89   O     O_2   0.778569 0.574522 0.567694 0.000000
O90   O     O_3   0.714122 0.620307 0.512101 0.000000
H204  H     H_    0.914231 0.757528 0.162517 0.000000
H205  H     H_    0.900036 0.685149 0.133267 0.000000
H206  H     H_    0.970362 0.736928 0.165358 0.000000
H207  H     H_    0.996929 0.716396 0.281238 0.000000
H208  H     H_    0.979357 0.687753 0.406610 0.000000
H209  H     H_    0.824626 0.680457 0.231281 0.000000
H210  H     H_    0.720665 0.659164 0.525487 0.000000
C241  C     C_3   0.722783 0.338278 0.064584 0.000000
C242  C     C_R   0.701576 0.312631 0.989349 0.000000
C243  C     C_R   0.673275 0.252838 0.982733 0.000000
C244  C     C_R   0.651636 0.227688 0.913818 0.000000
C245  C     C_R   0.659454 0.263385 0.852165 0.000000
N61   N     N_R   0.639381 0.247818 0.780839 0.000000
C246  C     C_R   0.664180 0.301828 0.744287 0.000000
N62   N     N_R   0.694128 0.348928 0.791009 0.000000
C247  C     C_R   0.690128 0.322476 0.858324 0.000000
C248  C     C_R   0.710098 0.348082 0.926533 0.000000
S31   S     S_3+2 0.684931 0.310637 0.652151 0.000000
O91   O     O_2   0.731618 0.293332 0.642219 0.000000
O92   O     O_2   0.722001 0.375662 0.651560 0.000000
O93   O     O_3   0.649090 0.307454 0.567972 0.000000
H211  H     H_    0.686727 0.324337 0.099500 0.000000
H212  H     H_    0.744283 0.386202 0.060278 0.000000
H213  H     H_    0.753119 0.323140 0.090976 0.000000
H214  H     H_    0.667342 0.225596 0.032053 0.000000
H215  H     H_    0.629579 0.181427 0.909436 0.000000
H216  H     H_    0.731272 0.394280 0.931151 0.000000
H217  H     H_    0.679464 0.327935 0.534140 0.000000
C249  C     C_3   0.130942 0.036288 0.012662 0.000000
C250  C     C_R   0.095623 0.999125 0.949212 0.000000
C251  C     C_R   0.037999 0.965118 0.955389 0.000000
C252  C     C_R   0.003145 0.931505 0.896782 0.000000
C253  C     C_R   0.027191 0.933508 0.832375 0.000000
N63   N     N_R   0.000650 0.906515 0.768028 0.000000
C254  C     C_R   0.045634 0.927061 0.723019 0.000000
N64   N     N_R   0.098904 0.960636 0.758357 0.000000
C255  C     C_R   0.084514 0.966295 0.826335 0.000000
C256  C     C_R   0.119748 0.999205 0.884435 0.000000
S32   S     S_3+2 0.032488 0.933096 0.626465 0.000000
O94   O     O_2   0.982028 0.926144 0.666587 0.000000
O95   O     O_2   0.039771 0.879114 0.650116 0.000000
O96   O     O_3   0.088355 0.992743 0.665457 0.000000
H218  H     H_    0.116143 0.068677 0.022210 0.000000
H219  H     H_    0.175895 0.059072 0.000361 0.000000
H220  H     H_    0.126761 0.009050 0.063610 0.000000
H221  H     H_    0.020056 0.965358 0.006389 0.000000
H222  H     H_    0.958424 0.905534 0.901355 0.000000
H223  H     H_    0.164357 0.025414 0.878738 0.000000
H224  H     H_    0.081840 0.025450 0.644239 0.000000

loop_
_geom_bond_atom_site_label_1
_geom_bond_atom_site_label_2
_geom_bond_distance
_geom_bond_site_symmetry_2
_ccdc_geom_bond_type
Zn1   N2    2.100 .      S
Zn1   N3    2.227 .      S
Zn1   N29   2.265 .      S
Zn1   N52   2.200 .      S
Zn2   N6    2.196 .      S
Zn2   N8    2.043 .      S
Zn2   N32   2.225 .      S
Zn2   N61   2.194 .      S
Zn3   N1    2.105 .      S
Zn3   N5    2.185 1_565  S
Zn3   N14   2.149 .      S
Zn3   N38   2.044 .      S
Zn4   N9    2.191 1_565  S
Zn4   N12   2.072 .      S
Zn4   N33   2.136 .      S
Zn4   N64   2.205 .      S
Zn5   N7    2.024 .      S
Zn5   N10   2.201 .      S
Zn5   N18   2.195 .      S
Zn5   N45   2.160 .      S
Zn6   N4    2.150 .      S
Zn6   N11   2.052 .      S
Zn6   N19   2.187 .      S
Zn6   N58   2.145 .      S
Zn7   N28   2.232 .      S
Zn7   N41   2.210 .      S
Zn7   N50   2.197 .      S
Zn7   N60   2.150 .      S
Zn8   N13   2.111 .      S
Zn8   N16   2.089 .      S
Zn8   N17   2.171 1_565  S
Zn8   N20   2.167 .      S
Zn9   N22   2.187 .      S
Zn9   N24   2.221 .      S
Zn9   N26   2.072 .      S
Zn9   N27   2.228 1_556  S
Zn10  N15   2.172 1_556  S
Zn10  N30   2.202 .      S
Zn10  N31   2.187 1_565  S
Zn10  N34   2.113 .      S
Zn11  N36   2.043 .      S
Zn11  N37   2.072 .      S
Zn11  N39   2.000 .      S
Zn11  N42   2.166 .      S
Zn12  N44   2.109 .      S
Zn12  N46   2.227 .      S
Zn12  N47   2.181 .      S
Zn12  N49   2.195 .      S
Zn13  N25   2.081 .      S
Zn13  N40   2.061 .      S
Zn13  N48   2.193 .      S
Zn13  N51   2.070 .      S
Zn14  N54   2.254 .      S
Zn14  N55   2.133 .      S
Zn14  N57   2.138 1_655  S
Zn14  N59   2.198 .      S
Zn15  N21   2.180 .      S
Zn15  N43   2.052 .      S
Zn15  N53   2.226 .      S
Zn15  N62   2.172 .      S
Zn16  N23   2.193 .      S
Zn16  N35   2.080 .      S
Zn16  N56   2.027 .      S
Zn16  N63   2.188 1_655  S
C1    C2    1.484 .      S
C1    H1    1.107 .      S
C1    H2    1.107 .      S
C1    H3    1.105 .      S
C3    H4    1.079 .      S
C4    H5    1.047 .      S
C6    S1    1.775 .      S
C8    H6    1.063 .      S
S1    O3    1.692 .      S
O3    H7    0.988 .      S
C9    C10   1.489 .      S
C9    H8    1.109 .      S
C9    H9    1.109 .      S
C9    H10   1.109 .      S
C11   H11   1.081 .      S
C12   H12   1.076 .      S
C14   S2    1.687 .      S
C16   H13   1.075 .      S
S2    O6    1.711 .      S
O6    H14   0.983 .      S
C17   C18   1.476 .      S
C17   H15   1.102 .      S
C17   H16   1.096 .      S
C17   H17   1.087 .      S
C19   H18   1.044 .      S
C20   H19   1.065 .      S
N5    Zn3   2.185 1_545  S
C22   S3    1.789 .      S
C24   H20   1.054 .      S
S3    O9    1.716 .      S
O9    H21   0.990 .      S
C25   C26   1.495 .      S
C25   H22   1.107 .      S
C25   H23   1.106 .      S
C25   H24   1.108 .      S
C27   H25   1.081 .      S
C28   H26   1.072 .      S
C30   S4    1.771 .      S
C32   H27   1.075 .      S
S4    O12   1.706 .      S
O12   H28   0.990 .      S
C33   C34   1.489 .      S
C33   H29   1.109 .      S
C33   H30   1.109 .      S
C33   H31   1.109 .      S
C35   H32   1.081 .      S
C36   H33   1.080 .      S
N9    Zn4   2.191 1_545  S
C38   S5    1.705 .      S
C40   H34   1.069 .      S
S5    O15   1.696 .      S
O15   H35   0.981 .      S
C41   C42   1.489 .      S
C41   H36   1.109 1_565  S
C41   H37   1.108 1_565  S
C41   H38   1.109 .      S
C43   H39   1.080 .      S
C44   H40   1.079 .      S
C46   S6    1.769 .      S
C48   H41   1.074 .      S
S6    O18   1.672 .      S
O18   H42   0.987 .      S
H36   C41   1.109 1_545  S
H37   C41   1.108 1_545  S
C49   C50   1.484 .      S
C49   H43   1.109 .      S
C49   H44   1.108 .      S
C49   H45   1.106 .      S
C51   H46   1.081 .      S
C52   H47   1.071 .      S
C54   S7    1.736 1_565  S
C56   H48   1.072 .      S
S7    C54   1.736 1_545  S
S7    O21   1.694 .      S
O21   H49   0.990 .      S
C57   C58   1.487 .      S
C57   H50   1.109 .      S
C57   H51   1.107 .      S
C57   H52   1.109 .      S
C59   H53   1.079 .      S
C60   H54   1.064 1_565  S
N15   Zn10  2.172 1_554  S
C62   S8    1.792 1_565  S
C64   H55   1.073 .      S
S8    C62   1.792 1_545  S
S8    O24   1.714 .      S
O24   H56   0.990 .      S
H54   C60   1.064 1_545  S
C65   C66   1.489 .      S
C65   H57   1.109 .      S
C65   H58   1.108 .      S
C65   H59   1.109 .      S
C67   H60   1.079 .      S
C68   H61   1.071 .      S
N17   Zn8   2.171 1_545  S
C70   S9    1.716 .      S
C72   H62   1.067 .      S
S9    O27   1.685 .      S
O27   H63   0.978 .      S
C73   C74   1.489 .      S
C73   H64   1.109 .      S
C73   H65   1.109 .      S
C73   H66   1.109 .      S
C75   H67   1.080 .      S
C76   H68   1.079 .      S
C78   S10   1.793 .      S
C80   H69   1.068 .      S
S10   O30   1.709 .      S
O30   H70   0.983 .      S
C81   C82   1.490 .      S
C81   H71   1.108 .      S
C81   H72   1.109 .      S
C81   H73   1.108 .      S
C83   H74   1.081 .      S
C84   H75   1.081 .      S
C86   S11   1.796 .      S
C88   H76   1.078 1_556  S
S11   O33   1.712 .      S
O33   H77   0.990 .      S
H76   C88   1.078 1_554  S
C89   C90   1.489 .      S
C89   H78   1.109 .      S
C89   H79   1.109 1_556  S
C89   H80   1.109 .      S
C91   H81   1.081 .      S
C92   H82   1.074 .      S
C94   S12   1.771 .      S
C96   H83   1.054 .      S
S12   O36   1.703 1_556  S
O36   S12   1.703 1_554  S
O36   H84   0.990 .      S
H79   C89   1.109 1_554  S
C97   C98   1.456 .      S
C97   H85   1.102 .      S
C97   H86   1.095 .      S
C97   H87   1.093 .      S
C99   H88   1.068 .      S
C100  H89   1.065 .      S
C102  S13   1.803 .      S
C104  H90   1.066 .      S
S13   O39   1.716 1_556  S
O39   S13   1.716 1_554  S
O39   H91   0.990 .      S
C105  C106  1.484 .      S
C105  H92   1.109 .      S
C105  H93   1.108 .      S
C105  H94   1.109 .      S
C107  H95   1.081 .      S
C108  H96   1.072 1_554  S
N27   Zn9   2.228 1_554  S
C110  S14   1.784 .      S
C112  H97   1.070 .      S
S14   O42   1.705 .      S
O42   H98   0.990 .      S
H96   C108  1.072 1_556  S
C113  C114  1.487 .      S
C113  H99   1.106 .      S
C113  H100  1.105 .      S
C113  H101  1.109 .      S
C115  H102  1.080 .      S
C116  H103  1.052 .      S
C118  S15   1.791 .      S
C120  H104  1.078 .      S
S15   O45   1.715 1_556  S
O45   S15   1.715 1_554  S
O45   H105  0.990 .      S
C121  C122  1.488 .      S
C121  H106  1.109 .      S
C121  H107  1.108 .      S
C121  H108  1.109 1_556  S
C123  H109  1.079 .      S
C124  H110  1.079 1_556  S
N31   Zn10  2.187 1_545  S
C126  S16   1.792 .      S
C128  H111  1.076 .      S
S16   O48   1.700 .      S
O48   H112  0.991 .      S
H108  C121  1.109 1_554  S
H110  C124  1.079 1_554  S
C129  C130  1.489 1_554  S
C129  H113  1.109 .      S
C129  H114  1.106 .      S
C129  H115  1.109 .      S
C130  C129  1.489 1_556  S
C131  H116  1.081 .      S
C132  H117  1.059 .      S
C134  S17   1.809 .      S
C136  H118  1.074 1_556  S
S17   O51   1.716 .      S
O51   H119  0.990 .      S
H118  C136  1.074 1_554  S
C137  C138  1.489 .      S
C137  H120  1.109 .      S
C137  H121  1.109 .      S
C137  H122  1.109 .      S
C139  H123  1.081 .      S
C140  H124  1.080 .      S
C142  S18   1.751 .      S
C144  H125  1.078 .      S
S18   O54   1.705 .      S
O54   H126  0.982 .      S
C145  C146  1.488 1_545  S
C145  H127  1.109 .      S
C145  H128  1.108 .      S
C145  H129  1.109 .      S
C146  C145  1.488 1_565  S
C147  H130  1.081 .      S
C148  H131  1.068 .      S
C150  S19   1.774 .      S
C152  H132  1.078 1_565  S
S19   O57   1.712 .      S
O57   H133  0.989 .      S
H132  C152  1.078 1_545  S
C153  C154  1.485 .      S
C153  H134  1.108 .      S
C153  H135  1.099 .      S
C153  H136  1.103 .      S
C155  H137  1.076 .      S
C156  H138  1.076 .      S
C158  S20   1.808 .      S
C160  H139  1.065 .      S
S20   O60   1.707 .      S
O60   H140  0.989 .      S
C161  C162  1.490 .      S
C161  H141  1.108 .      S
C161  H142  1.109 .      S
C161  H143  1.109 .      S
C163  H144  1.081 .      S
C164  H145  1.077 .      S
C166  S21   1.745 .      S
C168  H146  1.080 .      S
S21   O63   1.709 .      S
O63   H147  0.988 .      S
C169  C170  1.493 .      S
C169  H148  1.109 .      S
C169  H149  1.109 .      S
C169  H150  1.107 .      S
C171  H151  1.076 .      S
C172  H152  1.070 .      S
C174  S22   1.770 .      S
C176  H153  1.078 .      S
S22   O66   1.706 .      S
O66   H154  0.990 .      S
C177  C178  1.489 .      S
C177  H155  1.109 .      S
C177  H156  1.109 .      S
C177  H157  1.109 .      S
C179  H158  1.081 .      S
C180  H159  1.081 .      S
C182  S23   1.738 .      S
C184  H160  1.072 .      S
S23   O69   1.713 .      S
O69   H161  0.985 .      S
C185  C186  1.488 .      S
C185  H162  1.109 .      S
C185  H163  1.106 .      S
C185  H164  1.109 .      S
C187  H165  1.081 .      S
C188  H166  1.057 .      S
C190  S24   1.775 .      S
C192  H167  1.072 .      S
S24   O72   1.703 .      S
O72   H168  0.985 .      S
C193  C194  1.489 .      S
C193  H169  1.109 .      S
C193  H170  1.108 .      S
C193  H171  1.109 .      S
C195  H172  1.081 .      S
C196  H173  1.078 .      S
C198  S25   1.798 .      S
C200  H174  1.076 .      S
S25   O75   1.709 .      S
O75   H175  0.990 .      S
C201  C202  1.489 .      S
C201  H176  1.109 .      S
C201  H177  1.108 .      S
C201  H178  1.109 .      S
C203  H179  1.081 .      S
C204  H180  1.076 .      S
C206  S26   1.775 .      S
C208  H181  1.046 .      S
S26   O78   1.706 .      S
O78   H182  0.990 .      S
C209  C210  1.489 .      S
C209  H183  1.109 .      S
C209  H184  1.109 .      S
C209  H185  1.109 .      S
C211  H186  1.081 .      S
C212  H187  1.080 .      S
C214  S27   1.739 .      S
C216  H188  1.071 .      S
S27   O81   1.714 .      S
O81   H189  0.986 .      S
C217  C218  1.482 .      S
C217  H190  1.103 .      S
C217  H191  1.103 .      S
C217  H192  1.108 .      S
C219  H193  1.080 .      S
C220  H194  1.063 .      S
C222  S28   1.817 .      S
C224  H195  1.070 .      S
S28   O84   1.703 1_655  S
O84   S28   1.703 1_455  S
O84   H196  0.987 .      S
C225  C226  1.489 .      S
C225  H197  1.109 .      S
C225  H198  1.109 .      S
C225  H199  1.109 .      S
C227  H200  1.081 1_455  S
C228  H201  1.080 .      S
N57   Zn14  2.138 1_455  S
C230  S29   1.737 .      S
C232  H202  1.069 .      S
S29   O87   1.709 .      S
O87   H203  0.990 .      S
H200  C227  1.081 1_655  S
C233  C234  1.470 .      S
C233  H204  1.107 .      S
C233  H205  1.104 .      S
C233  H206  1.108 .      S
C235  H207  1.081 .      S
C236  H208  1.056 .      S
C238  S30   1.694 .      S
C240  H209  1.073 .      S
S30   O90   1.698 .      S
O90   H210  0.984 .      S
C241  C242  1.489 1_554  S
C241  H211  1.109 .      S
C241  H212  1.109 .      S
C241  H213  1.109 .      S
C242  C241  1.489 1_556  S
C243  H214  1.081 1_556  S
C244  H215  1.073 .      S
C246  S31   1.774 .      S
C248  H216  1.072 .      S
S31   O93   1.698 .      S
O93   H217  0.989 .      S
H214  C243  1.081 1_554  S
C249  C250  1.488 1_544  S
C249  H218  1.109 .      S
C249  H219  1.108 .      S
C249  H220  1.109 .      S
C250  C249  1.488 1_566  S
C251  H221  1.081 1_556  S
C252  H222  1.079 1_455  S
N63   Zn16  2.188 1_455  S
C254  S32   1.755 .      S
C256  H223  1.080 1_565  S
S32   O96   1.710 .      S
O96   H224  0.991 1_565  S
H221  C251  1.081 1_554  S
H222  C252  1.079 1_655  S
H223  C256  1.080 1_545  S
H224  O96   0.991 1_545  S
C2    C3    1.385 .      A
C2    C8    1.369 .      A
C3    C4    1.383 .      A
C4    C5    1.359 .      A
C5    N1    1.348 .      A
C5    C7    1.352 .      A
N1    C6    1.373 .      A
C6    N2    1.396 .      A
N2    C7    1.338 .      A
C7    C8    1.365 .      A
C10   C11   1.388 .      A
C10   C16   1.385 .      A
C11   C12   1.383 .      A
C12   C13   1.378 .      A
C13   N3    1.362 .      A
C13   C15   1.378 .      A
N3    C14   1.388 .      A
C14   N4    1.374 .      A
N4    C15   1.352 .      A
C15   C16   1.375 .      A
C18   C19   1.360 .      A
C18   C24   1.363 1_565  A
C19   C20   1.347 .      A
C20   C21   1.344 1_565  A
C21   C20   1.344 1_545  A
C21   N5    1.324 .      A
C21   C23   1.355 .      A
N5    C22   1.411 .      A
C22   N6    1.410 .      A
N6    C23   1.336 .      A
C23   C24   1.361 .      A
C24   C18   1.363 1_545  A
C26   C27   1.381 .      A
C26   C32   1.388 .      A
C27   C28   1.385 .      A
C28   C29   1.370 .      A
C29   N7    1.347 .      A
C29   C31   1.352 .      A
N7    C30   1.368 .      A
C30   N8    1.384 .      A
N8    C31   1.348 .      A
C31   C32   1.377 .      A
C34   C35   1.390 .      A
C34   C40   1.388 .      A
C35   C36   1.383 .      A
C36   C37   1.372 .      A
C37   N9    1.347 .      A
C37   C39   1.384 .      A
N9    C38   1.391 .      A
C38   N10   1.381 .      A
N10   C39   1.360 .      A
C39   C40   1.373 .      A
C42   C43   1.390 .      A
C42   C48   1.382 .      A
C43   C44   1.388 .      A
C44   C45   1.371 .      A
C45   N11   1.344 .      A
C45   C47   1.357 .      A
N11   C46   1.376 .      A
C46   N12   1.383 .      A
N12   C47   1.345 .      A
C47   C48   1.372 .      A
C50   C51   1.382 .      A
C50   C56   1.384 .      A
C51   C52   1.377 .      A
C52   C53   1.374 .      A
C53   N13   1.346 .      A
C53   C55   1.366 .      A
N13   C54   1.376 .      A
C54   N14   1.370 .      A
N14   C55   1.360 .      A
C55   C56   1.382 .      A
C58   C59   1.381 .      A
C58   C64   1.383 .      A
C59   C60   1.380 .      A
C60   C61   1.370 .      A
C61   N15   1.354 .      A
C61   C63   1.352 .      A
N15   C62   1.391 .      A
C62   N16   1.395 .      A
N16   C63   1.338 .      A
C63   C64   1.372 .      A
C66   C67   1.387 .      A
C66   C72   1.385 .      A
C67   C68   1.382 .      A
C68   C69   1.372 .      A
C69   N17   1.351 .      A
C69   C71   1.379 .      A
N17   C70   1.374 .      A
C70   N18   1.397 .      A
N18   C71   1.354 .      A
C71   C72   1.371 .      A
C74   C75   1.388 .      A
C74   C80   1.385 .      A
C75   C76   1.383 .      A
C76   C77   1.369 .      A
C77   N19   1.347 .      A
C77   C79   1.368 .      A
N19   C78   1.414 .      A
C78   N20   1.387 .      A
N20   C79   1.348 .      A
C79   C80   1.368 .      A
C82   C83   1.392 1_554  A
C82   C88   1.389 1_554  A
C83   C82   1.392 1_556  A
C83   C84   1.383 .      A
C84   C85   1.372 .      A
C85   N21   1.349 .      A
C85   C87   1.374 .      A
N21   C86   1.400 .      A
C86   N22   1.393 .      A
N22   C87   1.353 .      A
C87   C88   1.373 .      A
C88   C82   1.389 1_556  A
C90   C91   1.386 .      A
C90   C96   1.384 .      A
C91   C92   1.380 .      A
C92   C93   1.373 .      A
C93   N23   1.341 .      A
C93   C95   1.365 .      A
N23   C94   1.407 .      A
C94   N24   1.393 .      A
N24   C95   1.354 .      A
C95   C96   1.366 .      A
C98   C99   1.368 .      A
C98   C104  1.368 .      A
C99   C100  1.356 .      A
C100  C101  1.361 .      A
C101  N25   1.331 .      A
C101  C103  1.346 .      A
N25   C102  1.391 .      A
C102  N26   1.390 .      A
N26   C103  1.337 .      A
C103  C104  1.361 .      A
C106  C107  1.382 .      A
C106  C112  1.382 .      A
C107  C108  1.380 .      A
C108  C109  1.372 .      A
C109  N27   1.354 .      A
C109  C111  1.374 .      A
N27   C110  1.404 .      A
C110  N28   1.412 .      A
N28   C111  1.348 .      A
C111  C112  1.373 .      A
C114  C115  1.386 1_554  A
C114  C120  1.387 .      A
C115  C114  1.386 1_556  A
C115  C116  1.383 .      A
C116  C117  1.347 .      A
C117  N29   1.352 .      A
C117  C119  1.362 .      A
N29   C118  1.402 .      A
C118  N30   1.408 .      A
N30   C119  1.339 .      A
C119  C120  1.374 1_556  A
C120  C119  1.374 1_554  A
C122  C123  1.388 1_556  A
C122  C128  1.390 .      A
C123  C122  1.388 1_554  A
C123  C124  1.381 1_554  A
C124  C123  1.381 1_556  A
C124  C125  1.372 .      A
C125  N31   1.345 .      A
C125  C127  1.377 .      A
N31   C126  1.398 .      A
C126  N32   1.395 .      A
N32   C127  1.356 .      A
C127  C128  1.375 .      A
C130  C131  1.385 .      A
C130  C136  1.389 .      A
C131  C132  1.382 .      A
C132  C133  1.366 .      A
C133  N33   1.346 .      A
C133  C135  1.359 .      A
N33   C134  1.386 1_565  A
C134  N33   1.386 1_545  A
C134  N34   1.393 1_545  A
N34   C134  1.393 1_565  A
N34   C135  1.353 .      A
C135  C136  1.375 .      A
C138  C139  1.391 .      A
C138  C144  1.387 1_545  A
C139  C140  1.385 1_545  A
C140  C139  1.385 1_565  A
C140  C141  1.375 .      A
C141  N35   1.353 .      A
C141  C143  1.370 .      A
N35   C142  1.378 .      A
C142  N36   1.363 .      A
N36   C143  1.349 .      A
C143  C144  1.374 .      A
C144  C138  1.387 1_565  A
C146  C147  1.390 .      A
C146  C152  1.386 .      A
C147  C148  1.385 .      A
C148  C149  1.370 .      A
C149  N37   1.352 .      A
C149  C151  1.366 .      A
N37   C150  1.385 .      A
C150  N38   1.365 .      A
N38   C151  1.344 .      A
C151  C152  1.374 .      A
C154  C155  1.382 .      A
C154  C160  1.387 .      A
C155  C156  1.377 .      A
C156  C157  1.374 .      A
C157  N39   1.341 .      A
C157  C159  1.351 .      A
N39   C158  1.375 .      A
C158  N40   1.385 .      A
N40   C159  1.344 .      A
C159  C160  1.362 .      A
C162  C163  1.391 .      A
C162  C168  1.389 .      A
C163  C164  1.384 .      A
C164  C165  1.371 .      A
C165  N41   1.350 .      A
C165  C167  1.378 .      A
N41   C166  1.399 .      A
C166  N42   1.388 .      A
N42   C167  1.351 .      A
C167  C168  1.372 .      A
C170  C171  1.383 .      A
C170  C176  1.387 .      A
C171  C172  1.382 .      A
C172  C173  1.369 .      A
C173  N43   1.349 .      A
C173  C175  1.356 .      A
N43   C174  1.377 .      A
C174  N44   1.383 .      A
N44   C175  1.344 .      A
C175  C176  1.370 .      A
C178  C179  1.387 .      A
C178  C184  1.388 .      A
C179  C180  1.380 .      A
C180  C181  1.375 .      A
C181  N45   1.345 .      A
C181  C183  1.379 .      A
N45   C182  1.390 .      A
C182  N46   1.387 .      A
N46   C183  1.364 .      A
C183  C184  1.379 .      A
C186  C187  1.383 .      A
C186  C192  1.392 .      A
C187  C188  1.375 .      A
C188  C189  1.349 .      A
C189  N47   1.339 .      A
C189  C191  1.367 .      A
N47   C190  1.399 .      A
C190  N48   1.382 .      A
N48   C191  1.361 .      A
C191  C192  1.385 .      A
C194  C195  1.390 .      A
C194  C200  1.389 .      A
C195  C196  1.385 .      A
C196  C197  1.371 .      A
C197  N49   1.349 .      A
C197  C199  1.366 .      A
N49   C198  1.387 .      A
C198  N50   1.404 .      A
N50   C199  1.348 .      A
C199  C200  1.370 .      A
C202  C203  1.383 .      A
C202  C208  1.387 .      A
C203  C204  1.377 .      A
C204  C205  1.373 .      A
C205  N51   1.331 .      A
C205  C207  1.361 .      A
N51   C206  1.377 .      A
C206  N52   1.402 .      A
N52   C207  1.370 .      A
C207  C208  1.369 .      A
C210  C211  1.389 .      A
C210  C216  1.386 .      A
C211  C212  1.384 .      A
C212  C213  1.376 .      A
C213  N53   1.355 .      A
C213  C215  1.381 .      A
N53   C214  1.392 .      A
C214  N54   1.401 .      A
N54   C215  1.352 .      A
C215  C216  1.371 .      A
C218  C219  1.382 .      A
C218  C224  1.378 .      A
C219  C220  1.378 .      A
C220  C221  1.359 .      A
C221  N55   1.341 .      A
C221  C223  1.347 .      A
N55   C222  1.400 .      A
C222  N56   1.367 .      A
N56   C223  1.348 .      A
C223  C224  1.378 .      A
C226  C227  1.389 .      A
C226  C232  1.387 .      A
C227  C228  1.383 1_455  A
C228  C227  1.383 1_655  A
C228  C229  1.377 1_655  A
C229  C228  1.377 1_455  A
C229  N57   1.352 .      A
C229  C231  1.379 .      A
N57   C230  1.378 .      A
C230  N58   1.383 .      A
N58   C231  1.355 .      A
C231  C232  1.373 .      A
C234  C235  1.373 .      A
C234  C240  1.386 .      A
C235  C236  1.365 .      A
C236  C237  1.374 .      A
C237  N59   1.358 .      A
C237  C239  1.379 .      A
N59   C238  1.376 .      A
C238  N60   1.381 .      A
N60   C239  1.351 .      A
C239  C240  1.375 .      A
C242  C243  1.389 .      A
C242  C248  1.386 .      A
C243  C244  1.384 .      A
C244  C245  1.374 .      A
C245  N61   1.354 .      A
C245  C247  1.375 .      A
N61   C246  1.403 .      A
C246  N62   1.393 .      A
N62   C247  1.348 .      A
C247  C248  1.372 .      A
C250  C251  1.392 .      A
C250  C256  1.390 .      A
C251  C252  1.384 .      A
C252  C253  1.370 .      A
C253  N63   1.349 .      A
C253  C255  1.382 .      A
N63   C254  1.394 .      A
C254  N64   1.393 .      A
N64   C255  1.357 .      A
C255  C256  1.374 .      A
S1    O1    1.515 .      D
S1    O2    1.524 .      D
S2    O4    1.527 .      D
S2    O5    1.532 .      D
S3    O7    1.536 .      D
S3    O8    1.535 .      D
S4    O10   1.527 .      D
S4    O11   1.527 .      D
S5    O13   1.518 1_545  D
S5    O14   1.519 .      D
O13   S5    1.518 1_565  D
S6    O16   1.527 .      D
S6    O17   1.516 .      D
S7    O19   1.527 .      D
S7    O20   1.535 .      D
S8    O22   1.530 .      D
S8    O23   1.533 1_545  D
O23   S8    1.533 1_565  D
S9    O25   1.513 1_545  D
S9    O26   1.518 1_545  D
O25   S9    1.513 1_565  D
O26   S9    1.518 1_565  D
S10   O28   1.530 .      D
S10   O29   1.526 .      D
S11   O31   1.527 .      D
S11   O32   1.528 .      D
S12   O34   1.536 .      D
S12   O35   1.530 .      D
S13   O37   1.536 .      D
S13   O38   1.535 .      D
S14   O40   1.530 .      D
S14   O41   1.534 .      D
S15   O43   1.530 .      D
S15   O44   1.533 .      D
S16   O46   1.524 1_545  D
S16   O47   1.531 .      D
O46   S16   1.524 1_565  D
S17   O49   1.535 .      D
S17   O50   1.528 .      D
S18   O52   1.531 .      D
S18   O53   1.526 .      D
S19   O55   1.531 .      D
S19   O56   1.531 .      D
S20   O58   1.527 .      D
S20   O59   1.524 .      D
S21   O61   1.519 .      D
S21   O62   1.532 .      D
S22   O64   1.515 .      D
S22   O65   1.522 .      D
S23   O67   1.530 .      D
S23   O68   1.511 .      D
S24   O70   1.521 .      D
S24   O71   1.535 .      D
S25   O73   1.536 .      D
S25   O74   1.534 .      D
S26   O76   1.521 .      D
S26   O77   1.537 .      D
S27   O79   1.515 .      D
S27   O80   1.534 .      D
S28   O82   1.532 .      D
S28   O83   1.517 .      D
S29   O85   1.527 .      D
S29   O86   1.522 .      D
S30   O88   1.514 .      D
S30   O89   1.511 .      D
S31   O91   1.535 .      D
S31   O92   1.518 .      D
S32   O94   1.526 1_455  D
S32   O95   1.533 .      D
O94   S32   1.526 1_655  D
