data_str_m1_o12004_ISV
_audit_creation_date              2015-10-01T06:30:27-0700
_symmetry_space_group_name_H-M    P1
_symmetry_Int_Tables_number       1
_space_group_crystal_system       triclinic
loop_
_symmetry_equiv_pos_as_xyz
  x,y,z
_cell_length_a                    26.4377562
_cell_length_b                    26.5091033
_cell_length_c                    53.9037905
_cell_angle_alpha                 86.9702069
_cell_angle_beta                  91.4579970
_cell_angle_gamma                 88.0992928
_cell_volume                      37690.4334488

loop_
_atom_site_label
_atom_site_type_symbol
_atom_site_description
_atom_site_fract_x
_atom_site_fract_y
_atom_site_fract_z
_atom_type_partial_charge
Zn1   Zn    Zn3+2 0.232858 0.496152 0.377206 0.000000
Zn2   Zn    Zn3+2 0.365478 0.954069 0.031882 0.000000
Zn3   Zn    Zn3+2 0.994519 0.495842 0.375431 0.000000
Zn4   Zn    Zn3+2 0.249242 0.734016 0.497104 0.000000
Zn5   Zn    Zn3+2 0.228991 0.142018 0.994075 0.000000
Zn6   Zn    Zn3+2 0.421151 0.867636 0.348179 0.000000
Zn7   Zn    Zn3+2 0.739197 0.988565 0.245145 0.000000
Zn8   Zn    Zn3+2 0.498585 0.007943 0.131788 0.000000
Zn9   Zn    Zn3+2 0.499624 0.254821 0.240692 0.000000
Zn10  Zn    Zn3+2 0.497118 0.007098 0.250244 0.000000
Zn11  Zn    Zn3+2 0.612713 0.733190 0.377616 0.000000
Zn12  Zn    Zn3+2 0.240018 0.760155 0.995520 0.000000
Zn13  Zn    Zn3+2 0.742889 0.981494 0.129676 0.000000
Zn14  Zn    Zn3+2 0.221732 0.142963 0.871621 0.000000
Zn15  Zn    Zn3+2 0.486540 0.264871 0.935859 0.000000
Zn16  Zn    Zn3+2 0.229992 0.522105 0.872949 0.000000
Zn17  Zn    Zn3+2 0.998061 0.119913 0.002706 0.000000
Zn18  Zn    Zn3+2 0.437122 0.350014 0.526655 0.000000
Zn19  Zn    Zn3+2 0.741269 0.232296 0.430224 0.000000
Zn20  Zn    Zn3+2 0.609375 0.497366 0.496728 0.000000
Zn21  Zn    Zn3+2 0.999670 0.494370 0.494383 0.000000
Zn22  Zn    Zn3+2 0.746090 0.224682 0.126924 0.000000
Zn23  Zn    Zn3+2 0.997927 0.734806 0.379653 0.000000
Zn24  Zn    Zn3+2 0.361741 0.321247 0.031757 0.000000
Zn25  Zn    Zn3+2 0.233562 0.524214 0.993759 0.000000
Zn26  Zn    Zn3+2 0.854374 0.308476 0.028830 0.000000
Zn27  Zn    Zn3+2 0.987139 0.505524 0.996553 0.000000
Zn28  Zn    Zn3+2 0.799897 0.370246 0.340343 0.000000
Zn29  Zn    Zn3+2 0.601925 0.502883 0.374186 0.000000
Zn30  Zn    Zn3+2 0.743105 0.234647 0.741329 0.000000
Zn31  Zn    Zn3+2 0.743681 0.221788 0.623109 0.000000
Zn32  Zn    Zn3+2 0.738092 0.990799 0.749866 0.000000
Zn33  Zn    Zn3+2 0.859946 0.315301 0.840071 0.000000
Zn34  Zn    Zn3+2 0.488063 0.233450 0.746351 0.000000
Zn35  Zn    Zn3+2 0.859675 0.939567 0.849126 0.000000
Zn36  Zn    Zn3+2 0.738420 0.975625 0.630026 0.000000
Zn37  Zn    Zn3+2 0.494485 0.225655 0.629975 0.000000
Zn38  Zn    Zn3+2 0.495942 0.993406 0.752859 0.000000
Zn39  Zn    Zn3+2 0.499831 0.986639 0.445617 0.000000
Zn40  Zn    Zn3+2 0.245865 0.490118 0.493356 0.000000
Zn41  Zn    Zn3+2 0.491676 0.220529 0.426424 0.000000
Zn42  Zn    Zn3+2 0.230610 0.738540 0.378704 0.000000
Zn43  Zn    Zn3+2 0.501965 0.249459 0.126030 0.000000
Zn44  Zn    Zn3+2 0.354806 0.321352 0.836671 0.000000
Zn45  Zn    Zn3+2 0.811184 0.361693 0.525564 0.000000
Zn46  Zn    Zn3+2 0.717900 0.267945 0.930877 0.000000
Zn47  Zn    Zn3+2 0.989893 0.118029 0.880738 0.000000
Zn48  Zn    Zn3+2 0.812135 0.857411 0.535270 0.000000
Zn49  Zn    Zn3+2 0.983391 0.514013 0.875547 0.000000
Zn50  Zn    Zn3+2 0.991391 0.736921 0.880249 0.000000
Zn51  Zn    Zn3+2 0.495959 0.983670 0.635993 0.000000
Zn52  Zn    Zn3+2 0.367082 0.953783 0.847291 0.000000
Zn53  Zn    Zn3+2 0.731750 0.020200 0.939696 0.000000
Zn54  Zn    Zn3+2 0.625341 0.731779 0.499644 0.000000
Zn55  Zn    Zn3+2 0.006856 0.733219 0.499633 0.000000
Zn56  Zn    Zn3+2 0.498098 0.021051 0.939389 0.000000
Zn57  Zn    Zn3+2 0.873202 0.934494 0.033507 0.000000
Zn58  Zn    Zn3+2 0.997163 0.736324 0.998534 0.000000
Zn59  Zn    Zn3+2 0.232254 0.758994 0.877289 0.000000
Zn60  Zn    Zn3+2 0.435769 0.853749 0.543423 0.000000
Zn61  Zn    Zn3+2 0.418314 0.373750 0.335825 0.000000
Zn62  Zn    Zn3+2 0.746098 0.995192 0.439838 0.000000
Zn63  Zn    Zn3+2 0.741091 0.231758 0.244599 0.000000
Zn64  Zn    Zn3+2 0.795295 0.861832 0.345185 0.000000
C1    C     C_3   0.216513 0.593028 0.311584 0.000000
N1    N     N_3   0.202307 0.637264 0.324907 0.000000
C2    C     C_3   0.178030 0.623359 0.348149 0.000000
C3    C     C_R   0.217059 0.619287 0.368482 0.000000
N2    N     N_R   0.245359 0.574388 0.370749 0.000000
C4    C     C_R   0.292611 0.591367 0.370937 0.000000
C5    C     C_R   0.336286 0.563494 0.370356 0.000000
C6    C     C_R   0.381179 0.587238 0.371926 0.000000
C7    C     C_R   0.381661 0.639013 0.371717 0.000000
C8    C     C_R   0.336966 0.667320 0.372970 0.000000
C9    C     C_R   0.292718 0.642150 0.372740 0.000000
N3    N     N_R   0.245259 0.661567 0.372846 0.000000
H1    H     H_    0.232711 0.605524 0.293605 0.000000
H2    H     H_    0.245846 0.569917 0.322365 0.000000
H3    H     H_    0.182909 0.570708 0.307676 0.000000
H4    H     H_    0.176831 0.659505 0.313644 0.000000
H5    H     H_    0.150230 0.653602 0.351287 0.000000
H6    H     H_    0.159384 0.586787 0.347044 0.000000
H7    H     H_    0.335730 0.524950 0.367408 0.000000
H8    H     H_    0.416126 0.565317 0.372257 0.000000
H9    H     H_    0.417605 0.656226 0.370262 0.000000
H10   H     H_    0.336887 0.707541 0.374083 0.000000
C10   C     C_3   0.520019 0.924622 0.068229 0.000000
N4    N     N_3   0.510698 0.969760 0.051956 0.000000
C11   C     C_3   0.481683 0.008151 0.064458 0.000000
C12   C     C_R   0.440970 0.985381 0.078861 0.000000
N5    N     N_R   0.398704 0.963473 0.068278 0.000000
C13   C     C_R   0.376950 0.943865 0.088680 0.000000
C14   C     C_R   0.331829 0.920274 0.089566 0.000000
C15   C     C_R   0.317727 0.899106 0.112252 0.000000
C16   C     C_R   0.349532 0.900887 0.133109 0.000000
C17   C     C_R   0.394153 0.926768 0.131962 0.000000
C18   C     C_R   0.405491 0.951030 0.109766 0.000000
N6    N     N_R   0.445505 0.979959 0.104626 0.000000
H11   H     H_    0.486993 0.899882 0.067812 0.000000
H12   H     H_    0.553049 0.902782 0.061684 0.000000
H13   H     H_    0.529073 0.935159 0.087283 0.000000
H14   H     H_    0.489512 0.959287 0.036792 0.000000
H15   H     H_    0.506454 0.026596 0.077808 0.000000
H16   H     H_    0.465777 0.037239 0.050844 0.000000
H17   H     H_    0.308034 0.919038 0.073080 0.000000
H18   H     H_    0.282497 0.879712 0.113588 0.000000
H19   H     H_    0.339117 0.882275 0.150467 0.000000
H20   H     H_    0.419381 0.926804 0.147946 0.000000
C19   C     C_3   0.853331 0.582968 0.340429 0.000000
N7    N     N_3   0.907596 0.583314 0.345082 0.000000
C20   C     C_3   0.917021 0.620553 0.363141 0.000000
C21   C     C_R   0.970611 0.615995 0.372182 0.000000
N8    N     N_R   0.995761 0.572844 0.365207 0.000000
C22   C     C_R   0.030851 0.592017 0.349998 0.000000
C23   C     C_R   0.056328 0.567405 0.331961 0.000000
C24   C     C_R   0.077280 0.596189 0.313072 0.000000
C25   C     C_R   0.075253 0.648347 0.313296 0.000000
C26   C     C_R   0.053792 0.672210 0.332795 0.000000
C27   C     C_R   0.031258 0.643241 0.351045 0.000000
N9    N     N_R   0.997723 0.659271 0.367638 0.000000
H21   H     H_    0.834280 0.567116 0.357024 0.000000
H22   H     H_    0.838217 0.621859 0.335610 0.000000
H23   H     H_    0.845962 0.558979 0.324709 0.000000
H24   H     H_    0.923426 0.596637 0.328538 0.000000
H25   H     H_    0.910720 0.658162 0.353422 0.000000
H26   H     H_    0.891260 0.615721 0.378397 0.000000
H27   H     H_    0.056014 0.527143 0.330639 0.000000
H28   H     H_    0.094159 0.577916 0.297703 0.000000
H29   H     H_    0.090696 0.670653 0.298119 0.000000
H30   H     H_    0.051908 0.712505 0.332061 0.000000
C28   C     C_3   0.129981 0.539657 0.439199 0.000000
N10   N     N_3   0.112066 0.509655 0.419410 0.000000
C29   C     C_3   0.115295 0.536685 0.395495 0.000000
C30   C     C_R   0.113675 0.498768 0.376835 0.000000
N11   N     N_R   0.069766 0.475454 0.370041 0.000000
C31   C     C_R   0.087676 0.436606 0.357529 0.000000
C32   C     C_R   0.059912 0.401057 0.346321 0.000000
C33   C     C_R   0.085896 0.361642 0.335974 0.000000
C34   C     C_R   0.138426 0.358371 0.337428 0.000000
C35   C     C_R   0.165756 0.395244 0.348462 0.000000
C36   C     C_R   0.139563 0.435610 0.357687 0.000000
N12   N     N_R   0.157663 0.475843 0.369312 0.000000
H31   H     H_    0.133508 0.579169 0.432405 0.000000
H32   H     H_    0.103829 0.536936 0.454646 0.000000
H33   H     H_    0.166551 0.523834 0.446582 0.000000
H34   H     H_    0.136614 0.478069 0.419210 0.000000
H35   H     H_    0.084300 0.564942 0.392278 0.000000
H36   H     H_    0.151468 0.555092 0.393598 0.000000
H37   H     H_    0.019189 0.403691 0.345611 0.000000
H38   H     H_    0.065192 0.332683 0.327150 0.000000
H39   H     H_    0.158289 0.326589 0.329892 0.000000
H40   H     H_    0.206202 0.390871 0.349999 0.000000
C37   C     C_3   0.381842 0.674666 0.442177 0.000000
N13   N     N_3   0.343676 0.713974 0.445443 0.000000
C38   C     C_3   0.295858 0.693593 0.438365 0.000000
C39   C     C_R   0.256260 0.732849 0.438403 0.000000
N14   N     N_R   0.247891 0.759250 0.459316 0.000000
C40   C     C_R   0.228090 0.803425 0.449255 0.000000
C41   C     C_R   0.221201 0.848270 0.460376 0.000000
C42   C     C_R   0.200645 0.889247 0.446172 0.000000
C43   C     C_R   0.184509 0.883808 0.421817 0.000000
C44   C     C_R   0.194433 0.839051 0.410560 0.000000
C45   C     C_R   0.219704 0.800710 0.424241 0.000000
N15   N     N_R   0.236875 0.755977 0.416434 0.000000
H41   H     H_    0.418506 0.692278 0.440087 0.000000
H42   H     H_    0.381855 0.646454 0.457961 0.000000
H43   H     H_    0.375178 0.655600 0.424796 0.000000
H44   H     H_    0.350479 0.743621 0.432630 0.000000
H45   H     H_    0.297509 0.683268 0.418908 0.000000
H46   H     H_    0.287205 0.662333 0.451674 0.000000
H47   H     H_    0.232785 0.852257 0.479233 0.000000
H48   H     H_    0.195389 0.925277 0.454405 0.000000
H49   H     H_    0.165925 0.915282 0.411290 0.000000
H50   H     H_    0.182229 0.834500 0.391752 0.000000
C46   C     C_3   0.356591 0.144393 0.057143 0.000000
N16   N     N_3   0.358241 0.096895 0.045418 0.000000
C47   C     C_3   0.307200 0.080452 0.045151 0.000000
C48   C     C_R   0.297029 0.054122 0.022532 0.000000
N17   N     N_R   0.304096 0.002850 0.024092 0.000000
C49   C     C_R   0.262453 0.987750 0.012229 0.000000
C50   C     C_R   0.238128 0.943543 0.017137 0.000000
C51   C     C_R   0.192133 0.937147 0.005572 0.000000
C52   C     C_R   0.170011 0.975927 0.990613 0.000000
C53   C     C_R   0.191628 0.022639 0.988836 0.000000
C54   C     C_R   0.237322 0.027826 0.000383 0.000000
N18   N     N_R   0.258394 0.071226 0.006149 0.000000
H51   H     H_    0.394678 0.154643 0.061540 0.000000
H52   H     H_    0.342822 0.173857 0.043834 0.000000
H53   H     H_    0.332581 0.142710 0.073612 0.000000
H54   H     H_    0.380407 0.070563 0.056182 0.000000
H55   H     H_    0.301888 0.054292 0.061550 0.000000
H56   H     H_    0.280079 0.112390 0.045617 0.000000
H57   H     H_    0.250172 0.917665 0.032251 0.000000
H58   H     H_    0.171385 0.903546 0.009907 0.000000
H59   H     H_    0.132307 0.971659 0.983301 0.000000
H60   H     H_    0.170854 0.055178 0.980903 0.000000
C55   C     C_3   0.329876 0.295705 0.952752 0.000000
N19   N     N_3   0.322166 0.288439 0.978874 0.000000
C56   C     C_3   0.326892 0.235735 0.985757 0.000000
C57   C     C_R   0.302967 0.229968 0.009678 0.000000
N20   N     N_R   0.307579 0.265238 0.027566 0.000000
C58   C     C_R   0.271299 0.251000 0.043440 0.000000
C59   C     C_R   0.249611 0.278027 0.061416 0.000000
C60   C     C_R   0.211308 0.257635 0.075214 0.000000
C61   C     C_R   0.194113 0.210558 0.070296 0.000000
C62   C     C_R   0.212513 0.186065 0.050328 0.000000
C63   C     C_R   0.249594 0.208097 0.036450 0.000000
N21   N     N_R   0.266343 0.195149 0.014116 0.000000
H61   H     H_    0.370393 0.296543 0.949881 0.000000
H62   H     H_    0.314368 0.265586 0.942044 0.000000
H63   H     H_    0.309743 0.330998 0.946563 0.000000
H64   H     H_    0.284776 0.297869 0.982011 0.000000
H65   H     H_    0.306623 0.212856 0.972714 0.000000
H66   H     H_    0.366474 0.223043 0.986337 0.000000
H67   H     H_    0.258953 0.315930 0.063319 0.000000
H68   H     H_    0.194289 0.278870 0.089602 0.000000
H69   H     H_    0.164476 0.194161 0.081212 0.000000
H70   H     H_    0.198133 0.150506 0.046120 0.000000
C64   C     C_3   0.535515 0.815307 0.268088 0.000000
N22   N     N_3   0.503161 0.861061 0.267830 0.000000
C65   C     C_3   0.510811 0.887681 0.290568 0.000000
C66   C     C_R   0.465926 0.921214 0.294194 0.000000
N23   N     N_R   0.454565 0.963514 0.278224 0.000000
C67   C     C_R   0.409216 0.978944 0.287059 0.000000
C68   C     C_R   0.379653 0.021069 0.279435 0.000000
C69   C     C_R   0.336983 0.032381 0.292655 0.000000
C70   C     C_R   0.325125 0.003021 0.313621 0.000000
C71   C     C_R   0.356073 0.962057 0.321735 0.000000
C72   C     C_R   0.397189 0.950402 0.307962 0.000000
N24   N     N_R   0.432331 0.913648 0.313743 0.000000
H71   H     H_    0.546795 0.800998 0.287124 0.000000
H72   H     H_    0.515427 0.785892 0.258278 0.000000
H73   H     H_    0.570395 0.822376 0.258089 0.000000
H74   H     H_    0.465602 0.850211 0.267076 0.000000
H75   H     H_    0.515213 0.861359 0.307004 0.000000
H76   H     H_    0.544524 0.911029 0.288945 0.000000
H77   H     H_    0.390358 0.046546 0.264400 0.000000
H78   H     H_    0.313462 0.065319 0.287001 0.000000
H79   H     H_    0.292136 0.013140 0.323920 0.000000
H80   H     H_    0.349062 0.940421 0.338686 0.000000
C73   C     C_3   0.628022 0.848961 0.215534 0.000000
N25   N     N_3   0.646696 0.889740 0.230064 0.000000
C74   C     C_3   0.607406 0.913316 0.244350 0.000000
C75   C     C_R   0.615697 0.968062 0.247306 0.000000
N26   N     N_R   0.663302 0.986461 0.252092 0.000000
C76   C     C_R   0.653411 0.018010 0.269809 0.000000
C77   C     C_R   0.687775 0.029763 0.287926 0.000000
C78   C     C_R   0.669855 0.046552 0.309570 0.000000
C79   C     C_R   0.618297 0.050689 0.312485 0.000000
C80   C     C_R   0.584956 0.041919 0.293414 0.000000
C81   C     C_R   0.602840 0.024443 0.272349 0.000000
N27   N     N_R   0.576775 0.996469 0.256771 0.000000
H81   H     H_    0.634227 0.858149 0.195559 0.000000
H82   H     H_    0.649613 0.813459 0.221120 0.000000
H83   H     H_    0.587417 0.842399 0.218104 0.000000
H84   H     H_    0.660380 0.917053 0.217937 0.000000
H85   H     H_    0.568913 0.909139 0.236677 0.000000
H86   H     H_    0.608969 0.895418 0.263198 0.000000
H87   H     H_    0.727381 0.020535 0.287124 0.000000
H88   H     H_    0.696284 0.054481 0.324303 0.000000
H89   H     H_    0.603269 0.063205 0.329310 0.000000
H90   H     H_    0.545981 0.043278 0.295950 0.000000
C82   C     C_3   0.636161 0.985058 0.183966 0.000000
N28   N     N_3   0.593449 0.979350 0.200168 0.000000
C83   C     C_3   0.552738 0.952633 0.189365 0.000000
C84   C     C_R   0.503918 0.980375 0.190861 0.000000
N29   N     N_R   0.478526 0.990000 0.212557 0.000000
C85   C     C_R   0.431646 0.001890 0.203139 0.000000
C86   C     C_R   0.387731 0.005221 0.215817 0.000000
C87   C     C_R   0.343222 0.017935 0.202581 0.000000
C88   C     C_R   0.343529 0.026681 0.176979 0.000000
C89   C     C_R   0.387954 0.020414 0.164323 0.000000
C90   C     C_R   0.431058 0.005857 0.177779 0.000000
N30   N     N_R   0.476562 0.992714 0.169065 0.000000
H91   H     H_    0.628051 0.012296 0.168253 0.000000
H92   H     H_    0.667178 0.000395 0.194892 0.000000
H93   H     H_    0.648397 0.947885 0.177435 0.000000
H94   H     H_    0.580200 0.013411 0.206210 0.000000
H95   H     H_    0.559275 0.950278 0.170008 0.000000
H96   H     H_    0.550050 0.913968 0.197538 0.000000
H97   H     H_    0.387366 0.993859 0.235063 0.000000
H98   H     H_    0.307931 0.020441 0.212202 0.000000
H99   H     H_    0.308569 0.036626 0.166795 0.000000
H100  H     H_    0.388114 0.024301 0.144417 0.000000
C91   C     C_3   0.369922 0.152884 0.197655 0.000000
N31   N     N_3   0.399219 0.139733 0.220340 0.000000
C92   C     C_3   0.452138 0.134061 0.214037 0.000000
C93   C     C_R   0.483329 0.131566 0.237439 0.000000
N32   N     N_R   0.487349 0.176287 0.249662 0.000000
C94   C     C_R   0.480133 0.160169 0.273432 0.000000
C95   C     C_R   0.479788 0.188178 0.294264 0.000000
C96   C     C_R   0.468338 0.165042 0.316721 0.000000
C97   C     C_R   0.459324 0.114464 0.318150 0.000000
C98   C     C_R   0.464681 0.086224 0.297765 0.000000
C99   C     C_R   0.476079 0.109246 0.275460 0.000000
N33   N     N_R   0.482266 0.088233 0.253364 0.000000
H101  H     H_    0.377596 0.192067 0.190899 0.000000
H102  H     H_    0.380110 0.126277 0.183346 0.000000
H103  H     H_    0.329044 0.150265 0.201435 0.000000
H104  H     H_    0.387400 0.104966 0.227521 0.000000
H105  H     H_    0.458244 0.099431 0.203873 0.000000
H106  H     H_    0.461629 0.167903 0.202533 0.000000
H107  H     H_    0.490396 0.226657 0.293682 0.000000
H108  H     H_    0.467387 0.185661 0.333375 0.000000
H109  H     H_    0.451058 0.096096 0.335642 0.000000
H110  H     H_    0.462865 0.046582 0.300116 0.000000
C100  C     C_3   0.433124 0.739523 0.389933 0.000000
N34   N     N_3   0.447853 0.781852 0.403756 0.000000
C101  C     C_3   0.497354 0.797875 0.397097 0.000000
C102  C     C_R   0.507869 0.792572 0.370529 0.000000
N35   N     N_R   0.475451 0.810869 0.351389 0.000000
C103  C     C_R   0.484306 0.777802 0.333867 0.000000
C104  C     C_R   0.460617 0.776159 0.311255 0.000000
C105  C     C_R   0.469431 0.734704 0.297377 0.000000
C106  C     C_R   0.502247 0.696143 0.306531 0.000000
C107  C     C_R   0.526595 0.699382 0.329340 0.000000
C108  C     C_R   0.520348 0.742709 0.341808 0.000000
N36   N     N_R   0.540004 0.753940 0.364154 0.000000
H111  H     H_    0.403222 0.720849 0.400069 0.000000
H112  H     H_    0.415918 0.752193 0.371645 0.000000
H113  H     H_    0.465276 0.712474 0.388414 0.000000
H114  H     H_    0.450326 0.769710 0.422480 0.000000
H115  H     H_    0.500516 0.837248 0.401783 0.000000
H116  H     H_    0.523574 0.771894 0.407895 0.000000
H117  H     H_    0.439446 0.808401 0.303816 0.000000
H118  H     H_    0.450893 0.732500 0.279383 0.000000
H119  H     H_    0.507638 0.662648 0.296177 0.000000
H120  H     H_    0.544773 0.666481 0.338024 0.000000
C109  C     C_3   0.785844 0.737926 0.309176 0.000000
N37   N     N_3   0.739202 0.719334 0.319357 0.000000
C110  C     C_3   0.740834 0.725057 0.346029 0.000000
C111  C     C_R   0.713683 0.773548 0.352400 0.000000
N38   N     N_R   0.733138 0.820891 0.347918 0.000000
C112  C     C_R   0.692030 0.851299 0.347361 0.000000
C113  C     C_R   0.690049 0.903016 0.344940 0.000000
C114  C     C_R   0.643209 0.926108 0.342018 0.000000
C115  C     C_R   0.602023 0.896725 0.338462 0.000000
C116  C     C_R   0.604758 0.845691 0.343678 0.000000
C117  C     C_R   0.650502 0.824556 0.351012 0.000000
N39   N     N_R   0.662704 0.775898 0.357217 0.000000
H121  H     H_    0.782043 0.741062 0.288617 0.000000
H122  H     H_    0.793311 0.775592 0.316051 0.000000
H123  H     H_    0.817952 0.711186 0.314493 0.000000
H124  H     H_    0.740215 0.680591 0.316726 0.000000
H125  H     H_    0.722821 0.692745 0.355625 0.000000
H126  H     H_    0.780761 0.722667 0.351513 0.000000
H127  H     H_    0.722977 0.925302 0.342856 0.000000
H128  H     H_    0.640105 0.966236 0.338630 0.000000
H129  H     H_    0.568454 0.913002 0.330038 0.000000
H130  H     H_    0.573817 0.823545 0.338862 0.000000
C118  C     C_3   0.358914 0.781187 0.088524 0.000000
N40   N     N_3   0.358886 0.815247 0.066512 0.000000
C119  C     C_3   0.308240 0.817355 0.055314 0.000000
C120  C     C_R   0.310322 0.839008 0.029380 0.000000
N41   N     N_R   0.332792 0.884883 0.022831 0.000000
C121  C     C_R   0.329504 0.884395 0.997886 0.000000
C122  C     C_R   0.337352 0.922511 0.980377 0.000000
C123  C     C_R   0.343907 0.909463 0.956376 0.000000
C124  C     C_R   0.343860 0.859189 0.950780 0.000000
C125  C     C_R   0.329156 0.823879 0.968535 0.000000
C126  C     C_R   0.312460 0.840502 0.990452 0.000000
N42   N     N_R   0.292811 0.813058 0.009216 0.000000
H131  H     H_    0.394078 0.785742 0.099718 0.000000
H132  H     H_    0.325745 0.790130 0.099885 0.000000
H133  H     H_    0.357536 0.741543 0.082976 0.000000
H134  H     H_    0.383252 0.799173 0.053940 0.000000
H135  H     H_    0.293878 0.778573 0.054845 0.000000
H136  H     H_    0.282335 0.840513 0.066231 0.000000
H137  H     H_    0.339452 0.961425 0.984649 0.000000
H138  H     H_    0.353148 0.938440 0.942738 0.000000
H139  H     H_    0.353857 0.847669 0.932584 0.000000
H140  H     H_    0.332818 0.784338 0.965937 0.000000
C127  C     C_3   0.902725 0.010366 0.187374 0.000000
N43   N     N_3   0.857303 0.983842 0.181152 0.000000
C128  C     C_3   0.813804 0.015914 0.186578 0.000000
C129  C     C_R   0.767428 0.985866 0.186960 0.000000
N44   N     N_R   0.759133 0.956715 0.166985 0.000000
C130  C     C_R   0.754515 0.910404 0.178355 0.000000
C131  C     C_R   0.761056 0.864001 0.168367 0.000000
C132  C     C_R   0.761094 0.821087 0.184110 0.000000
C133  C     C_R   0.757212 0.824931 0.209539 0.000000
C134  C     C_R   0.754041 0.871809 0.219515 0.000000
C135  C     C_R   0.752592 0.913975 0.203517 0.000000
N45   N     N_R   0.755732 0.962441 0.209544 0.000000
H141  H     H_    0.908188 0.009958 0.207859 0.000000
H142  H     H_    0.935887 0.991108 0.179346 0.000000
H143  H     H_    0.899450 0.049973 0.179625 0.000000
H144  H     H_    0.857162 0.951058 0.192723 0.000000
H145  H     H_    0.820139 0.030006 0.205260 0.000000
H146  H     H_    0.809827 0.046011 0.171842 0.000000
H147  H     H_    0.770445 0.860487 0.149223 0.000000
H148  H     H_    0.766251 0.784301 0.176622 0.000000
H149  H     H_    0.758499 0.791151 0.221709 0.000000
H150  H     H_    0.753755 0.874701 0.239306 0.000000
C136  C     C_3   0.600933 0.043476 0.055117 0.000000
N46   N     N_3   0.602470 0.010610 0.077348 0.000000
C137  C     C_3   0.619298 0.039207 0.098083 0.000000
C138  C     C_R   0.619819 0.004224 0.120260 0.000000
N47   N     N_R   0.574259 0.982047 0.125901 0.000000
C139  C     C_R   0.588622 0.933112 0.129486 0.000000
C140  C     C_R   0.557675 0.893000 0.133669 0.000000
C141  C     C_R   0.580311 0.845424 0.137621 0.000000
C142  C     C_R   0.632556 0.839065 0.136813 0.000000
C143  C     C_R   0.662562 0.880237 0.132484 0.000000
C144  C     C_R   0.639974 0.927224 0.129219 0.000000
N48   N     N_R   0.662147 0.971931 0.124476 0.000000
H151  H     H_    0.597842 0.020931 0.038585 0.000000
H152  H     H_    0.568029 0.070225 0.055246 0.000000
H153  H     H_    0.636152 0.063599 0.054499 0.000000
H154  H     H_    0.629422 0.981812 0.074934 0.000000
H155  H     H_    0.658283 0.051677 0.094835 0.000000
H156  H     H_    0.592528 0.071598 0.100441 0.000000
H157  H     H_    0.517025 0.898597 0.134075 0.000000
H158  H     H_    0.557220 0.812996 0.140961 0.000000
H159  H     H_    0.649904 0.801557 0.139096 0.000000
H160  H     H_    0.701950 0.875333 0.129561 0.000000
C145  C     C_3   0.147359 0.021942 0.932697 0.000000
N49   N     N_3   0.158666 0.074573 0.930447 0.000000
C146  C     C_3   0.213007 0.076068 0.931312 0.000000
C147  C     C_R   0.226540 0.128236 0.932009 0.000000
N50   N     N_R   0.226001 0.157840 0.910110 0.000000
C148  C     C_R   0.220913 0.204425 0.918838 0.000000
C149  C     C_R   0.222153 0.250545 0.906073 0.000000
C150  C     C_R   0.223122 0.293159 0.919323 0.000000
C151  C     C_R   0.216749 0.289973 0.944489 0.000000
C152  C     C_R   0.216834 0.243848 0.956965 0.000000
C153  C     C_R   0.220456 0.201846 0.944115 0.000000
N51   N     N_R   0.226705 0.154339 0.953793 0.000000
H161  H     H_    0.130132 0.010463 0.915192 0.000000
H162  H     H_    0.181925 0.998181 0.936476 0.000000
H163  H     H_    0.121931 0.017039 0.948243 0.000000
H164  H     H_    0.144176 0.092605 0.945574 0.000000
H165  H     H_    0.231041 0.055019 0.947577 0.000000
H166  H     H_    0.224984 0.062028 0.913702 0.000000
H167  H     H_    0.227146 0.254783 0.886666 0.000000
H168  H     H_    0.231333 0.328968 0.910166 0.000000
H169  H     H_    0.221531 0.322598 0.954908 0.000000
H170  H     H_    0.222780 0.240598 0.976261 0.000000
C154  C     C_3   0.494511 0.440312 0.967638 0.000000
N52   N     N_3   0.491874 0.388019 0.976651 0.000000
C155  C     C_3   0.440135 0.377670 0.983122 0.000000
C156  C     C_R   0.432434 0.321879 0.984576 0.000000
N53   N     N_R   0.459632 0.285745 0.971511 0.000000
C157  C     C_R   0.464385 0.247281 0.988952 0.000000
C158  C     C_R   0.494949 0.204831 0.988776 0.000000
C159  C     C_R   0.496989 0.171846 0.009513 0.000000
C160  C     C_R   0.468048 0.181193 0.029688 0.000000
C161  C     C_R   0.437043 0.223929 0.029508 0.000000
C162  C     C_R   0.438034 0.257318 0.009387 0.000000
N54   N     N_R   0.414614 0.302718 0.006676 0.000000
H171  H     H_    0.534773 0.449649 0.965413 0.000000
H172  H     H_    0.474672 0.446015 0.949307 0.000000
H173  H     H_    0.477718 0.465150 0.981381 0.000000
H174  H     H_    0.512840 0.385324 0.993327 0.000000
H175  H     H_    0.433975 0.391161 0.001971 0.000000
H176  H     H_    0.412174 0.398968 0.970947 0.000000
H177  H     H_    0.520076 0.199865 0.974033 0.000000
H178  H     H_    0.521812 0.138792 0.010640 0.000000
H179  H     H_    0.470810 0.155007 0.045651 0.000000
H180  H     H_    0.413584 0.231063 0.044895 0.000000
C163  C     C_3   0.606140 0.112411 0.981578 0.000000
N55   N     N_3   0.566046 0.101097 0.964873 0.000000
C164  C     C_3   0.565617 0.136340 0.943470 0.000000
C165  C     C_R   0.512500 0.141084 0.935835 0.000000
N56   N     N_R   0.485246 0.097790 0.936019 0.000000
C166  C     C_R   0.438314 0.115703 0.932233 0.000000
C167  C     C_R   0.396308 0.087647 0.933019 0.000000
C168  C     C_R   0.350972 0.113704 0.933896 0.000000
C169  C     C_R   0.349157 0.165935 0.932014 0.000000
C170  C     C_R   0.392215 0.193237 0.929787 0.000000
C171  C     C_R   0.436886 0.167041 0.930742 0.000000
N57   N     N_R   0.483285 0.185633 0.933369 0.000000
H181  H     H_    0.608992 0.081007 0.995838 0.000000
H182  H     H_    0.640067 0.115437 0.970507 0.000000
H183  H     H_    0.597749 0.148017 0.990619 0.000000
H184  H     H_    0.532788 0.106061 0.974407 0.000000
H185  H     H_    0.580641 0.172954 0.947809 0.000000
H186  H     H_    0.587961 0.119986 0.928540 0.000000
H187  H     H_    0.398752 0.046933 0.935387 0.000000
H188  H     H_    0.317692 0.093107 0.937798 0.000000
H189  H     H_    0.313942 0.185761 0.932869 0.000000
H190  H     H_    0.390822 0.233399 0.928286 0.000000
C172  C     C_3   0.145740 0.625371 0.897419 0.000000
N58   N     N_3   0.187634 0.594924 0.908800 0.000000
C173  C     C_3   0.172372 0.555734 0.926556 0.000000
C174  C     C_R   0.218421 0.523552 0.931284 0.000000
N59   N     N_R   0.244590 0.517338 0.954205 0.000000
C175  C     C_R   0.291949 0.507204 0.946424 0.000000
C176  C     C_R   0.335773 0.505585 0.960264 0.000000
C177  C     C_R   0.381076 0.509735 0.948234 0.000000
C178  C     C_R   0.382436 0.508406 0.922585 0.000000
C179  C     C_R   0.338035 0.504072 0.908886 0.000000
C180  C     C_R   0.293352 0.505660 0.921194 0.000000
N60   N     N_R   0.247102 0.513749 0.910946 0.000000
H191  H     H_    0.115016 0.601311 0.892527 0.000000
H192  H     H_    0.131497 0.653599 0.909748 0.000000
H193  H     H_    0.157708 0.645734 0.880266 0.000000
H194  H     H_    0.213395 0.617131 0.917614 0.000000
H195  H     H_    0.159554 0.570964 0.944042 0.000000
H196  H     H_    0.142539 0.533894 0.917931 0.000000
H197  H     H_    0.334926 0.501084 0.979802 0.000000
H198  H     H_    0.415601 0.512706 0.958984 0.000000
H199  H     H_    0.418282 0.509181 0.913395 0.000000
H200  H     H_    0.338484 0.500367 0.889129 0.000000
C181  C     C_3   0.396214 0.623759 0.887036 0.000000
N61   N     N_3   0.347630 0.614951 0.875191 0.000000
C182  C     C_3   0.307624 0.630684 0.891367 0.000000
C183  C     C_R   0.259236 0.637983 0.877012 0.000000
N62   N     N_R   0.249685 0.685249 0.865598 0.000000
C184  C     C_R   0.238943 0.673490 0.842091 0.000000
C185  C     C_R   0.244068 0.703992 0.821077 0.000000
C186  C     C_R   0.237170 0.683243 0.798268 0.000000
C187  C     C_R   0.227851 0.632203 0.796883 0.000000
C188  C     C_R   0.227126 0.601006 0.818273 0.000000
C189  C     C_R   0.233843 0.622683 0.840675 0.000000
N63   N     N_R   0.243218 0.598755 0.863066 0.000000
H201  H     H_    0.402292 0.664716 0.887371 0.000000
H202  H     H_    0.397616 0.606889 0.906248 0.000000
H203  H     H_    0.426724 0.606018 0.876376 0.000000
H204  H     H_    0.346091 0.576300 0.874103 0.000000
H205  H     H_    0.304556 0.603947 0.907591 0.000000
H206  H     H_    0.317198 0.667965 0.896809 0.000000
H207  H     H_    0.257394 0.741808 0.822253 0.000000
H208  H     H_    0.240808 0.706562 0.781388 0.000000
H209  H     H_    0.223515 0.616303 0.778931 0.000000
H210  H     H_    0.223370 0.560658 0.817329 0.000000
C190  C     C_3   0.024283 0.194492 0.083048 0.000000
N64   N     N_3   0.981658 0.189041 0.065970 0.000000
C191  C     C_3   0.980878 0.231278 0.047691 0.000000
C192  C     C_R   0.945904 0.220507 0.026672 0.000000
N65   N     N_R   0.951464 0.178518 0.012409 0.000000
C193  C     C_R   0.905832 0.176168 0.001970 0.000000
C194  C     C_R   0.889009 0.136815 0.989366 0.000000
C195  C     C_R   0.839035 0.127913 0.990948 0.000000
C196  C     C_R   0.811394 0.153862 0.007823 0.000000
C197  C     C_R   0.826469 0.199177 0.015704 0.000000
C198  C     C_R   0.874273 0.211737 0.010659 0.000000
N66   N     N_R   0.899449 0.245219 0.023280 0.000000
H211  H     H_    0.021993 0.166405 0.098928 0.000000
H212  H     H_    0.060292 0.187493 0.073458 0.000000
H213  H     H_    0.023320 0.233080 0.090072 0.000000
H214  H     H_    0.948603 0.192275 0.076033 0.000000
H215  H     H_    0.966670 0.265749 0.056342 0.000000
H216  H     H_    0.019558 0.237313 0.041474 0.000000
H217  H     H_    0.913428 0.107568 0.983117 0.000000
H218  H     H_    0.825096 0.093614 0.983829 0.000000
H219  H     H_    0.777742 0.138102 0.014912 0.000000
H220  H     H_    0.805221 0.218890 0.028959 0.000000
C199  C     C_3   0.857625 0.115964 0.060348 0.000000
N67   N     N_3   0.899572 0.103396 0.044839 0.000000
C200  C     C_3   0.887764 0.055868 0.034199 0.000000
C201  C     C_R   0.930863 0.030370 0.023329 0.000000
N68   N     N_R   0.974984 0.056359 0.024165 0.000000
C202  C     C_R   0.999196 0.031632 0.043558 0.000000
C203  C     C_R   0.027194 0.054127 0.061393 0.000000
C204  C     C_R   0.039227 0.026560 0.083355 0.000000
C205  C     C_R   0.024697 0.976936 0.086607 0.000000
C206  C     C_R   0.992981 0.956621 0.069271 0.000000
C207  C     C_R   0.977609 0.986254 0.048689 0.000000
N69   N     N_R   0.935153 0.982764 0.034392 0.000000
H221  H     H_    0.860332 0.155562 0.065698 0.000000
H222  H     H_    0.821022 0.111015 0.050913 0.000000
H223  H     H_    0.858702 0.089182 0.076569 0.000000
H224  H     H_    0.929933 0.097593 0.057461 0.000000
H225  H     H_    0.878199 0.029461 0.049693 0.000000
H226  H     H_    0.857215 0.059820 0.020729 0.000000
H227  H     H_    0.036168 0.093441 0.059021 0.000000
H228  H     H_    0.061132 0.043362 0.097768 0.000000
H229  H     H_    0.036032 0.954875 0.103381 0.000000
H230  H     H_    0.980621 0.919129 0.072296 0.000000
C208  C     C_3   0.134488 0.998852 0.049144 0.000000
N70   N     N_3   0.119517 0.029997 0.026867 0.000000
C209  C     C_3   0.133604 0.080877 0.030975 0.000000
C210  C     C_R   0.119767 0.117621 0.009784 0.000000
N71   N     N_R   0.156599 0.151100 0.003964 0.000000
C211  C     C_R   0.131580 0.196157 0.002809 0.000000
C212  C     C_R   0.149570 0.244445 0.003930 0.000000
C213  C     C_R   0.116651 0.285087 0.999711 0.000000
C214  C     C_R   0.067065 0.276677 0.994907 0.000000
C215  C     C_R   0.049243 0.229335 0.997711 0.000000
C216  C     C_R   0.081685 0.189223 0.003227 0.000000
N72   N     N_R   0.071693 0.140000 0.007553 0.000000
H231  H     H_    0.111107 0.965117 0.050711 0.000000
H232  H     H_    0.174790 0.986978 0.048384 0.000000
H233  H     H_    0.131040 0.020329 0.066052 0.000000
H234  H     H_    0.081117 0.029706 0.023030 0.000000
H235  H     H_    0.116662 0.095062 0.047876 0.000000
H236  H     H_    0.175057 0.079793 0.033843 0.000000
H237  H     H_    0.187395 0.252820 0.008487 0.000000
H238  H     H_    0.129178 0.323295 0.999442 0.000000
H239  H     H_    0.041420 0.306959 0.989524 0.000000
H240  H     H_    0.010692 0.226103 0.994611 0.000000
C217  C     C_3   0.421096 0.393547 0.466672 0.000000
N73   N     N_3   0.373064 0.421123 0.465761 0.000000
C218  C     C_3   0.371175 0.451148 0.487397 0.000000
C219  C     C_R   0.343765 0.424386 0.507527 0.000000
N74   N     N_R   0.294295 0.437832 0.512368 0.000000
C220  C     C_R   0.283515 0.404572 0.531024 0.000000
C221  C     C_R   0.238225 0.399215 0.542540 0.000000
C222  C     C_R   0.233942 0.359110 0.559731 0.000000
C223  C     C_R   0.274287 0.324920 0.564665 0.000000
C224  C     C_R   0.319925 0.331393 0.553112 0.000000
C225  C     C_R   0.324317 0.372763 0.536916 0.000000
N75   N     N_R   0.364264 0.384865 0.522814 0.000000
H241  H     H_    0.416884 0.359391 0.456304 0.000000
H242  H     H_    0.450519 0.415770 0.457878 0.000000
H243  H     H_    0.433109 0.384216 0.485994 0.000000
H244  H     H_    0.344862 0.394636 0.467449 0.000000
H245  H     H_    0.409410 0.461313 0.493950 0.000000
H246  H     H_    0.349374 0.486290 0.481954 0.000000
H247  H     H_    0.206689 0.424987 0.538341 0.000000
H248  H     H_    0.198537 0.353691 0.568939 0.000000
H249  H     H_    0.269971 0.292840 0.577573 0.000000
H250  H     H_    0.350413 0.303640 0.556263 0.000000
C226  C     C_3   0.607286 0.209099 0.506918 0.000000
N76   N     N_3   0.570385 0.251398 0.505495 0.000000
C227  C     C_3   0.521469 0.233383 0.498366 0.000000
C228  C     C_R   0.487001 0.270906 0.484174 0.000000
N77   N     N_R   0.449428 0.295645 0.497615 0.000000
C229  C     C_R   0.407403 0.281754 0.485644 0.000000
C230  C     C_R   0.359179 0.282725 0.494305 0.000000
C231  C     C_R   0.321938 0.259036 0.481392 0.000000
C232  C     C_R   0.334700 0.231202 0.461378 0.000000
C233  C     C_R   0.384349 0.228796 0.454061 0.000000
C234  C     C_R   0.418938 0.257622 0.464825 0.000000
N78   N     N_R   0.469073 0.253617 0.461571 0.000000
H251  H     H_    0.637480 0.215562 0.520834 0.000000
H252  H     H_    0.588976 0.173511 0.512779 0.000000
H253  H     H_    0.625452 0.205624 0.488953 0.000000
H254  H     H_    0.581830 0.281550 0.494427 0.000000
H255  H     H_    0.527528 0.202625 0.485967 0.000000
H256  H     H_    0.502330 0.218915 0.515205 0.000000
H257  H     H_    0.351425 0.296412 0.511975 0.000000
H258  H     H_    0.284088 0.257950 0.488455 0.000000
H259  H     H_    0.307027 0.207620 0.453105 0.000000
H260  H     H_    0.398674 0.198863 0.443624 0.000000
C235  C     C_3   0.616669 0.397796 0.469939 0.000000
N79   N     N_3   0.564711 0.409913 0.475018 0.000000
C236  C     C_3   0.551294 0.383278 0.497379 0.000000
C237  C     C_R   0.527525 0.419608 0.512260 0.000000
N80   N     N_R   0.549199 0.464689 0.516615 0.000000
C238  C     C_R   0.520864 0.480754 0.535552 0.000000
C239  C     C_R   0.526052 0.523042 0.549130 0.000000
C240  C     C_R   0.494841 0.528682 0.569163 0.000000
C241  C     C_R   0.457490 0.494264 0.574447 0.000000
C242  C     C_R   0.450908 0.453535 0.559818 0.000000
C243  C     C_R   0.483477 0.447524 0.540749 0.000000
N81   N     N_R   0.485879 0.408809 0.525724 0.000000
H261  H     H_    0.638929 0.422933 0.480135 0.000000
H262  H     H_    0.628043 0.359156 0.476270 0.000000
H263  H     H_    0.622386 0.403623 0.449812 0.000000
H264  H     H_    0.540019 0.402439 0.460481 0.000000
H265  H     H_    0.523977 0.354617 0.493517 0.000000
H266  H     H_    0.584820 0.367872 0.508078 0.000000
H267  H     H_    0.554092 0.550673 0.544885 0.000000
H268  H     H_    0.498751 0.560794 0.580501 0.000000
H269  H     H_    0.432977 0.499749 0.589890 0.000000
H270  H     H_    0.421829 0.426834 0.563591 0.000000
C244  C     C_3   0.610966 0.135410 0.455493 0.000000
N82   N     N_3   0.661902 0.149675 0.449812 0.000000
C245  C     C_3   0.681840 0.113154 0.433262 0.000000
C246  C     C_R   0.736978 0.114126 0.432996 0.000000
N83   N     N_R   0.762510 0.156745 0.438509 0.000000
C247  C     C_R   0.805685 0.136513 0.449694 0.000000
C248  C     C_R   0.841433 0.159042 0.463884 0.000000
C249  C     C_R   0.882289 0.130047 0.473819 0.000000
C250  C     C_R   0.884821 0.078331 0.471468 0.000000
C251  C     C_R   0.845660 0.055248 0.459733 0.000000
C252  C     C_R   0.806816 0.085306 0.449043 0.000000
N84   N     N_R   0.763986 0.069706 0.438541 0.000000
H271  H     H_    0.584378 0.167848 0.454534 0.000000
H272  H     H_    0.596873 0.107912 0.442407 0.000000
H273  H     H_    0.611113 0.121733 0.474992 0.000000
H274  H     H_    0.683019 0.145572 0.466471 0.000000
H275  H     H_    0.674988 0.076569 0.441358 0.000000
H276  H     H_    0.663560 0.115349 0.414725 0.000000
H277  H     H_    0.836245 0.196590 0.469475 0.000000
H278  H     H_    0.911483 0.147585 0.484418 0.000000
H279  H     H_    0.916337 0.055843 0.479735 0.000000
H280  H     H_    0.846386 0.014895 0.458343 0.000000
C253  C     C_3   0.530274 0.328305 0.428504 0.000000
N85   N     N_3   0.576727 0.322350 0.443423 0.000000
C254  C     C_3   0.599518 0.272797 0.449265 0.000000
C255  C     C_R   0.611065 0.246370 0.428187 0.000000
N86   N     N_R   0.571444 0.223548 0.416912 0.000000
C256  C     C_R   0.595456 0.200896 0.398803 0.000000
C257  C     C_R   0.573886 0.177001 0.379787 0.000000
C258  C     C_R   0.605062 0.161991 0.361397 0.000000
C259  C     C_R   0.657046 0.166472 0.363192 0.000000
C260  C     C_R   0.678472 0.188068 0.383432 0.000000
C261  C     C_R   0.646771 0.207209 0.400563 0.000000
N87   N     N_R   0.659636 0.233773 0.420329 0.000000
H281  H     H_    0.531680 0.363315 0.416418 0.000000
H282  H     H_    0.522464 0.296894 0.417236 0.000000
H283  H     H_    0.498727 0.334160 0.441076 0.000000
H284  H     H_    0.560548 0.325536 0.460373 0.000000
H285  H     H_    0.634334 0.275388 0.460358 0.000000
H286  H     H_    0.571556 0.249845 0.458404 0.000000
H287  H     H_    0.533678 0.172829 0.378281 0.000000
H288  H     H_    0.588248 0.144422 0.346102 0.000000
H289  H     H_    0.680846 0.152491 0.348875 0.000000
H290  H     H_    0.718270 0.190295 0.385461 0.000000
C262  C     C_3   0.718155 0.382233 0.433477 0.000000
N88   N     N_3   0.732599 0.337501 0.421390 0.000000
C263  C     C_3   0.773838 0.350264 0.405646 0.000000
C264  C     C_R   0.783052 0.307677 0.389868 0.000000
N89   N     N_R   0.778107 0.258418 0.398474 0.000000
C265  C     C_R   0.803498 0.232856 0.381298 0.000000
C266  C     C_R   0.815315 0.181983 0.381132 0.000000
C267  C     C_R   0.842695 0.165222 0.361439 0.000000
C268  C     C_R   0.859293 0.198986 0.343099 0.000000
C269  C     C_R   0.847127 0.249881 0.343572 0.000000
C270  C     C_R   0.818873 0.265426 0.362755 0.000000
N90   N     N_R   0.804754 0.313030 0.367077 0.000000
H291  H     H_    0.704810 0.369766 0.451893 0.000000
H292  H     H_    0.751273 0.406301 0.435490 0.000000
H293  H     H_    0.687969 0.403423 0.422396 0.000000
H294  H     H_    0.701958 0.327213 0.410676 0.000000
H295  H     H_    0.765947 0.386120 0.394776 0.000000
H296  H     H_    0.808209 0.355262 0.417222 0.000000
H297  H     H_    0.803678 0.155586 0.395550 0.000000
H298  H     H_    0.851874 0.125559 0.360393 0.000000
H299  H     H_    0.882665 0.185552 0.328640 0.000000
H300  H     H_    0.861467 0.276830 0.330095 0.000000
C271  C     C_3   0.728684 0.572913 0.560074 0.000000
N91   N     N_3   0.682480 0.575839 0.544776 0.000000
C272  C     C_3   0.691904 0.598399 0.520204 0.000000
C273  C     C_R   0.642423 0.608570 0.506864 0.000000
N92   N     N_R   0.608964 0.571219 0.502538 0.000000
C274  C     C_R   0.567315 0.597728 0.494496 0.000000
C275  C     C_R   0.519186 0.582077 0.492158 0.000000
C276  C     C_R   0.482526 0.615022 0.481946 0.000000
C277  C     C_R   0.493449 0.664887 0.477357 0.000000
C278  C     C_R   0.540878 0.680739 0.482358 0.000000
C279  C     C_R   0.576447 0.646704 0.491827 0.000000
N93   N     N_R   0.622503 0.656455 0.500509 0.000000
H301  H     H_    0.719017 0.578572 0.579627 0.000000
H302  H     H_    0.746685 0.534914 0.559439 0.000000
H303  H     H_    0.755689 0.601485 0.553696 0.000000
H304  H     H_    0.655503 0.597970 0.553354 0.000000
H305  H     H_    0.711369 0.634454 0.521296 0.000000
H306  H     H_    0.715784 0.571947 0.510123 0.000000
H307  H     H_    0.508459 0.547177 0.500182 0.000000
H308  H     H_    0.445066 0.601837 0.478528 0.000000
H309  H     H_    0.464970 0.692424 0.471277 0.000000
H310  H     H_    0.549515 0.718758 0.478705 0.000000
C280  C     C_3   0.721561 0.562624 0.400759 0.000000
N94   N     N_3   0.681542 0.527072 0.404564 0.000000
C281  C     C_3   0.671603 0.519042 0.430714 0.000000
C282  C     C_R   0.620009 0.500845 0.433533 0.000000
N95   N     N_R   0.589692 0.498364 0.412444 0.000000
C283  C     C_R   0.543192 0.499935 0.421748 0.000000
C284  C     C_R   0.498175 0.508337 0.408850 0.000000
C285  C     C_R   0.454450 0.515834 0.421531 0.000000
C286  C     C_R   0.455810 0.511269 0.446923 0.000000
C287  C     C_R   0.500877 0.499375 0.459539 0.000000
C288  C     C_R   0.545376 0.499611 0.446931 0.000000
N96   N     N_R   0.594134 0.498819 0.455938 0.000000
H311  H     H_    0.718820 0.579565 0.381578 0.000000
H312  H     H_    0.718727 0.593765 0.413365 0.000000
H313  H     H_    0.758297 0.541733 0.403307 0.000000
H314  H     H_    0.698234 0.492729 0.400275 0.000000
H315  H     H_    0.698470 0.489607 0.437527 0.000000
H316  H     H_    0.673979 0.554387 0.440460 0.000000
H317  H     H_    0.497024 0.515570 0.389579 0.000000
H318  H     H_    0.418999 0.524464 0.411707 0.000000
H319  H     H_    0.421254 0.515647 0.456838 0.000000
H320  H     H_    0.499418 0.488207 0.478594 0.000000
C289  C     C_3   0.134482 0.328850 0.497518 0.000000
N97   N     N_3   0.149321 0.379779 0.502297 0.000000
C290  C     C_3   0.123484 0.414177 0.483943 0.000000
C291  C     C_R   0.123681 0.466289 0.492589 0.000000
N98   N     N_R   0.079930 0.485335 0.502936 0.000000
C292  C     C_R   0.099725 0.509505 0.522164 0.000000
C293  C     C_R   0.075526 0.521560 0.543223 0.000000
C294  C     C_R   0.103724 0.538989 0.562752 0.000000
C295  C     C_R   0.155803 0.542760 0.561184 0.000000
C296  C     C_R   0.180274 0.528015 0.540290 0.000000
C297  C     C_R   0.151247 0.510350 0.521373 0.000000
N99   N     N_R   0.168285 0.485285 0.502155 0.000000
H321  H     H_    0.161999 0.301282 0.506976 0.000000
H322  H     H_    0.096293 0.322445 0.504884 0.000000
H323  H     H_    0.133911 0.323394 0.477265 0.000000
H324  H     H_    0.135301 0.387776 0.519630 0.000000
H325  H     H_    0.141878 0.412569 0.465907 0.000000
H326  H     H_    0.083660 0.402979 0.482638 0.000000
H327  H     H_    0.037239 0.511357 0.545657 0.000000
H328  H     H_    0.085364 0.547548 0.579792 0.000000
H329  H     H_    0.177629 0.554611 0.576922 0.000000
H330  H     H_    0.221094 0.527042 0.539688 0.000000
C298  C     C_3   0.021879 0.611260 0.426686 0.000000
N100  N     N_3   0.003647 0.592565 0.450376 0.000000
C299  C     C_3   0.026663 0.616672 0.470586 0.000000
C300  C     C_R   0.997003 0.614488 0.492972 0.000000
N101  N     N_R   0.989923 0.656618 0.506676 0.000000
C301  C     C_R   0.972644 0.636099 0.528156 0.000000
C302  C     C_R   0.958653 0.660762 0.548884 0.000000
C303  C     C_R   0.941388 0.632409 0.568980 0.000000
C304  C     C_R   0.938626 0.580391 0.568172 0.000000
C305  C     C_R   0.952833 0.556112 0.547235 0.000000
C306  C     C_R   0.969474 0.584832 0.527145 0.000000
N102  N     N_R   0.985389 0.569251 0.504967 0.000000
H331  H     H_    0.018826 0.580397 0.413985 0.000000
H332  H     H_    0.999284 0.643444 0.418563 0.000000
H333  H     H_    0.061295 0.621687 0.428208 0.000000
H334  H     H_    0.023772 0.558691 0.452401 0.000000
H335  H     H_    0.060360 0.592849 0.476076 0.000000
H336  H     H_    0.032750 0.656400 0.465430 0.000000
H337  H     H_    0.960608 0.701248 0.549539 0.000000
H338  H     H_    0.929978 0.650924 0.585431 0.000000
H339  H     H_    0.925170 0.558600 0.584031 0.000000
H340  H     H_    0.950486 0.515611 0.546892 0.000000
C307  C     C_3   0.087393 0.366119 0.416350 0.000000
N103  N     N_3   0.052081 0.409180 0.412833 0.000000
C308  C     C_3   0.041386 0.427425 0.437120 0.000000
C309  C     C_R   0.002256 0.468408 0.435278 0.000000
N104  N     N_R   0.979952 0.485886 0.412870 0.000000
C310  C     C_R   0.938286 0.509574 0.420187 0.000000
C311  C     C_R   0.899839 0.529299 0.405138 0.000000
C312  C     C_R   0.864437 0.559788 0.415629 0.000000
C313  C     C_R   0.872026 0.573625 0.439703 0.000000
C314  C     C_R   0.908011 0.548610 0.455201 0.000000
C315  C     C_R   0.938872 0.512962 0.445241 0.000000
N105  N     N_R   0.979700 0.487482 0.455982 0.000000
H341  H     H_    0.121369 0.377117 0.426855 0.000000
H342  H     H_    0.069190 0.334588 0.426648 0.000000
H343  H     H_    0.098845 0.353406 0.397992 0.000000
H344  H     H_    0.018842 0.395812 0.405317 0.000000
H345  H     H_    0.027778 0.396055 0.449333 0.000000
H346  H     H_    0.075174 0.443281 0.444932 0.000000
H347  H     H_    0.897757 0.521925 0.385730 0.000000
H348  H     H_    0.833588 0.576638 0.404325 0.000000
H349  H     H_    0.847155 0.601770 0.446972 0.000000
H350  H     H_    0.913241 0.559481 0.473866 0.000000
C316  C     C_3   0.730726 0.354990 0.173287 0.000000
N106  N     N_3   0.693275 0.329802 0.188425 0.000000
C317  C     C_3   0.690666 0.276804 0.182832 0.000000
C318  C     C_R   0.740725 0.252285 0.185713 0.000000
N107  N     N_R   0.768420 0.238874 0.165405 0.000000
C319  C     C_R   0.814588 0.228258 0.176663 0.000000
C320  C     C_R   0.859152 0.213898 0.166273 0.000000
C321  C     C_R   0.901091 0.202024 0.181619 0.000000
C322  C     C_R   0.898141 0.204477 0.207173 0.000000
C323  C     C_R   0.853483 0.220296 0.217486 0.000000
C324  C     C_R   0.813009 0.233050 0.201832 0.000000
N108  N     N_R   0.766274 0.246457 0.208507 0.000000
H351  H     H_    0.720330 0.395874 0.171105 0.000000
H352  H     H_    0.768593 0.350646 0.182657 0.000000
H353  H     H_    0.732139 0.339634 0.154622 0.000000
H354  H     H_    0.658040 0.347510 0.184373 0.000000
H355  H     H_    0.664126 0.257038 0.195023 0.000000
H356  H     H_    0.679048 0.273501 0.163641 0.000000
H357  H     H_    0.862762 0.215153 0.146761 0.000000
H358  H     H_    0.936582 0.191119 0.173569 0.000000
H359  H     H_    0.931045 0.194849 0.219000 0.000000
H360  H     H_    0.850628 0.223354 0.237174 0.000000
C325  C     C_3   0.623633 0.403511 0.105947 0.000000
N109  N     N_3   0.602295 0.353863 0.109270 0.000000
C326  C     C_3   0.635118 0.324088 0.126797 0.000000
C327  C     C_R   0.625961 0.269015 0.125025 0.000000
N110  N     N_R   0.579004 0.253123 0.116796 0.000000
C328  C     C_R   0.592728 0.217320 0.101407 0.000000
C329  C     C_R   0.562380 0.196819 0.083886 0.000000
C330  C     C_R   0.585964 0.169850 0.066016 0.000000
C331  C     C_R   0.637880 0.160832 0.067174 0.000000
C332  C     C_R   0.666812 0.177301 0.086467 0.000000
C333  C     C_R   0.643710 0.208253 0.102489 0.000000
N111  N     N_R   0.666486 0.238030 0.118497 0.000000
H361  H     H_    0.654223 0.402177 0.092263 0.000000
H362  H     H_    0.593647 0.431246 0.099010 0.000000
H363  H     H_    0.639137 0.415702 0.123889 0.000000
H364  H     H_    0.604272 0.337296 0.092203 0.000000
H365  H     H_    0.674956 0.330369 0.122028 0.000000
H366  H     H_    0.629572 0.336924 0.145519 0.000000
H367  H     H_    0.522272 0.205674 0.082419 0.000000
H368  H     H_    0.564270 0.157091 0.050578 0.000000
H369  H     H_    0.656454 0.142667 0.052388 0.000000
H370  H     H_    0.707103 0.170617 0.086933 0.000000
C334  C     C_3   0.643321 0.160483 0.160782 0.000000
N112  N     N_3   0.688835 0.156696 0.148060 0.000000
C335  C     C_3   0.690143 0.106838 0.139078 0.000000
C336  C     C_R   0.736938 0.103141 0.126498 0.000000
N113  N     N_R   0.765002 0.145908 0.122748 0.000000
C337  C     C_R   0.811375 0.125152 0.119425 0.000000
C338  C     C_R   0.855680 0.149475 0.115683 0.000000
C339  C     C_R   0.900729 0.121263 0.117991 0.000000
C340  C     C_R   0.900339 0.069309 0.122695 0.000000
C341  C     C_R   0.854930 0.044972 0.124227 0.000000
C342  C     C_R   0.810662 0.073471 0.121934 0.000000
N114  N     N_R   0.763223 0.057742 0.125523 0.000000
H371  H     H_    0.613241 0.152434 0.147298 0.000000
H372  H     H_    0.645013 0.132351 0.176432 0.000000
H373  H     H_    0.638486 0.198666 0.167514 0.000000
H374  H     H_    0.717421 0.160910 0.160934 0.000000
H375  H     H_    0.689854 0.077521 0.154472 0.000000
H376  H     H_    0.658507 0.103218 0.125909 0.000000
H377  H     H_    0.855609 0.189202 0.110482 0.000000
H378  H     H_    0.936306 0.139680 0.115878 0.000000
H379  H     H_    0.935671 0.047615 0.124831 0.000000
H380  H     H_    0.854714 0.005487 0.128976 0.000000
C343  C     C_3   0.121800 0.741154 0.427429 0.000000
N115  N     N_3   0.146428 0.702282 0.413753 0.000000
C344  C     C_3   0.111516 0.690255 0.394431 0.000000
C345  C     C_R   0.112382 0.731894 0.375642 0.000000
N116  N     N_R   0.156567 0.751983 0.367235 0.000000
C346  C     C_R   0.139481 0.792040 0.352903 0.000000
C347  C     C_R   0.167143 0.824138 0.338242 0.000000
C348  C     C_R   0.143429 0.867613 0.327908 0.000000
C349  C     C_R   0.093609 0.878688 0.333316 0.000000
C350  C     C_R   0.066380 0.844504 0.347337 0.000000
C351  C     C_R   0.088639 0.799100 0.355323 0.000000
N117  N     N_R   0.069343 0.760234 0.369147 0.000000
H381  H     H_    0.146608 0.748762 0.443197 0.000000
H382  H     H_    0.115033 0.776785 0.416067 0.000000
H383  H     H_    0.085848 0.727610 0.434481 0.000000
H384  H     H_    0.152570 0.669907 0.425139 0.000000
H385  H     H_    0.122289 0.653200 0.387601 0.000000
H386  H     H_    0.072692 0.688134 0.401205 0.000000
H387  H     H_    0.205984 0.815893 0.334444 0.000000
H388  H     H_    0.164421 0.894035 0.316595 0.000000
H389  H     H_    0.075969 0.914449 0.326755 0.000000
H390  H     H_    0.030370 0.855531 0.353371 0.000000
C352  C     C_3   0.972671 0.788376 0.313650 0.000000
N118  N     N_3   0.972762 0.841840 0.318669 0.000000
C353  C     C_3   0.937020 0.857520 0.337383 0.000000
C354  C     C_R   0.911472 0.815673 0.351054 0.000000
N119  N     N_R   0.859914 0.819435 0.354418 0.000000
C355  C     C_R   0.853516 0.782110 0.371315 0.000000
C356  C     C_R   0.811990 0.773460 0.384563 0.000000
C357  C     C_R   0.808342 0.726636 0.396394 0.000000
C358  C     C_R   0.850194 0.694716 0.397851 0.000000
C359  C     C_R   0.896289 0.712373 0.391005 0.000000
C360  C     C_R   0.896333 0.755365 0.376415 0.000000
N120  N     N_R   0.935533 0.775737 0.365105 0.000000
H391  H     H_    0.996346 0.782023 0.297348 0.000000
H392  H     H_    0.989914 0.765985 0.329554 0.000000
H393  H     H_    0.934466 0.775012 0.309498 0.000000
H394  H     H_    0.965692 0.863670 0.302226 0.000000
H395  H     H_    0.955132 0.881426 0.350988 0.000000
H396  H     H_    0.907897 0.882825 0.328154 0.000000
H397  H     H_    0.782102 0.800776 0.383509 0.000000
H398  H     H_    0.773103 0.714057 0.403824 0.000000
H399  H     H_    0.848039 0.658491 0.407310 0.000000
H400  H     H_    0.930222 0.690709 0.395576 0.000000
C361  C     C_3   0.211503 0.381501 0.030109 0.000000
N121  N     N_3   0.236584 0.356756 0.009879 0.000000
C362  C     C_3   0.261091 0.394308 0.994148 0.000000
C363  C     C_R   0.294915 0.421132 0.009729 0.000000
N122  N     N_R   0.330629 0.396852 0.025969 0.000000
C364  C     C_R   0.340393 0.434116 0.041396 0.000000
C365  C     C_R   0.373532 0.432411 0.061468 0.000000
C366  C     C_R   0.375422 0.474235 0.075707 0.000000
C367  C     C_R   0.344161 0.516546 0.069933 0.000000
C368  C     C_R   0.311421 0.518117 0.049471 0.000000
C369  C     C_R   0.311119 0.476863 0.035021 0.000000
N123  N     N_R   0.282721 0.470622 0.014298 0.000000
H401  H     H_    0.237899 0.385911 0.045963 0.000000
H402  H     H_    0.198538 0.420248 0.024662 0.000000
H403  H     H_    0.178959 0.359183 0.036305 0.000000
H404  H     H_    0.209265 0.340688 0.998955 0.000000
H405  H     H_    0.282280 0.378138 0.979061 0.000000
H406  H     H_    0.233276 0.422227 0.985841 0.000000
H407  H     H_    0.398236 0.400265 0.065973 0.000000
H408  H     H_    0.401243 0.473780 0.091597 0.000000
H409  H     H_    0.345649 0.548687 0.081426 0.000000
H410  H     H_    0.287191 0.551049 0.045146 0.000000
C370  C     C_3   0.521829 0.399676 0.053958 0.000000
N124  N     N_3   0.510965 0.360946 0.073018 0.000000
C371  C     C_3   0.490428 0.318177 0.060872 0.000000
C372  C     C_R   0.447049 0.298974 0.075061 0.000000
N125  N     N_R   0.451736 0.274221 0.098287 0.000000
C373  C     C_R   0.403220 0.268224 0.104100 0.000000
C374  C     C_R   0.384926 0.244596 0.125081 0.000000
C375  C     C_R   0.334735 0.254276 0.130387 0.000000
C376  C     C_R   0.307555 0.292051 0.116537 0.000000
C377  C     C_R   0.327803 0.313611 0.095226 0.000000
C378  C     C_R   0.371852 0.292882 0.087042 0.000000
N126  N     N_R   0.397432 0.308598 0.066999 0.000000
H411  H     H_    0.540100 0.431519 0.062708 0.000000
H412  H     H_    0.547923 0.383908 0.040343 0.000000
H413  H     H_    0.486227 0.414421 0.044447 0.000000
H414  H     H_    0.482873 0.375829 0.084060 0.000000
H415  H     H_    0.476248 0.330702 0.042041 0.000000
H416  H     H_    0.520161 0.288114 0.059566 0.000000
H417  H     H_    0.409272 0.221874 0.137874 0.000000
H418  H     H_    0.319203 0.237616 0.147144 0.000000
H419  H     H_    0.271314 0.305659 0.122784 0.000000
H420  H     H_    0.311277 0.347754 0.086217 0.000000
C379  C     C_3   0.114268 0.627544 0.039626 0.000000
N127  N     N_3   0.155140 0.610305 0.024393 0.000000
C380  C     C_3   0.195103 0.645236 0.026689 0.000000
C381  C     C_R   0.231071 0.643085 0.006071 0.000000
N128  N     N_R   0.257699 0.598114 0.002580 0.000000
C382  C     C_R   0.306320 0.614018 0.002386 0.000000
C383  C     C_R   0.351484 0.586436 0.004303 0.000000
C384  C     C_R   0.396405 0.611644 0.005479 0.000000
C385  C     C_R   0.396371 0.663849 0.005387 0.000000
C386  C     C_R   0.351132 0.691328 0.004276 0.000000
C387  C     C_R   0.307165 0.665307 0.003005 0.000000
N129  N     N_R   0.260113 0.685084 0.003096 0.000000
H421  H     H_    0.087872 0.596663 0.042806 0.000000
H422  H     H_    0.129555 0.638172 0.057899 0.000000
H423  H     H_    0.093806 0.660370 0.030110 0.000000
H424  H     H_    0.142635 0.609948 0.005971 0.000000
H425  H     H_    0.179069 0.683813 0.027484 0.000000
H426  H     H_    0.216550 0.635958 0.044382 0.000000
H427  H     H_    0.353505 0.546560 0.007306 0.000000
H428  H     H_    0.431899 0.590177 0.007330 0.000000
H429  H     H_    0.431724 0.683008 0.006682 0.000000
H430  H     H_    0.350594 0.731865 0.004956 0.000000
C388  C     C_3   0.658118 0.302093 0.050477 0.000000
N130  N     N_3   0.703613 0.306253 0.065631 0.000000
C389  C     C_3   0.740304 0.267799 0.058911 0.000000
C390  C     C_R   0.786626 0.271534 0.074462 0.000000
N131  N     N_R   0.828355 0.293918 0.064451 0.000000
C391  C     C_R   0.854678 0.305843 0.084825 0.000000
C392  C     C_R   0.899165 0.330946 0.085659 0.000000
C393  C     C_R   0.916905 0.344978 0.108536 0.000000
C394  C     C_R   0.889025 0.335444 0.129657 0.000000
C395  C     C_R   0.844488 0.309578 0.128332 0.000000
C396  C     C_R   0.829594 0.292261 0.105846 0.000000
N132  N     N_R   0.787551 0.266974 0.100282 0.000000
H431  H     H_    0.636103 0.338442 0.050071 0.000000
H432  H     H_    0.668299 0.293470 0.031353 0.000000
H433  H     H_    0.634732 0.271780 0.058357 0.000000
H434  H     H_    0.694489 0.299151 0.084050 0.000000
H435  H     H_    0.725256 0.229931 0.060050 0.000000
H436  H     H_    0.750414 0.275940 0.039591 0.000000
H437  H     H_    0.919331 0.340246 0.069045 0.000000
H438  H     H_    0.951585 0.365272 0.109814 0.000000
H439  H     H_    0.901818 0.348958 0.147236 0.000000
H440  H     H_    0.821249 0.305782 0.144279 0.000000
C397  C     C_3   0.034442 0.359605 0.043414 0.000000
N133  N     N_3   0.022835 0.386970 0.019759 0.000000
C398  C     C_3   0.977348 0.367126 0.008633 0.000000
C399  C     C_R   0.934313 0.399052 0.014724 0.000000
N134  N     N_R   0.937311 0.451345 0.014132 0.000000
C400  C     C_R   0.895593 0.463741 0.026952 0.000000
C401  C     C_R   0.877597 0.510859 0.032726 0.000000
C402  C     C_R   0.835937 0.514416 0.047581 0.000000
C403  C     C_R   0.813384 0.471263 0.056881 0.000000
C404  C     C_R   0.830792 0.424249 0.050392 0.000000
C405  C     C_R   0.870199 0.421507 0.034395 0.000000
N135  N     N_R   0.891882 0.379405 0.025831 0.000000
H441  H     H_    0.067541 0.376273 0.052488 0.000000
H442  H     H_    0.001672 0.362199 0.055728 0.000000
H443  H     H_    0.044705 0.319721 0.040418 0.000000
H444  H     H_    0.053150 0.380638 0.008286 0.000000
H445  H     H_    0.978533 0.369523 0.988329 0.000000
H446  H     H_    0.971581 0.327894 0.015755 0.000000
H447  H     H_    0.894531 0.544665 0.026114 0.000000
H448  H     H_    0.821684 0.551155 0.052481 0.000000
H449  H     H_    0.782091 0.474361 0.069292 0.000000
H450  H     H_    0.814852 0.390843 0.058598 0.000000
C406  C     C_3   0.166041 0.406239 0.949068 0.000000
N136  N     N_3   0.157171 0.454677 0.959020 0.000000
C407  C     C_3   0.127071 0.446153 0.980325 0.000000
C408  C     C_R   0.113782 0.494369 0.990916 0.000000
N137  N     N_R   0.155582 0.511362 0.003666 0.000000
C409  C     C_R   0.139436 0.507539 0.027172 0.000000
C410  C     C_R   0.168533 0.508189 0.048592 0.000000
C411  C     C_R   0.145681 0.497389 0.070944 0.000000
C412  C     C_R   0.095409 0.483877 0.071327 0.000000
C413  C     C_R   0.067025 0.482736 0.049448 0.000000
C414  C     C_R   0.089014 0.497293 0.027637 0.000000
N138  N     N_R   0.069350 0.494243 0.004464 0.000000
H451  H     H_    0.134596 0.400311 0.936451 0.000000
H452  H     H_    0.202505 0.405742 0.939363 0.000000
H453  H     H_    0.165159 0.376324 0.963992 0.000000
H454  H     H_    0.133723 0.475058 0.946311 0.000000
H455  H     H_    0.096181 0.421454 0.977175 0.000000
H456  H     H_    0.149189 0.424075 0.994510 0.000000
H457  H     H_    0.208062 0.516087 0.047982 0.000000
H458  H     H_    0.167652 0.497420 0.088126 0.000000
H459  H     H_    0.078719 0.472701 0.088781 0.000000
H460  H     H_    0.029974 0.467177 0.049403 0.000000
C415  C     C_3   0.835558 0.643673 0.965891 0.000000
N139  N     N_3   0.871194 0.628098 0.986042 0.000000
C416  C     C_3   0.922434 0.633745 0.977288 0.000000
C417  C     C_R   0.959774 0.624948 0.998485 0.000000
N140  N     N_R   0.970791 0.577996 0.010010 0.000000
C418  C     C_R   0.984110 0.590918 0.033182 0.000000
C419  C     C_R   0.984177 0.561228 0.054799 0.000000
C420  C     C_R   0.995096 0.583205 0.076954 0.000000
C421  C     C_R   0.003196 0.634633 0.077336 0.000000
C422  C     C_R   0.998648 0.664828 0.055640 0.000000
C423  C     C_R   0.988641 0.641987 0.033946 0.000000
N141  N     N_R   0.976927 0.664697 0.011670 0.000000
H461  H     H_    0.849843 0.631426 0.947947 0.000000
H462  H     H_    0.798626 0.626435 0.969451 0.000000
H463  H     H_    0.830077 0.685362 0.964954 0.000000
H464  H     H_    0.865341 0.590862 0.991675 0.000000
H465  H     H_    0.931102 0.608909 0.962178 0.000000
H466  H     H_    0.924233 0.673008 0.970104 0.000000
H467  H     H_    0.972191 0.522900 0.054925 0.000000
H468  H     H_    0.995581 0.560441 0.094201 0.000000
H469  H     H_    0.010409 0.651551 0.094830 0.000000
H470  H     H_    0.000028 0.705120 0.055991 0.000000
C424  C     C_3   0.934985 0.285087 0.261661 0.000000
N142  N     N_3   0.888669 0.272934 0.274277 0.000000
C425  C     C_3   0.856743 0.318598 0.274263 0.000000
C426  C     C_R   0.806838 0.307399 0.285179 0.000000
N143  N     N_R   0.771954 0.275280 0.274480 0.000000
C427  C     C_R   0.734872 0.279453 0.290568 0.000000
C428  C     C_R   0.691952 0.253756 0.291282 0.000000
C429  C     C_R   0.649916 0.280656 0.298015 0.000000
C430  C     C_R   0.653510 0.330112 0.303568 0.000000
C431  C     C_R   0.700136 0.350142 0.306883 0.000000
C432  C     C_R   0.740958 0.318361 0.305033 0.000000
N144  N     N_R   0.788508 0.332682 0.305594 0.000000
H471  H     H_    0.960575 0.251017 0.262288 0.000000
H472  H     H_    0.926210 0.297141 0.241965 0.000000
H473  H     H_    0.954176 0.315711 0.271042 0.000000
H474  H     H_    0.898733 0.262119 0.292661 0.000000
H475  H     H_    0.875621 0.346689 0.285470 0.000000
H476  H     H_    0.850247 0.334457 0.254954 0.000000
H477  H     H_    0.690422 0.216948 0.283994 0.000000
H478  H     H_    0.613396 0.267093 0.294722 0.000000
H479  H     H_    0.619420 0.351770 0.305323 0.000000
H480  H     H_    0.704662 0.389371 0.309560 0.000000
C433  C     C_3   0.952907 0.323813 0.382016 0.000000
N145  N     N_3   0.901231 0.343444 0.383546 0.000000
C434  C     C_3   0.900931 0.397445 0.386840 0.000000
C435  C     C_R   0.900277 0.424207 0.362082 0.000000
N146  N     N_R   0.865040 0.413999 0.343566 0.000000
C436  C     C_R   0.881279 0.442081 0.324151 0.000000
C437  C     C_R   0.859852 0.446333 0.300674 0.000000
C438  C     C_R   0.882650 0.477144 0.283077 0.000000
C439  C     C_R   0.925528 0.503041 0.289371 0.000000
C440  C     C_R   0.946140 0.498496 0.313289 0.000000
C441  C     C_R   0.923399 0.467798 0.330592 0.000000
N147  N     N_R   0.936692 0.458385 0.354893 0.000000
H481  H     H_    0.952227 0.284105 0.376533 0.000000
H482  H     H_    0.973373 0.346218 0.367902 0.000000
H483  H     H_    0.972473 0.324435 0.400401 0.000000
H484  H     H_    0.886247 0.326492 0.399368 0.000000
H485  H     H_    0.866387 0.408890 0.396592 0.000000
H486  H     H_    0.934430 0.407172 0.397916 0.000000
H487  H     H_    0.826221 0.426425 0.296051 0.000000
H488  H     H_    0.866791 0.481368 0.264375 0.000000
H489  H     H_    0.942781 0.527360 0.275506 0.000000
H490  H     H_    0.978308 0.519343 0.318092 0.000000
C442  C     C_3   0.750012 0.543726 0.300264 0.000000
N148  N     N_3   0.726064 0.501257 0.312755 0.000000
C443  C     C_3   0.735236 0.502353 0.339460 0.000000
C444  C     C_R   0.711915 0.457801 0.351876 0.000000
N149  N     N_R   0.665447 0.459357 0.363747 0.000000
C445  C     C_R   0.659754 0.410610 0.369946 0.000000
C446  C     C_R   0.620886 0.390320 0.382791 0.000000
C447  C     C_R   0.617402 0.338892 0.382838 0.000000
C448  C     C_R   0.649341 0.310498 0.369099 0.000000
C449  C     C_R   0.691993 0.330385 0.359812 0.000000
C450  C     C_R   0.697201 0.381367 0.360838 0.000000
N150  N     N_R   0.733329 0.409615 0.350549 0.000000
H491  H     H_    0.729530 0.553709 0.282392 0.000000
H492  H     H_    0.749225 0.576996 0.311891 0.000000
H493  H     H_    0.789470 0.532760 0.296128 0.000000
H494  H     H_    0.743609 0.468453 0.306741 0.000000
H495  H     H_    0.776506 0.500593 0.343681 0.000000
H496  H     H_    0.718280 0.537168 0.346426 0.000000
H497  H     H_    0.592614 0.413243 0.391361 0.000000
H498  H     H_    0.588400 0.320380 0.392400 0.000000
H499  H     H_    0.640555 0.272757 0.365162 0.000000
H500  H     H_    0.717733 0.305980 0.350674 0.000000
C451  C     C_3   0.606888 0.451456 0.295020 0.000000
N151  N     N_3   0.565566 0.458542 0.311698 0.000000
C452  C     C_3   0.557230 0.413823 0.327945 0.000000
C453  C     C_R   0.523657 0.431402 0.347418 0.000000
N152  N     N_R   0.536873 0.478540 0.354722 0.000000
C454  C     C_R   0.497277 0.507767 0.345465 0.000000
C455  C     C_R   0.495157 0.559256 0.341187 0.000000
C456  C     C_R   0.453920 0.580663 0.327698 0.000000
C457  C     C_R   0.416242 0.550788 0.318813 0.000000
C458  C     C_R   0.418755 0.499180 0.323728 0.000000
C459  C     C_R   0.459244 0.478494 0.337620 0.000000
N153  N     N_R   0.472680 0.429103 0.341063 0.000000
H501  H     H_    0.610057 0.486223 0.282889 0.000000
H502  H     H_    0.642413 0.445209 0.305978 0.000000
H503  H     H_    0.599321 0.420151 0.283035 0.000000
H504  H     H_    0.533004 0.467155 0.300946 0.000000
H505  H     H_    0.537804 0.385127 0.317541 0.000000
H506  H     H_    0.593270 0.398313 0.335831 0.000000
H507  H     H_    0.524872 0.582304 0.347525 0.000000
H508  H     H_    0.450029 0.620969 0.324482 0.000000
H509  H     H_    0.384906 0.567955 0.307785 0.000000
H510  H     H_    0.392235 0.476236 0.314650 0.000000
C460  C     C_3   0.498616 0.629099 0.418751 0.000000
N154  N     N_3   0.527076 0.614932 0.397452 0.000000
C461  C     C_3   0.579849 0.621895 0.403550 0.000000
C462  C     C_R   0.609493 0.618575 0.380911 0.000000
N155  N     N_R   0.613924 0.576400 0.367234 0.000000
C463  C     C_R   0.629380 0.595196 0.345259 0.000000
C464  C     C_R   0.629168 0.570952 0.323522 0.000000
C465  C     C_R   0.635203 0.599425 0.301648 0.000000
C466  C     C_R   0.639934 0.651335 0.302024 0.000000
C467  C     C_R   0.639052 0.675091 0.324271 0.000000
C468  C     C_R   0.635410 0.645785 0.345925 0.000000
N156  N     N_R   0.623707 0.661608 0.368546 0.000000
H511  H     H_    0.458047 0.622752 0.415112 0.000000
H512  H     H_    0.512241 0.605483 0.435187 0.000000
H513  H     H_    0.503780 0.669380 0.422368 0.000000
H514  H     H_    0.516735 0.640391 0.382642 0.000000
H515  H     H_    0.583484 0.660272 0.409932 0.000000
H516  H     H_    0.593917 0.594651 0.418374 0.000000
H517  H     H_    0.622722 0.531199 0.323630 0.000000
H518  H     H_    0.634523 0.581451 0.284118 0.000000
H519  H     H_    0.642452 0.673644 0.284757 0.000000
H520  H     H_    0.637567 0.715696 0.324237 0.000000
C469  C     C_3   0.904327 0.172065 0.674314 0.000000
N157  N     N_3   0.865589 0.202451 0.685752 0.000000
C470  C     C_3   0.816015 0.182046 0.680801 0.000000
C471  C     C_R   0.777351 0.223240 0.681930 0.000000
N158  N     N_R   0.773887 0.251522 0.703083 0.000000
C472  C     C_R   0.774851 0.298555 0.692124 0.000000
C473  C     C_R   0.779891 0.343417 0.703461 0.000000
C474  C     C_R   0.768581 0.387738 0.689347 0.000000
C475  C     C_R   0.750952 0.386246 0.664850 0.000000
C476  C     C_R   0.748092 0.340675 0.653537 0.000000
C477  C     C_R   0.764308 0.297747 0.667013 0.000000
N159  N     N_R   0.766215 0.250142 0.659462 0.000000
H521  H     H_    0.940659 0.174581 0.684805 0.000000
H522  H     H_    0.893505 0.131979 0.674356 0.000000
H523  H     H_    0.910123 0.187581 0.655224 0.000000
H524  H     H_    0.866210 0.238647 0.677173 0.000000
H525  H     H_    0.814764 0.169513 0.661862 0.000000
H526  H     H_    0.808107 0.149692 0.693463 0.000000
H527  H     H_    0.791396 0.344018 0.722749 0.000000
H528  H     H_    0.771108 0.423664 0.697809 0.000000
H529  H     H_    0.739416 0.420975 0.654544 0.000000
H530  H     H_    0.732581 0.338665 0.634955 0.000000
C478  C     C_3   0.688174 0.138755 0.819647 0.000000
N160  N     N_3   0.715386 0.152081 0.797456 0.000000
C479  C     C_3   0.696774 0.120693 0.778394 0.000000
C480  C     C_R   0.735808 0.115247 0.759555 0.000000
N161  N     N_R   0.760953 0.156506 0.750035 0.000000
C481  C     C_R   0.804437 0.133738 0.743369 0.000000
C482  C     C_R   0.847290 0.156116 0.735734 0.000000
C483  C     C_R   0.888749 0.125509 0.730638 0.000000
C484  C     C_R   0.885205 0.073408 0.731451 0.000000
C485  C     C_R   0.841878 0.051202 0.739763 0.000000
C486  C     C_R   0.802164 0.082421 0.745793 0.000000
N162  N     N_R   0.756627 0.068585 0.753590 0.000000
H531  H     H_    0.686042 0.172154 0.830847 0.000000
H532  H     H_    0.649162 0.127508 0.815042 0.000000
H533  H     H_    0.708026 0.107143 0.830258 0.000000
H534  H     H_    0.753685 0.143231 0.801039 0.000000
H535  H     H_    0.688574 0.082911 0.786719 0.000000
H536  H     H_    0.662277 0.138756 0.769764 0.000000
H537  H     H_    0.847088 0.196290 0.732115 0.000000
H538  H     H_    0.923582 0.142315 0.725070 0.000000
H539  H     H_    0.917049 0.050001 0.726244 0.000000
H540  H     H_    0.838951 0.010830 0.740755 0.000000
C487  C     C_3   0.903342 0.286013 0.762708 0.000000
N163  N     N_3   0.884938 0.235065 0.765396 0.000000
C488  C     C_3   0.854421 0.228124 0.787334 0.000000
C489  C     C_R   0.815418 0.269588 0.788310 0.000000
N164  N     N_R   0.777762 0.277395 0.769811 0.000000
C490  C     C_R   0.761757 0.325073 0.773713 0.000000
C491  C     C_R   0.726648 0.354116 0.759757 0.000000
C492  C     C_R   0.719206 0.404172 0.765026 0.000000
C493  C     C_R   0.748517 0.424759 0.783332 0.000000
C494  C     C_R   0.783684 0.394890 0.797298 0.000000
C495  C     C_R   0.787560 0.344203 0.793309 0.000000
N165  N     N_R   0.820265 0.309150 0.804334 0.000000
H541  H     H_    0.873392 0.312645 0.754572 0.000000
H542  H     H_    0.917101 0.297936 0.780847 0.000000
H543  H     H_    0.935413 0.286197 0.749856 0.000000
H544  H     H_    0.916472 0.210363 0.767783 0.000000
H545  H     H_    0.835840 0.191284 0.787192 0.000000
H546  H     H_    0.880128 0.227688 0.803370 0.000000
H547  H     H_    0.706224 0.338844 0.744767 0.000000
H548  H     H_    0.692114 0.427888 0.754041 0.000000
H549  H     H_    0.744964 0.464753 0.786202 0.000000
H550  H     H_    0.810498 0.412438 0.808897 0.000000
C496  C     C_3   0.644778 0.312011 0.798978 0.000000
N166  N     N_3   0.663413 0.262529 0.792303 0.000000
C497  C     C_3   0.620713 0.234230 0.783661 0.000000
C498  C     C_R   0.617206 0.237300 0.756130 0.000000
N167  N     N_R   0.658881 0.250910 0.741762 0.000000
C499  C     C_R   0.634414 0.281709 0.724071 0.000000
C500  C     C_R   0.654314 0.312330 0.706120 0.000000
C501  C     C_R   0.623890 0.345948 0.691670 0.000000
C502  C     C_R   0.573242 0.350591 0.696531 0.000000
C503  C     C_R   0.553448 0.318920 0.714563 0.000000
C504  C     C_R   0.583395 0.281957 0.726407 0.000000
N168  N     N_R   0.569673 0.250127 0.744979 0.000000
H551  H     H_    0.676510 0.332908 0.806834 0.000000
H552  H     H_    0.629021 0.333313 0.782167 0.000000
H553  H     H_    0.615973 0.308353 0.813494 0.000000
H554  H     H_    0.678020 0.244679 0.808697 0.000000
H555  H     H_    0.623091 0.195174 0.791129 0.000000
H556  H     H_    0.585068 0.250898 0.790270 0.000000
H557  H     H_    0.692825 0.313123 0.704852 0.000000
H558  H     H_    0.640430 0.371527 0.678127 0.000000
H559  H     H_    0.550124 0.380633 0.687298 0.000000
H560  H     H_    0.517918 0.327607 0.722140 0.000000
C505  C     C_3   0.595196 0.381912 0.617834 0.000000
N169  N     N_3   0.629247 0.337729 0.620730 0.000000
C506  C     C_3   0.613349 0.301398 0.603077 0.000000
C507  C     C_R   0.616003 0.249964 0.615517 0.000000
N170  N     N_R   0.662890 0.227890 0.623161 0.000000
C508  C     C_R   0.649918 0.202185 0.643635 0.000000
C509  C     C_R   0.683611 0.184337 0.660974 0.000000
C510  C     C_R   0.671047 0.187160 0.684981 0.000000
C511  C     C_R   0.622080 0.197654 0.690422 0.000000
C512  C     C_R   0.586304 0.208694 0.672340 0.000000
C513  C     C_R   0.600517 0.208801 0.648467 0.000000
N171  N     N_R   0.575436 0.232996 0.629539 0.000000
H561  H     H_    0.591913 0.395274 0.597987 0.000000
H562  H     H_    0.557380 0.372506 0.624840 0.000000
H563  H     H_    0.610501 0.412422 0.628832 0.000000
H564  H     H_    0.624666 0.321738 0.638601 0.000000
H565  H     H_    0.573760 0.310593 0.596896 0.000000
H566  H     H_    0.639244 0.302907 0.587256 0.000000
H567  H     H_    0.720558 0.173924 0.656006 0.000000
H568  H     H_    0.699308 0.181279 0.699597 0.000000
H569  H     H_    0.611629 0.197018 0.709113 0.000000
H570  H     H_    0.550906 0.223089 0.677525 0.000000
C514  C     C_3   0.887933 0.288813 0.612125 0.000000
N172  N     N_3   0.838402 0.306372 0.619924 0.000000
C515  C     C_3   0.813908 0.338057 0.599915 0.000000
C516  C     C_R   0.788195 0.306164 0.581791 0.000000
N173  N     N_R   0.773759 0.257971 0.589830 0.000000
C517  C     C_R   0.787341 0.230982 0.570127 0.000000
C518  C     C_R   0.786061 0.179919 0.567094 0.000000
C519  C     C_R   0.812028 0.159992 0.547758 0.000000
C520  C     C_R   0.836982 0.190864 0.531112 0.000000
C521  C     C_R   0.833837 0.242318 0.532819 0.000000
C522  C     C_R   0.807244 0.261260 0.551930 0.000000
N174  N     N_R   0.802871 0.309859 0.557057 0.000000
H571  H     H_    0.906299 0.264682 0.627409 0.000000
H572  H     H_    0.884127 0.266094 0.595562 0.000000
H573  H     H_    0.912358 0.321322 0.608148 0.000000
H574  H     H_    0.845131 0.329525 0.634640 0.000000
H575  H     H_    0.786634 0.364694 0.607734 0.000000
H576  H     H_    0.842967 0.360067 0.590114 0.000000
H577  H     H_    0.765930 0.155067 0.578817 0.000000
H578  H     H_    0.814779 0.119775 0.546136 0.000000
H579  H     H_    0.859404 0.174613 0.517016 0.000000
H580  H     H_    0.855854 0.266316 0.520941 0.000000
C523  C     C_3   0.603599 0.117363 0.601528 0.000000
N175  N     N_3   0.645777 0.103141 0.617712 0.000000
C524  C     C_3   0.689619 0.112778 0.603606 0.000000
C525  C     C_R   0.734632 0.102171 0.619176 0.000000
N176  N     N_R   0.765043 0.142580 0.622253 0.000000
C526  C     C_R   0.811331 0.119991 0.622402 0.000000
C527  C     C_R   0.856402 0.143344 0.619643 0.000000
C528  C     C_R   0.899831 0.113148 0.618351 0.000000
C529  C     C_R   0.897080 0.060849 0.619436 0.000000
C530  C     C_R   0.850810 0.038148 0.621170 0.000000
C531  C     C_R   0.808144 0.068437 0.622327 0.000000
N177  N     N_R   0.759374 0.054516 0.621395 0.000000
H581  H     H_    0.572292 0.092347 0.605047 0.000000
H582  H     H_    0.593140 0.155332 0.606161 0.000000
H583  H     H_    0.613831 0.116622 0.581894 0.000000
H584  H     H_    0.644886 0.065306 0.622548 0.000000
H585  H     H_    0.692395 0.091174 0.586881 0.000000
H586  H     H_    0.688724 0.153201 0.597352 0.000000
H587  H     H_    0.857658 0.184027 0.618214 0.000000
H588  H     H_    0.936078 0.130381 0.616310 0.000000
H589  H     H_    0.931217 0.037684 0.618084 0.000000
H590  H     H_    0.848367 0.998304 0.620167 0.000000
C532  C     C_3   0.668521 0.098305 0.718994 0.000000
N178  N     N_3   0.661894 0.054236 0.734964 0.000000
C533  C     C_3   0.622735 0.022508 0.727001 0.000000
C534  C     C_R   0.618712 0.989897 0.748500 0.000000
N179  N     N_R   0.663074 0.969796 0.759016 0.000000
C535  C     C_R   0.645882 0.932103 0.773934 0.000000
C536  C     C_R   0.673828 0.894691 0.787149 0.000000
C537  C     C_R   0.648020 0.856528 0.799260 0.000000
C538  C     C_R   0.595563 0.855395 0.797301 0.000000
C539  C     C_R   0.567933 0.892954 0.783609 0.000000
C540  C     C_R   0.593760 0.932187 0.772787 0.000000
N180  N     N_R   0.574554 0.971455 0.757958 0.000000
H591  H     H_    0.664252 0.132621 0.729252 0.000000
H592  H     H_    0.707116 0.097573 0.712348 0.000000
H593  H     H_    0.641316 0.101645 0.704014 0.000000
H594  H     H_    0.649050 0.065544 0.751743 0.000000
H595  H     H_    0.585973 0.041422 0.722754 0.000000
H596  H     H_    0.636423 0.998760 0.712223 0.000000
H597  H     H_    0.714557 0.893801 0.787687 0.000000
H598  H     H_    0.669007 0.826505 0.809755 0.000000
H599  H     H_    0.576149 0.824487 0.806291 0.000000
H600  H     H_    0.527454 0.890899 0.781457 0.000000
C541  C     C_3   0.802659 0.055189 0.832315 0.000000
N181  N     N_3   0.776909 0.047781 0.809051 0.000000
C542  C     C_3   0.753351 0.999507 0.811337 0.000000
C543  C     C_R   0.787643 0.962286 0.800600 0.000000
N182  N     N_R   0.785897 0.954436 0.775626 0.000000
C544  C     C_R   0.826904 0.923941 0.772863 0.000000
C545  C     C_R   0.847100 0.908363 0.751176 0.000000
C546  C     C_R   0.892397 0.880659 0.752588 0.000000
C547  C     C_R   0.917785 0.871064 0.775246 0.000000
C548  C     C_R   0.898148 0.889211 0.796677 0.000000
C549  C     C_R   0.851943 0.914589 0.795154 0.000000
N183  N     N_R   0.828799 0.939379 0.813269 0.000000
H601  H     H_    0.827719 0.087501 0.829580 0.000000
H602  H     H_    0.774310 0.061311 0.846620 0.000000
H603  H     H_    0.825729 0.021437 0.838221 0.000000
H604  H     H_    0.805100 0.044842 0.795984 0.000000
H605  H     H_    0.745914 0.988858 0.830968 0.000000
H606  H     H_    0.717046 0.001494 0.800607 0.000000
H607  H     H_    0.830012 0.918911 0.733351 0.000000
H608  H     H_    0.909031 0.867987 0.735795 0.000000
H609  H     H_    0.954101 0.850979 0.776027 0.000000
H610  H     H_    0.919960 0.885497 0.813669 0.000000
C550  C     C_3   0.695428 0.054893 0.668009 0.000000
N184  N     N_3   0.746578 0.072474 0.669628 0.000000
C551  C     C_3   0.778317 0.040402 0.686129 0.000000
C552  C     C_R   0.759596 0.989166 0.689193 0.000000
N185  N     N_R   0.755769 0.957823 0.669452 0.000000
C553  C     C_R   0.752216 0.912497 0.681859 0.000000
C554  C     C_R   0.752521 0.865577 0.672149 0.000000
C555  C     C_R   0.744671 0.824232 0.688224 0.000000
C556  C     C_R   0.736660 0.830320 0.713322 0.000000
C557  C     C_R   0.737406 0.877739 0.722900 0.000000
C558  C     C_R   0.746252 0.918168 0.706846 0.000000
N186  N     N_R   0.750412 0.966822 0.712528 0.000000
H611  H     H_    0.682406 0.037533 0.685327 0.000000
H612  H     H_    0.669869 0.087540 0.663054 0.000000
H613  H     H_    0.692190 0.027677 0.653624 0.000000
H614  H     H_    0.745265 0.107183 0.677437 0.000000
H615  H     H_    0.817401 0.039047 0.679152 0.000000
H616  H     H_    0.778241 0.056777 0.704007 0.000000
H617  H     H_    0.757215 0.861159 0.652528 0.000000
H618  H     H_    0.744005 0.786894 0.681108 0.000000
H619  H     H_    0.730196 0.797630 0.725524 0.000000
H620  H     H_    0.732206 0.882573 0.742426 0.000000
C559  C     C_3   0.918153 0.261779 0.901760 0.000000
N187  N     N_3   0.871976 0.271838 0.914164 0.000000
C560  C     C_3   0.830192 0.245779 0.903689 0.000000
C561  C     C_R   0.795666 0.283465 0.889775 0.000000
N188  N     N_R   0.756408 0.302436 0.902844 0.000000
C562  C     C_R   0.749234 0.349468 0.892624 0.000000
C563  C     C_R   0.719743 0.388097 0.901224 0.000000
C564  C     C_R   0.718776 0.434324 0.888098 0.000000
C565  C     C_R   0.748686 0.441436 0.867526 0.000000
C566  C     C_R   0.779460 0.402309 0.859859 0.000000
C567  C     C_R   0.778250 0.356067 0.872328 0.000000
N189  N     N_R   0.808591 0.314851 0.869437 0.000000
H621  H     H_    0.916055 0.282354 0.883605 0.000000
H622  H     H_    0.949649 0.278628 0.911861 0.000000
H623  H     H_    0.924857 0.220643 0.901455 0.000000
H624  H     H_    0.863103 0.309308 0.909768 0.000000
H625  H     H_    0.843159 0.213932 0.894044 0.000000
H626  H     H_    0.808619 0.229473 0.919274 0.000000
H627  H     H_    0.697833 0.382671 0.917612 0.000000
H628  H     H_    0.695878 0.465462 0.894348 0.000000
H629  H     H_    0.750016 0.478492 0.858233 0.000000
H630  H     H_    0.807990 0.409799 0.846757 0.000000
C568  C     C_3   0.021645 0.268881 0.796570 0.000000
N190  N     N_3   0.979711 0.245034 0.808934 0.000000
C569  C     C_3   0.990715 0.243187 0.835407 0.000000
C570  C     C_R   0.946171 0.224293 0.849086 0.000000
N191  N     N_R   0.899069 0.247516 0.845012 0.000000
C571  C     C_R   0.868437 0.209800 0.850423 0.000000
C572  C     C_R   0.816760 0.210785 0.847385 0.000000
C573  C     C_R   0.791752 0.170989 0.857988 0.000000
C574  C     C_R   0.818381 0.132526 0.871373 0.000000
C575  C     C_R   0.870799 0.131480 0.873137 0.000000
C576  C     C_R   0.894867 0.169732 0.861428 0.000000
N192  N     N_R   0.944752 0.177364 0.862032 0.000000
H631  H     H_    0.018331 0.263631 0.776335 0.000000
H632  H     H_    0.020599 0.309915 0.799720 0.000000
H633  H     H_    0.058108 0.251426 0.803810 0.000000
H634  H     H_    0.979077 0.207829 0.803597 0.000000
H635  H     H_    0.023534 0.216843 0.838941 0.000000
H636  H     H_    0.998483 0.281924 0.840831 0.000000
H637  H     H_    0.795758 0.242386 0.838378 0.000000
H638  H     H_    0.751237 0.171256 0.857293 0.000000
H639  H     H_    0.797050 0.102706 0.879498 0.000000
H640  H     H_    0.892860 0.104585 0.884620 0.000000
C577  C     C_3   0.860036 0.398189 0.925440 0.000000
N193  N     N_3   0.862011 0.400292 0.898440 0.000000
C578  C     C_3   0.914453 0.398345 0.891298 0.000000
C579  C     C_R   0.919714 0.411969 0.864426 0.000000
N194  N     N_R   0.903763 0.382861 0.844815 0.000000
C580  C     C_R   0.920833 0.410491 0.825132 0.000000
C581  C     C_R   0.915020 0.401455 0.800476 0.000000
C582  C     C_R   0.935824 0.434746 0.783212 0.000000
C583  C     C_R   0.961864 0.476251 0.790790 0.000000
C584  C     C_R   0.966785 0.485426 0.815751 0.000000
C585  C     C_R   0.945493 0.452229 0.832461 0.000000
N195  N     N_R   0.945626 0.454950 0.857245 0.000000
H641  H     H_    0.820925 0.391002 0.931296 0.000000
H642  H     H_    0.886413 0.368701 0.933396 0.000000
H643  H     H_    0.872679 0.432981 0.933104 0.000000
H644  H     H_    0.845864 0.434798 0.891869 0.000000
H645  H     H_    0.934485 0.426708 0.901371 0.000000
H646  H     H_    0.932729 0.361173 0.896097 0.000000
H647  H     H_    0.893857 0.370246 0.794668 0.000000
H648  H     H_    0.931610 0.428452 0.763631 0.000000
H649  H     H_    0.977994 0.501789 0.777081 0.000000
H650  H     H_    0.986629 0.517605 0.821889 0.000000
C586  C     C_3   0.347909 0.193928 0.677637 0.000000
N196  N     N_3   0.392610 0.171272 0.666981 0.000000
C587  C     C_3   0.434379 0.168004 0.685353 0.000000
C588  C     C_R   0.460692 0.217387 0.686899 0.000000
N197  N     N_R   0.467398 0.246321 0.665074 0.000000
C589  C     C_R   0.458194 0.293266 0.672471 0.000000
C590  C     C_R   0.461046 0.337654 0.658670 0.000000
C591  C     C_R   0.445801 0.381698 0.669490 0.000000
C592  C     C_R   0.429045 0.380263 0.693796 0.000000
C593  C     C_R   0.430431 0.335239 0.708138 0.000000
C594  C     C_R   0.447877 0.292455 0.697245 0.000000
N198  N     N_R   0.456794 0.245760 0.708011 0.000000
H651  H     H_    0.320433 0.206181 0.662449 0.000000
H652  H     H_    0.330066 0.165499 0.690073 0.000000
H653  H     H_    0.357811 0.227263 0.688079 0.000000
H654  H     H_    0.401562 0.193050 0.651159 0.000000
H655  H     H_    0.419680 0.156227 0.703145 0.000000
H656  H     H_    0.459553 0.136609 0.681239 0.000000
H657  H     H_    0.475707 0.337874 0.640242 0.000000
H658  H     H_    0.446754 0.417448 0.658929 0.000000
H659  H     H_    0.416794 0.414906 0.701881 0.000000
H660  H     H_    0.420189 0.334179 0.727440 0.000000
C595  C     C_3   0.539644 0.128672 0.719179 0.000000
N199  N     N_3   0.576268 0.124322 0.739771 0.000000
C596  C     C_3   0.556151 0.109844 0.763416 0.000000
C597  C     C_R   0.502075 0.112694 0.761348 0.000000
N200  N     N_R   0.474340 0.157200 0.755801 0.000000
C598  C     C_R   0.427700 0.139637 0.752692 0.000000
C599  C     C_R   0.385295 0.165737 0.743515 0.000000
C600  C     C_R   0.340712 0.140376 0.742211 0.000000
C601  C     C_R   0.339170 0.090982 0.751702 0.000000
C602  C     C_R   0.383052 0.064970 0.760090 0.000000
C603  C     C_R   0.427744 0.088757 0.757241 0.000000
N201  N     N_R   0.475447 0.069354 0.759887 0.000000
H661  H     H_    0.521194 0.166480 0.718159 0.000000
H662  H     H_    0.560565 0.126772 0.702163 0.000000
H663  H     H_    0.513729 0.096888 0.718610 0.000000
H664  H     H_    0.589529 0.159388 0.741917 0.000000
H665  H     H_    0.568357 0.070536 0.768767 0.000000
H666  H     H_    0.569163 0.135224 0.777699 0.000000
H667  H     H_    0.387312 0.204279 0.736210 0.000000
H668  H     H_    0.306518 0.159759 0.734863 0.000000
H669  H     H_    0.303887 0.072092 0.751269 0.000000
H670  H     H_    0.381822 0.026816 0.767804 0.000000
C604  C     C_3   0.340621 0.158400 0.803099 0.000000
N202  N     N_3   0.383177 0.191760 0.802932 0.000000
C605  C     C_3   0.369268 0.237500 0.787975 0.000000
C606  C     C_R   0.408921 0.274493 0.789405 0.000000
N203  N     N_R   0.405309 0.309550 0.807384 0.000000
C607  C     C_R   0.447890 0.334887 0.804135 0.000000
C608  C     C_R   0.466235 0.371205 0.818883 0.000000
C609  C     C_R   0.508445 0.396217 0.811129 0.000000
C610  C     C_R   0.533574 0.381444 0.790383 0.000000
C611  C     C_R   0.517720 0.340770 0.777520 0.000000
C612  C     C_R   0.474138 0.317810 0.784437 0.000000
N204  N     N_R   0.451595 0.277797 0.774538 0.000000
H671  H     H_    0.318613 0.163518 0.819873 0.000000
H672  H     H_    0.314676 0.167465 0.786978 0.000000
H673  H     H_    0.354776 0.118589 0.803255 0.000000
H674  H     H_    0.414405 0.173935 0.795484 0.000000
H675  H     H_    0.356436 0.232614 0.768981 0.000000
H676  H     H_    0.337102 0.255054 0.796277 0.000000
H677  H     H_    0.446818 0.381716 0.835339 0.000000
H678  H     H_    0.521824 0.427663 0.821099 0.000000
H679  H     H_    0.566641 0.401283 0.784524 0.000000
H680  H     H_    0.539059 0.329042 0.762375 0.000000
C613  C     C_3   0.870336 0.067684 0.937769 0.000000
N205  N     N_3   0.825720 0.049717 0.925443 0.000000
C614  C     C_3   0.842787 0.016209 0.906759 0.000000
C615  C     C_R   0.801084 0.987830 0.896724 0.000000
N206  N     N_R   0.760141 0.980213 0.911181 0.000000
C616  C     C_R   0.738501 0.941063 0.900781 0.000000
C617  C     C_R   0.701572 0.910871 0.910270 0.000000
C618  C     C_R   0.682592 0.874623 0.895429 0.000000
C619  C     C_R   0.698912 0.871355 0.871328 0.000000
C620  C     C_R   0.738628 0.899791 0.863065 0.000000
C621  C     C_R   0.761599 0.930442 0.879293 0.000000
N207  N     N_R   0.803929 0.957296 0.876395 0.000000
H681  H     H_    0.863087 0.107542 0.942126 0.000000
H682  H     H_    0.879623 0.043831 0.954876 0.000000
H683  H     H_    0.902407 0.066686 0.925196 0.000000
H684  H     H_    0.809094 0.081574 0.916497 0.000000
H685  H     H_    0.859230 0.036477 0.891138 0.000000
H686  H     H_    0.868826 0.989050 0.916581 0.000000
H687  H     H_    0.687966 0.914358 0.928741 0.000000
H688  H     H_    0.652764 0.850955 0.902095 0.000000
H689  H     H_    0.680501 0.846519 0.858932 0.000000
H690  H     H_    0.746849 0.902009 0.843792 0.000000
C622  C     C_3   0.937022 0.912295 0.919448 0.000000
N208  N     N_3   0.929522 0.931688 0.893821 0.000000
C623  C     C_3   0.954310 0.979275 0.891278 0.000000
C624  C     C_R   0.939757 0.011263 0.869049 0.000000
N209  N     N_R   0.963847 0.055836 0.863831 0.000000
C625  C     C_R   0.957721 0.061933 0.839180 0.000000
C626  C     C_R   0.978564 0.098560 0.824141 0.000000
C627  C     C_R   0.971960 0.095687 0.798861 0.000000
C628  C     C_R   0.944157 0.057309 0.789542 0.000000
C629  C     C_R   0.920884 0.022650 0.805116 0.000000
C630  C     C_R   0.928958 0.024992 0.830247 0.000000
N210  N     N_R   0.914651 0.993097 0.849069 0.000000
H691  H     H_    0.972991 0.889810 0.921535 0.000000
H692  H     H_    0.938505 0.942406 0.932811 0.000000
H693  H     H_    0.904542 0.889460 0.924411 0.000000
H694  H     H_    0.891200 0.936096 0.889963 0.000000
H695  H     H_    0.946271 0.002276 0.907021 0.000000
H696  H     H_    0.994546 0.969395 0.888862 0.000000
H697  H     H_    0.002031 0.126861 0.831641 0.000000
H698  H     H_    0.989834 0.122301 0.786292 0.000000
H699  H     H_    0.942168 0.053404 0.769873 0.000000
H700  H     H_    0.900053 0.993716 0.797161 0.000000
C631  C     C_3   0.070465 0.888517 0.860294 0.000000
N211  N     N_3   0.027714 0.863910 0.871461 0.000000
C632  C     C_3   0.984798 0.872355 0.854444 0.000000
C633  C     C_R   0.939109 0.845715 0.863268 0.000000
N212  N     N_R   0.939937 0.793448 0.865704 0.000000
C634  C     C_R   0.893822 0.783052 0.856253 0.000000
C635  C     C_R   0.879465 0.739128 0.846109 0.000000
C636  C     C_R   0.832848 0.736841 0.834346 0.000000
C637  C     C_R   0.803154 0.780167 0.830305 0.000000
C638  C     C_R   0.820905 0.825307 0.837741 0.000000
C639  C     C_R   0.865253 0.826028 0.851494 0.000000
N213  N     N_R   0.891707 0.866896 0.856640 0.000000
H701  H     H_    0.104572 0.880750 0.872353 0.000000
H702  H     H_    0.077678 0.873644 0.841838 0.000000
H703  H     H_    0.062728 0.929923 0.858306 0.000000
H704  H     H_    0.019868 0.882763 0.887412 0.000000
H705  H     H_    0.976043 0.913231 0.851479 0.000000
H706  H     H_    0.994531 0.857614 0.836259 0.000000
H707  H     H_    0.904884 0.707990 0.845136 0.000000
H708  H     H_    0.821470 0.702047 0.826600 0.000000
H709  H     H_    0.768408 0.779576 0.819329 0.000000
H710  H     H_    0.802744 0.858905 0.830347 0.000000
C640  C     C_3   0.676885 0.826822 0.581500 0.000000
N214  N     N_3   0.678606 0.880435 0.585838 0.000000
C641  C     C_3   0.714727 0.903459 0.569185 0.000000
C642  C     C_R   0.764800 0.906277 0.581937 0.000000
N215  N     N_R   0.774889 0.925418 0.605236 0.000000
C643  C     C_R   0.821375 0.904200 0.610644 0.000000
C644  C     C_R   0.848659 0.904622 0.632693 0.000000
C645  C     C_R   0.894534 0.877898 0.634751 0.000000
C646  C     C_R   0.911630 0.850217 0.615285 0.000000
C647  C     C_R   0.883455 0.849472 0.593346 0.000000
C648  C     C_R   0.838913 0.877730 0.591222 0.000000
N216  N     N_R   0.804966 0.880534 0.572083 0.000000
H711  H     H_    0.647023 0.809175 0.592651 0.000000
H712  H     H_    0.667185 0.820882 0.561779 0.000000
H713  H     H_    0.713603 0.808338 0.587323 0.000000
H714  H     H_    0.692420 0.883044 0.603959 0.000000
H715  H     H_    0.720333 0.879714 0.553236 0.000000
H716  H     H_    0.700713 0.939836 0.560743 0.000000
H717  H     H_    0.835336 0.925471 0.647977 0.000000
H718  H     H_    0.916823 0.877832 0.651843 0.000000
H719  H     H_    0.946846 0.828342 0.617444 0.000000
H720  H     H_    0.895385 0.825448 0.578980 0.000000
C649  C     C_3   0.627459 0.839368 0.641431 0.000000
N217  N     N_3   0.603736 0.869563 0.659814 0.000000
C650  C     C_3   0.629004 0.917231 0.661607 0.000000
C651  C     C_R   0.620040 0.951856 0.639338 0.000000
N218  N     N_R   0.660035 0.966668 0.624956 0.000000
C652  C     C_R   0.635868 0.984620 0.604131 0.000000
C653  C     C_R   0.657283 0.005389 0.583686 0.000000
C654  C     C_R   0.625565 0.026846 0.565200 0.000000
C655  C     C_R   0.573171 0.026763 0.567625 0.000000
C656  C     C_R   0.552394 0.005406 0.588539 0.000000
C657  C     C_R   0.585021 0.986411 0.606958 0.000000
N219  N     N_R   0.572867 0.969072 0.629716 0.000000
H721  H     H_    0.610540 0.801645 0.641901 0.000000
H722  H     H_    0.620088 0.857911 0.622938 0.000000
H723  H     H_    0.668601 0.834007 0.645279 0.000000
H724  H     H_    0.610109 0.849519 0.676850 0.000000
H725  H     H_    0.619709 0.934621 0.678942 0.000000
H726  H     H_    0.669022 0.909246 0.662072 0.000000
H727  H     H_    0.697896 0.007398 0.582780 0.000000
H728  H     H_    0.642394 0.046701 0.549716 0.000000
H729  H     H_    0.547940 0.046346 0.554123 0.000000
H730  H     H_    0.512054 0.006107 0.590546 0.000000
C658  C     C_3   0.337534 0.344830 0.627946 0.000000
N220  N     N_3   0.374556 0.310959 0.617401 0.000000
C659  C     C_3   0.404152 0.340275 0.599836 0.000000
C660  C     C_R   0.437871 0.305599 0.586342 0.000000
N221  N     N_R   0.466289 0.265889 0.598163 0.000000
C661  C     C_R   0.492149 0.249215 0.579098 0.000000
C662  C     C_R   0.526792 0.210545 0.579612 0.000000
C663  C     C_R   0.568391 0.217704 0.565615 0.000000
C664  C     C_R   0.572888 0.264037 0.554116 0.000000
C665  C     C_R   0.530750 0.294189 0.548176 0.000000
C666  C     C_R   0.487232 0.281313 0.559175 0.000000
N222  N     N_R   0.448804 0.313943 0.561379 0.000000
H731  H     H_    0.318091 0.324150 0.643156 0.000000
H732  H     H_    0.356602 0.377493 0.635549 0.000000
H733  H     H_    0.309085 0.358534 0.613470 0.000000
H734  H     H_    0.354680 0.284888 0.607468 0.000000
H735  H     H_    0.379036 0.363047 0.586702 0.000000
H736  H     H_    0.427217 0.367495 0.609527 0.000000
H737  H     H_    0.523298 0.178211 0.591548 0.000000
H738  H     H_    0.600930 0.192439 0.566626 0.000000
H739  H     H_    0.609491 0.274585 0.549016 0.000000
H740  H     H_    0.534104 0.329691 0.538413 0.000000
C667  C     C_3   0.578821 0.037630 0.671803 0.000000
N223  N     N_3   0.529479 0.058322 0.666619 0.000000
C668  C     C_3   0.535530 0.105351 0.653326 0.000000
C669  C     C_R   0.498325 0.106063 0.633672 0.000000
N224  N     N_R   0.479246 0.062182 0.624861 0.000000
C670  C     C_R   0.442828 0.081560 0.608667 0.000000
C671  C     C_R   0.411176 0.055892 0.593585 0.000000
C672  C     C_R   0.375200 0.083623 0.579038 0.000000
C673  C     C_R   0.370903 0.135849 0.580032 0.000000
C674  C     C_R   0.403176 0.161284 0.595222 0.000000
C675  C     C_R   0.439539 0.133364 0.609066 0.000000
N225  N     N_R   0.475081 0.150327 0.624699 0.000000
H741  H     H_    0.576382 0.001314 0.682029 0.000000
H742  H     H_    0.599812 0.035457 0.654814 0.000000
H743  H     H_    0.597348 0.063852 0.682685 0.000000
H744  H     H_    0.513039 0.065511 0.683313 0.000000
H745  H     H_    0.527888 0.136990 0.664793 0.000000
H746  H     H_    0.573721 0.109739 0.646552 0.000000
H747  H     H_    0.414268 0.015592 0.592673 0.000000
H748  H     H_    0.349871 0.064375 0.566955 0.000000
H749  H     H_    0.341994 0.156833 0.568874 0.000000
H750  H     H_    0.398640 0.201538 0.596426 0.000000
C676  C     C_3   0.570294 0.020152 0.819828 0.000000
N226  N     N_3   0.537049 0.983247 0.809643 0.000000
C677  C     C_3   0.485878 0.997455 0.815606 0.000000
C678  C     C_R   0.447690 0.968088 0.802523 0.000000
N227  N     N_R   0.453757 0.956419 0.778307 0.000000
C679  C     C_R   0.416195 0.924743 0.774410 0.000000
C680  C     C_R   0.405869 0.899834 0.753293 0.000000
C681  C     C_R   0.363906 0.870082 0.753057 0.000000
C682  C     C_R   0.333322 0.866271 0.773599 0.000000
C683  C     C_R   0.344671 0.891555 0.794746 0.000000
C684  C     C_R   0.386912 0.920339 0.794881 0.000000
N228  N     N_R   0.404664 0.948599 0.813222 0.000000
H751  H     H_    0.610246 0.008858 0.816568 0.000000
H752  H     H_    0.561954 0.058155 0.810954 0.000000
H753  H     H_    0.564831 0.022113 0.840048 0.000000
H754  H     H_    0.545299 0.949550 0.820054 0.000000
H755  H     H_    0.483359 0.986761 0.835293 0.000000
H756  H     H_    0.478999 0.037817 0.810079 0.000000
H757  H     H_    0.429863 0.902642 0.737475 0.000000
H758  H     H_    0.354629 0.849992 0.736704 0.000000
H759  H     H_    0.300135 0.843570 0.773030 0.000000
H760  H     H_    0.319808 0.889882 0.810107 0.000000
C685  C     C_3   0.554742 0.846150 0.727105 0.000000
N229  N     N_3   0.550727 0.899960 0.720372 0.000000
C686  C     C_3   0.515870 0.907282 0.699182 0.000000
C687  C     C_R   0.495987 0.960093 0.696329 0.000000
N230  N     N_R   0.471735 0.980116 0.716126 0.000000
C688  C     C_R   0.430751 0.003665 0.704808 0.000000
C689  C     C_R   0.383956 0.010473 0.714492 0.000000
C690  C     C_R   0.345364 0.032716 0.699476 0.000000
C691  C     C_R   0.353450 0.044597 0.674653 0.000000
C692  C     C_R   0.397989 0.028622 0.664354 0.000000
C693  C     C_R   0.434581 0.004839 0.679784 0.000000
N231  N     N_R   0.475591 0.977583 0.673362 0.000000
H761  H     H_    0.590124 0.837673 0.738247 0.000000
H762  H     H_    0.521852 0.835099 0.738293 0.000000
H763  H     H_    0.555703 0.824245 0.710163 0.000000
H764  H     H_    0.586312 0.911152 0.714900 0.000000
H765  H     H_    0.533481 0.897720 0.681907 0.000000
H766  H     H_    0.483306 0.882486 0.701924 0.000000
H767  H     H_    0.375718 0.993321 0.732273 0.000000
H768  H     H_    0.308171 0.038895 0.706842 0.000000
H769  H     H_    0.322988 0.061171 0.662839 0.000000
H770  H     H_    0.400716 0.029641 0.644567 0.000000
C694  C     C_3   0.516004 0.992376 0.336996 0.000000
N232  N     N_3   0.485320 0.957548 0.350833 0.000000
C695  C     C_3   0.497135 0.966780 0.376012 0.000000
C696  C     C_R   0.466916 0.935774 0.392243 0.000000
N233  N     N_R   0.463933 0.943585 0.417489 0.000000
C697  C     C_R   0.423710 0.916071 0.423147 0.000000
C698  C     C_R   0.392399 0.922496 0.442366 0.000000
C699  C     C_R   0.350264 0.893241 0.444075 0.000000
C700  C     C_R   0.344958 0.854525 0.428374 0.000000
C701  C     C_R   0.372637 0.853957 0.407271 0.000000
C702  C     C_R   0.407801 0.889753 0.403650 0.000000
N234  N     N_R   0.433053 0.902199 0.382941 0.000000
H771  H     H_    0.515381 0.983103 0.317530 0.000000
H772  H     H_    0.502320 0.031103 0.339350 0.000000
H773  H     H_    0.555471 0.989862 0.343942 0.000000
H774  H     H_    0.498451 0.920821 0.348260 0.000000
H775  H     H_    0.537300 0.956911 0.379744 0.000000
H776  H     H_    0.486168 0.006389 0.378704 0.000000
H777  H     H_    0.397779 0.953553 0.453541 0.000000
H778  H     H_    0.323133 0.897760 0.458429 0.000000
H779  H     H_    0.316306 0.827475 0.431290 0.000000
H780  H     H_    0.367768 0.824852 0.394784 0.000000
C703  C     C_3   0.237737 0.595334 0.427078 0.000000
N235  N     N_3   0.287946 0.577422 0.421090 0.000000
C704  C     C_3   0.300732 0.533997 0.436874 0.000000
C705  C     C_R   0.259942 0.497971 0.435956 0.000000
N236  N     N_R   0.246522 0.474827 0.414493 0.000000
C706  C     C_R   0.235389 0.428350 0.423495 0.000000
C707  C     C_R   0.227558 0.386508 0.410276 0.000000
C708  C     C_R   0.222492 0.340815 0.423455 0.000000
C709  C     C_R   0.226390 0.337821 0.449245 0.000000
C710  C     C_R   0.235137 0.380507 0.462234 0.000000
C711  C     C_R   0.238060 0.425674 0.448802 0.000000
N237  N     N_R   0.249795 0.470703 0.457297 0.000000
H781  H     H_    0.230792 0.634641 0.420152 0.000000
H782  H     H_    0.210471 0.573970 0.417007 0.000000
H783  H     H_    0.232179 0.591456 0.447200 0.000000
H784  H     H_    0.314625 0.603170 0.425423 0.000000
H785  H     H_    0.336092 0.515870 0.430566 0.000000
H786  H     H_    0.307038 0.545517 0.456043 0.000000
H787  H     H_    0.227958 0.388610 0.390359 0.000000
H788  H     H_    0.216304 0.307008 0.413627 0.000000
H789  H     H_    0.222986 0.301718 0.459199 0.000000
H790  H     H_    0.240186 0.378052 0.482176 0.000000
C712  C     C_3   0.126047 0.659950 0.472516 0.000000
N238  N     N_3   0.179303 0.652849 0.472564 0.000000
C713  C     C_3   0.190042 0.613622 0.491469 0.000000
C714  C     C_R   0.243570 0.611192 0.495783 0.000000
N239  N     N_R   0.271113 0.654108 0.498962 0.000000
C715  C     C_R   0.317199 0.632960 0.504333 0.000000
C716  C     C_R   0.361349 0.657038 0.507471 0.000000
C717  C     C_R   0.401284 0.629695 0.519075 0.000000
C718  C     C_R   0.397656 0.578304 0.524395 0.000000
C719  C     C_R   0.354859 0.553359 0.517746 0.000000
C720  C     C_R   0.315658 0.581228 0.506296 0.000000
N240  N     N_R   0.269802 0.565490 0.499103 0.000000
H791  H     H_    0.110263 0.646491 0.490271 0.000000
H792  H     H_    0.114461 0.699185 0.470115 0.000000
H793  H     H_    0.112330 0.640457 0.456697 0.000000
H794  H     H_    0.194735 0.686389 0.477118 0.000000
H795  H     H_    0.173739 0.621500 0.509584 0.000000
H796  H     H_    0.177333 0.577415 0.484786 0.000000
H797  H     H_    0.363901 0.696537 0.502101 0.000000
H798  H     H_    0.435760 0.648219 0.523820 0.000000
H799  H     H_    0.429069 0.557343 0.533173 0.000000
H800  H     H_    0.351405 0.514370 0.523443 0.000000
C721  C     C_3   0.545021 0.280603 0.329149 0.000000
N241  N     N_3   0.498437 0.295729 0.340202 0.000000
C722  C     C_3   0.507281 0.299051 0.366625 0.000000
C723  C     C_R   0.458175 0.294619 0.377759 0.000000
N242  N     N_R   0.418135 0.318127 0.364816 0.000000
C724  C     C_R   0.378280 0.294286 0.374433 0.000000
C725  C     C_R   0.327572 0.302844 0.368292 0.000000
C726  C     C_R   0.292785 0.270912 0.378357 0.000000
C727  C     C_R   0.309046 0.230076 0.393614 0.000000
C728  C     C_R   0.359614 0.222917 0.400196 0.000000
C729  C     C_R   0.394145 0.258094 0.392229 0.000000
N243  N     N_R   0.445535 0.258949 0.396264 0.000000
H801  H     H_    0.540626 0.288524 0.308899 0.000000
H802  H     H_    0.575805 0.303017 0.336310 0.000000
H803  H     H_    0.552995 0.239785 0.333230 0.000000
H804  H     H_    0.473297 0.267015 0.337553 0.000000
H805  H     H_    0.533412 0.268644 0.373901 0.000000
H806  H     H_    0.520275 0.337172 0.369993 0.000000
H807  H     H_    0.313825 0.333115 0.355823 0.000000
H808  H     H_    0.253086 0.276511 0.373322 0.000000
H809  H     H_    0.282151 0.202910 0.400146 0.000000
H810  H     H_    0.369953 0.187788 0.409738 0.000000
C730  C     C_3   0.398393 0.117053 0.484958 0.000000
N244  N     N_3   0.444157 0.145183 0.481653 0.000000
C731  C     C_3   0.484887 0.111471 0.474290 0.000000
C732  C     C_R   0.482615 0.104418 0.447126 0.000000
N245  N     N_R   0.476195 0.143691 0.429096 0.000000
C733  C     C_R   0.452372 0.120547 0.410560 0.000000
C734  C     C_R   0.436579 0.139887 0.387421 0.000000
C735  C     C_R   0.401379 0.113545 0.374389 0.000000
C736  C     C_R   0.386813 0.066530 0.383318 0.000000
C737  C     C_R   0.408635 0.044857 0.404994 0.000000
C738  C     C_R   0.443458 0.071819 0.417641 0.000000
N246  N     N_R   0.467532 0.058654 0.439395 0.000000
H811  H     H_    0.366671 0.143470 0.488894 0.000000
H812  H     H_    0.388659 0.097358 0.467945 0.000000
H813  H     H_    0.403432 0.090302 0.501336 0.000000
H814  H     H_    0.453928 0.156524 0.499299 0.000000
H815  H     H_    0.521586 0.125924 0.479774 0.000000
H816  H     H_    0.480619 0.073976 0.483900 0.000000
H817  H     H_    0.448063 0.175751 0.379951 0.000000
H818  H     H_    0.384308 0.130284 0.357336 0.000000
H819  H     H_    0.358356 0.046753 0.373301 0.000000
H820  H     H_    0.394633 0.010162 0.412649 0.000000
C739  C     C_3   0.267006 0.958447 0.378463 0.000000
N247  N     N_3   0.290771 0.908548 0.383045 0.000000
C740  C     C_3   0.274540 0.876708 0.363516 0.000000
C741  C     C_R   0.307264 0.829575 0.361746 0.000000
N248  N     N_R   0.347972 0.834363 0.346114 0.000000
C742  C     C_R   0.337249 0.800092 0.329331 0.000000
C743  C     C_R   0.346027 0.804607 0.304331 0.000000
C744  C     C_R   0.325710 0.769594 0.289098 0.000000
C745  C     C_R   0.292961 0.734048 0.298553 0.000000
C746  C     C_R   0.278182 0.735634 0.322885 0.000000
C747  C     C_R   0.300151 0.769581 0.337601 0.000000
N249  N     N_R   0.282279 0.784648 0.359171 0.000000
H821  H     H_    0.265793 0.977758 0.396203 0.000000
H822  H     H_    0.289449 0.981061 0.365237 0.000000
H823  H     H_    0.227785 0.955350 0.371039 0.000000
H824  H     H_    0.274878 0.894138 0.399216 0.000000
H825  H     H_    0.235323 0.866573 0.366390 0.000000
H826  H     H_    0.275100 0.898384 0.345399 0.000000
H827  H     H_    0.364908 0.836837 0.296347 0.000000
H828  H     H_    0.333263 0.771667 0.269467 0.000000
H829  H     H_    0.275467 0.708255 0.286331 0.000000
H830  H     H_    0.247211 0.714428 0.329632 0.000000
C748  C     C_3   0.369051 0.122272 0.124660 0.000000
N250  N     N_3   0.404572 0.093102 0.110501 0.000000
C749  C     C_3   0.442794 0.125863 0.100116 0.000000
C750  C     C_R   0.483168 0.128139 0.118570 0.000000
N251  N     N_R   0.499423 0.085131 0.132063 0.000000
C751  C     C_R   0.517535 0.104763 0.152735 0.000000
C752  C     C_R   0.543567 0.081160 0.171914 0.000000
C753  C     C_R   0.558247 0.108461 0.192003 0.000000
C754  C     C_R   0.554221 0.160266 0.189857 0.000000
C755  C     C_R   0.536717 0.182426 0.167770 0.000000
C756  C     C_R   0.513990 0.154880 0.151153 0.000000
N252  N     N_R   0.495176 0.172434 0.129410 0.000000
H831  H     H_    0.388742 0.136293 0.141119 0.000000
H832  H     H_    0.351556 0.154050 0.113094 0.000000
H833  H     H_    0.338081 0.097888 0.130852 0.000000
H834  H     H_    0.384354 0.077091 0.096338 0.000000
H835  H     H_    0.458386 0.109626 0.083319 0.000000
H836  H     H_    0.427741 0.164963 0.096593 0.000000
H837  H     H_    0.554663 0.043667 0.169416 0.000000
H838  H     H_    0.578698 0.091576 0.207975 0.000000
H839  H     H_    0.573216 0.182929 0.202886 0.000000
H840  H     H_    0.551884 0.216461 0.160619 0.000000
C757  C     C_3   0.541773 0.382890 0.161713 0.000000
N253  N     N_3   0.549852 0.355142 0.185595 0.000000
C758  C     C_3   0.557068 0.300802 0.182810 0.000000
C759  C     C_R   0.507540 0.276857 0.183001 0.000000
N254  N     N_R   0.478513 0.275792 0.203893 0.000000
C760  C     C_R   0.433169 0.292256 0.194193 0.000000
C761  C     C_R   0.393401 0.312000 0.206853 0.000000
C762  C     C_R   0.355724 0.339430 0.193346 0.000000
C763  C     C_R   0.360469 0.349753 0.168030 0.000000
C764  C     C_R   0.401420 0.330302 0.155723 0.000000
C765  C     C_R   0.434999 0.297498 0.168747 0.000000
N255  N     N_R   0.480461 0.280902 0.160914 0.000000
H841  H     H_    0.510274 0.411104 0.163282 0.000000
H842  H     H_    0.576286 0.403520 0.157033 0.000000
H843  H     H_    0.531595 0.357910 0.146690 0.000000
H844  H     H_    0.516616 0.361066 0.195152 0.000000
H845  H     H_    0.574901 0.293927 0.165215 0.000000
H846  H     H_    0.581987 0.283028 0.197329 0.000000
H847  H     H_    0.392986 0.309879 0.226766 0.000000
H848  H     H_    0.324355 0.356137 0.202860 0.000000
H849  H     H_    0.332827 0.374514 0.157993 0.000000
H850  H     H_    0.407576 0.342243 0.136621 0.000000
C766  C     C_3   0.362522 0.141433 0.873130 0.000000
N256  N     N_3   0.368647 0.195452 0.872043 0.000000
C767  C     C_3   0.321413 0.220361 0.877693 0.000000
C768  C     C_R   0.291046 0.230177 0.854779 0.000000
N257  N     N_R   0.248699 0.203492 0.849825 0.000000
C769  C     C_R   0.230555 0.227336 0.828244 0.000000
C770  C     C_R   0.185943 0.220500 0.815082 0.000000
C771  C     C_R   0.175194 0.250904 0.793811 0.000000
C772  C     C_R   0.207623 0.288385 0.786231 0.000000
C773  C     C_R   0.250597 0.296820 0.800260 0.000000
C774  C     C_R   0.260688 0.266165 0.821345 0.000000
N258  N     N_R   0.299594 0.269081 0.837755 0.000000
H851  H     H_    0.396386 0.123285 0.882484 0.000000
H852  H     H_    0.329784 0.129426 0.883753 0.000000
H853  H     H_    0.357523 0.128783 0.854150 0.000000
H854  H     H_    0.375352 0.205816 0.853572 0.000000
H855  H     H_    0.299861 0.197433 0.890539 0.000000
H856  H     H_    0.327791 0.255461 0.886967 0.000000
H857  H     H_    0.158058 0.194473 0.821419 0.000000
H858  H     H_    0.140725 0.245887 0.783166 0.000000
H859  H     H_    0.198504 0.312020 0.769664 0.000000
H860  H     H_    0.275351 0.326975 0.794942 0.000000
C775  C     C_3   0.519141 0.244144 0.833762 0.000000
N259  N     N_3   0.468644 0.245619 0.843719 0.000000
C776  C     C_3   0.473546 0.244054 0.870580 0.000000
C777  C     C_R   0.437801 0.281180 0.881317 0.000000
N260  N     N_R   0.444681 0.294379 0.905477 0.000000
C778  C     C_R   0.411210 0.332691 0.906646 0.000000
C779  C     C_R   0.407781 0.366269 0.924294 0.000000
C780  C     C_R   0.363157 0.394419 0.924873 0.000000
C781  C     C_R   0.324657 0.387625 0.907576 0.000000
C782  C     C_R   0.333725 0.357634 0.888103 0.000000
C783  C     C_R   0.380960 0.337079 0.886401 0.000000
N261  N     N_R   0.397503 0.307495 0.868858 0.000000
H861  H     H_    0.536405 0.281498 0.835085 0.000000
H862  H     H_    0.543159 0.214538 0.843854 0.000000
H863  H     H_    0.516286 0.234346 0.814096 0.000000
H864  H     H_    0.452461 0.212099 0.838951 0.000000
H865  H     H_    0.466649 0.205552 0.878405 0.000000
H866  H     H_    0.512450 0.253629 0.876188 0.000000
H867  H     H_    0.438519 0.367463 0.937285 0.000000
H868  H     H_    0.354971 0.415491 0.940774 0.000000
H869  H     H_    0.287193 0.403666 0.910043 0.000000
H870  H     H_    0.303565 0.344480 0.876752 0.000000
C784  C     C_3   0.149848 0.393857 0.824448 0.000000
N262  N     N_3   0.188094 0.423636 0.836027 0.000000
C785  C     C_3   0.228657 0.389297 0.845876 0.000000
C786  C     C_R   0.276130 0.416860 0.848502 0.000000
N263  N     N_R   0.318997 0.397556 0.837178 0.000000
C787  C     C_R   0.340970 0.440447 0.829636 0.000000
C788  C     C_R   0.374717 0.445673 0.810891 0.000000
C789  C     C_R   0.390386 0.493387 0.803993 0.000000
C790  C     C_R   0.369728 0.535154 0.814884 0.000000
C791  C     C_R   0.331604 0.529618 0.831778 0.000000
C792  C     C_R   0.316933 0.481936 0.838838 0.000000
N264  N     N_R   0.275964 0.468754 0.852083 0.000000
H871  H     H_    0.160861 0.386185 0.805259 0.000000
H872  H     H_    0.146069 0.357641 0.835274 0.000000
H873  H     H_    0.113027 0.415256 0.823772 0.000000
H874  H     H_    0.202651 0.446763 0.821837 0.000000
H875  H     H_    0.218991 0.368419 0.863226 0.000000
H876  H     H_    0.235631 0.361097 0.832257 0.000000
H877  H     H_    0.384943 0.414184 0.800142 0.000000
H878  H     H_    0.417209 0.498299 0.789329 0.000000
H879  H     H_    0.381126 0.572584 0.808966 0.000000
H880  H     H_    0.313065 0.562399 0.838135 0.000000
C793  C     C_3   0.678057 0.323747 0.525339 0.000000
N265  N     N_3   0.721134 0.291796 0.520005 0.000000
C794  C     C_3   0.717098 0.281570 0.494030 0.000000
C795  C     C_R   0.763578 0.294677 0.481413 0.000000
N266  N     N_R   0.802019 0.321877 0.492029 0.000000
C796  C     C_R   0.839111 0.316056 0.475466 0.000000
C797  C     C_R   0.889021 0.328586 0.477759 0.000000
C798  C     C_R   0.923270 0.311460 0.461015 0.000000
C799  C     C_R   0.907909 0.280439 0.442747 0.000000
C800  C     C_R   0.857629 0.269121 0.440039 0.000000
C801  C     C_R   0.823279 0.288133 0.456303 0.000000
N267  N     N_R   0.774588 0.274923 0.458828 0.000000
H881  H     H_    0.677491 0.330260 0.545474 0.000000
H882  H     H_    0.678402 0.359296 0.514403 0.000000
H883  H     H_    0.643896 0.306187 0.518905 0.000000
H884  H     H_    0.716008 0.257380 0.529756 0.000000
H885  H     H_    0.710527 0.240874 0.492149 0.000000
H886  H     H_    0.686852 0.304707 0.484801 0.000000
H887  H     H_    0.903108 0.348197 0.492820 0.000000
H888  H     H_    0.962809 0.319958 0.463114 0.000000
H889  H     H_    0.935511 0.264046 0.430823 0.000000
H890  H     H_    0.847649 0.241119 0.427337 0.000000
C802  C     C_3   0.782487 0.516107 0.460606 0.000000
N268  N     N_3   0.748579 0.502565 0.480167 0.000000
C803  C     C_3   0.739335 0.449275 0.481216 0.000000
C804  C     C_R   0.720850 0.438537 0.505820 0.000000
N269  N     N_R   0.751321 0.415628 0.524579 0.000000
C805  C     C_R   0.726898 0.429124 0.544789 0.000000
C806  C     C_R   0.745250 0.425609 0.568613 0.000000
C807  C     C_R   0.714809 0.443027 0.587043 0.000000
C808  C     C_R   0.667550 0.465122 0.580898 0.000000
C809  C     C_R   0.651511 0.471712 0.556285 0.000000
C810  C     C_R   0.682437 0.454515 0.538437 0.000000
N270  N     N_R   0.676784 0.461818 0.513553 0.000000
H891  H     H_    0.810829 0.538927 0.469232 0.000000
H892  H     H_    0.799606 0.482775 0.452042 0.000000
H893  H     H_    0.763235 0.541055 0.446311 0.000000
H894  H     H_    0.713799 0.521374 0.476831 0.000000
H895  H     H_    0.709341 0.442323 0.468222 0.000000
H896  H     H_    0.772909 0.424955 0.477790 0.000000
H897  H     H_    0.784121 0.414426 0.572060 0.000000
H898  H     H_    0.728575 0.441324 0.606123 0.000000
H899  H     H_    0.644499 0.480089 0.595250 0.000000
H900  H     H_    0.617801 0.492981 0.551215 0.000000
C811  C     C_3   0.832597 0.520190 0.530608 0.000000
N271  N     N_3   0.860890 0.520096 0.507890 0.000000
C812  C     C_3   0.863681 0.469518 0.498989 0.000000
C813  C     C_R   0.900118 0.437613 0.513546 0.000000
N272  N     N_R   0.952100 0.443819 0.514245 0.000000
C814  C     C_R   0.967694 0.404465 0.529770 0.000000
C815  C     C_R   0.016513 0.390102 0.536769 0.000000
C816  C     C_R   0.024159 0.346321 0.551748 0.000000
C817  C     C_R   0.983490 0.317566 0.559019 0.000000
C818  C     C_R   0.934472 0.332252 0.551542 0.000000
C819  C     C_R   0.927376 0.376344 0.537257 0.000000
N273  N     N_R   0.883504 0.395846 0.526869 0.000000
H901  H     H_    0.834930 0.557849 0.538471 0.000000
H902  H     H_    0.792490 0.513018 0.526281 0.000000
H903  H     H_    0.848273 0.491379 0.544617 0.000000
H904  H     H_    0.897414 0.529659 0.511936 0.000000
H905  H     H_    0.827844 0.451929 0.502242 0.000000
H906  H     H_    0.873259 0.469279 0.479226 0.000000
H907  H     H_    0.048050 0.411816 0.530807 0.000000
H908  H     H_    0.062216 0.334049 0.557586 0.000000
H909  H     H_    0.990229 0.283152 0.570458 0.000000
H910  H     H_    0.903099 0.309590 0.556753 0.000000
C820  C     C_3   0.696396 0.199243 0.000990 0.000000
N274  N     N_3   0.692260 0.185889 0.975182 0.000000
C821  C     C_3   0.737804 0.159746 0.967542 0.000000
C822  C     C_R   0.732508 0.149021 0.941597 0.000000
N275  N     N_R   0.726566 0.101458 0.931883 0.000000
C823  C     C_R   0.706078 0.115576 0.909392 0.000000
C824  C     C_R   0.687367 0.084586 0.892286 0.000000
C825  C     C_R   0.654216 0.105390 0.874118 0.000000
C826  C     C_R   0.643318 0.156906 0.872690 0.000000
C827  C     C_R   0.669112 0.188352 0.887762 0.000000
C828  C     C_R   0.700462 0.166826 0.906152 0.000000
N276  N     N_R   0.720163 0.189549 0.925662 0.000000
H911  H     H_    0.660850 0.217671 0.006538 0.000000
H912  H     H_    0.701669 0.165629 0.013510 0.000000
H913  H     H_    0.727191 0.225514 0.003525 0.000000
H914  H     H_    0.690287 0.219420 0.964559 0.000000
H915  H     H_    0.769041 0.186096 0.968233 0.000000
H916  H     H_    0.743719 0.124261 0.977967 0.000000
H917  H     H_    0.696847 0.045141 0.893523 0.000000
H918  H     H_    0.636395 0.081438 0.861094 0.000000
H919  H     H_    0.616671 0.172865 0.858717 0.000000
H920  H     H_    0.662327 0.228029 0.885934 0.000000
C829  C     C_3   0.925826 0.282408 0.965955 0.000000
N277  N     N_3   0.879854 0.298928 0.977557 0.000000
C830  C     C_3   0.837268 0.277573 0.964863 0.000000
C831  C     C_R   0.791773 0.286513 0.978556 0.000000
N278  N     N_R   0.794949 0.310277 0.000795 0.000000
C832  C     C_R   0.751691 0.338978 0.999506 0.000000
C833  C     C_R   0.735631 0.373734 0.015766 0.000000
C834  C     C_R   0.692842 0.403484 0.009469 0.000000
C835  C     C_R   0.667443 0.398661 0.986954 0.000000
C836  C     C_R   0.683268 0.362515 0.971013 0.000000
C837  C     C_R   0.724329 0.331418 0.978180 0.000000
N279  N     N_R   0.746823 0.295265 0.965109 0.000000
H921  H     H_    0.957997 0.286348 0.978832 0.000000
H922  H     H_    0.923947 0.242588 0.961068 0.000000
H923  H     H_    0.931761 0.306398 0.949244 0.000000
H924  H     H_    0.876598 0.338222 0.975087 0.000000
H925  H     H_    0.828956 0.300449 0.947704 0.000000
H926  H     H_    0.842855 0.236786 0.961909 0.000000
H927  H     H_    0.754308 0.376587 0.033347 0.000000
H928  H     H_    0.679325 0.430901 0.022115 0.000000
H929  H     H_    0.634495 0.422676 0.982024 0.000000
H930  H     H_    0.663119 0.358826 0.953680 0.000000
C838  C     C_3   0.572795 0.299431 0.004710 0.000000
N280  N     N_3   0.566526 0.300818 0.977909 0.000000
C839  C     C_3   0.604658 0.267652 0.968148 0.000000
C840  C     C_R   0.601671 0.274306 0.940736 0.000000
N281  N     N_R   0.556176 0.288680 0.929798 0.000000
C841  C     C_R   0.568899 0.313988 0.908820 0.000000
C842  C     C_R   0.539597 0.347690 0.893999 0.000000
C843  C     C_R   0.560192 0.368369 0.872781 0.000000
C844  C     C_R   0.608276 0.353183 0.866241 0.000000
C845  C     C_R   0.638159 0.322605 0.882599 0.000000
C846  C     C_R   0.619151 0.308438 0.905424 0.000000
N282  N     N_R   0.642189 0.285042 0.925928 0.000000
H931  H     H_    0.535912 0.307411 0.013014 0.000000
H932  H     H_    0.586803 0.261695 0.012109 0.000000
H933  H     H_    0.598723 0.329315 0.009637 0.000000
H934  H     H_    0.574771 0.337282 0.971387 0.000000
H935  H     H_    0.641333 0.278636 0.975317 0.000000
H936  H     H_    0.598088 0.228483 0.974305 0.000000
H937  H     H_    0.503516 0.361821 0.899584 0.000000
H938  H     H_    0.538283 0.395803 0.861234 0.000000
H939  H     H_    0.623238 0.366831 0.848764 0.000000
H940  H     H_    0.674089 0.309031 0.876592 0.000000
C847  C     C_3   0.166358 0.010658 0.867210 0.000000
N283  N     N_3   0.150241 0.040995 0.845276 0.000000
C848  C     C_3   0.101772 0.064628 0.849684 0.000000
C849  C     C_R   0.105813 0.107769 0.866169 0.000000
N284  N     N_R   0.145067 0.141263 0.866277 0.000000
C850  C     C_R   0.121453 0.183746 0.873332 0.000000
C851  C     C_R   0.134651 0.232717 0.868893 0.000000
C852  C     C_R   0.098801 0.270512 0.871294 0.000000
C853  C     C_R   0.052893 0.260177 0.881588 0.000000
C854  C     C_R   0.040902 0.211159 0.886064 0.000000
C855  C     C_R   0.073991 0.174701 0.879579 0.000000
N285  N     N_R   0.061861 0.128310 0.874651 0.000000
H941  H     H_    0.202140 0.990990 0.863235 0.000000
H942  H     H_    0.173831 0.035707 0.882410 0.000000
H943  H     H_    0.137793 0.982557 0.872281 0.000000
H944  H     H_    0.145015 0.016900 0.830832 0.000000
H945  H     H_    0.085194 0.079427 0.831567 0.000000
H946  H     H_    0.075793 0.036575 0.857703 0.000000
H947  H     H_    0.168611 0.242916 0.860641 0.000000
H948  H     H_    0.106302 0.307687 0.863895 0.000000
H949  H     H_    0.023488 0.288900 0.883089 0.000000
H950  H     H_    0.004189 0.201771 0.891523 0.000000
C856  C     C_3   0.086889 0.231002 0.939043 0.000000
N286  N     N_3   0.063700 0.182138 0.938709 0.000000
C857  C     C_3   0.009358 0.187618 0.942353 0.000000
C858  C     C_R   0.988081 0.137448 0.942061 0.000000
N287  N     N_R   0.990389 0.110986 0.920485 0.000000
C859  C     C_R   0.005063 0.065090 0.930054 0.000000
C860  C     C_R   0.031436 0.029653 0.917922 0.000000
C861  C     C_R   0.041377 0.983346 0.930276 0.000000
C862  C     C_R   0.032839 0.977204 0.955297 0.000000
C863  C     C_R   0.016208 0.017725 0.968501 0.000000
C864  C     C_R   0.002642 0.061712 0.955239 0.000000
N288  N     N_R   0.992260 0.107278 0.963945 0.000000
H951  H     H_    0.111420 0.232233 0.955679 0.000000
H952  H     H_    0.111852 0.235856 0.923043 0.000000
H953  H     H_    0.057754 0.261862 0.938563 0.000000
H954  H     H_    0.079611 0.159293 0.953407 0.000000
H955  H     H_    0.001525 0.201797 0.960140 0.000000
H956  H     H_    0.991010 0.213829 0.928689 0.000000
H957  H     H_    0.041010 0.036357 0.898742 0.000000
H958  H     H_    0.058650 0.952644 0.920709 0.000000
H959  H     H_    0.044077 0.941540 0.964265 0.000000
H960  H     H_    0.014359 0.014915 0.988349 0.000000
C865  C     C_3   0.898292 0.864370 0.453851 0.000000
N289  N     N_3   0.874498 0.896112 0.471419 0.000000
C866  C     C_3   0.821061 0.887975 0.469052 0.000000
C867  C     C_R   0.793997 0.922462 0.484853 0.000000
N290  N     N_R   0.798036 0.918572 0.510363 0.000000
C868  C     C_R   0.781187 0.964683 0.516409 0.000000
C869  C     C_R   0.785922 0.986238 0.538868 0.000000
C870  C     C_R   0.764423 0.033789 0.541220 0.000000
C871  C     C_R   0.742964 0.060773 0.520667 0.000000
C872  C     C_R   0.744508 0.040955 0.497514 0.000000
C873  C     C_R   0.763459 0.992410 0.495817 0.000000
N291  N     N_R   0.770428 0.966593 0.475180 0.000000
H961  H     H_    0.919293 0.833595 0.464592 0.000000
H962  H     H_    0.870092 0.847282 0.441646 0.000000
H963  H     H_    0.922810 0.887617 0.441924 0.000000
H964  H     H_    0.880390 0.933475 0.465504 0.000000
H965  H     H_    0.808642 0.899130 0.449850 0.000000
H966  H     H_    0.814054 0.848119 0.474544 0.000000
H967  H     H_    0.808659 0.968734 0.553843 0.000000
H968  H     H_    0.766114 0.050716 0.559015 0.000000
H969  H     H_    0.727308 0.098536 0.522520 0.000000
H970  H     H_    0.731112 0.063607 0.481536 0.000000
C874  C     C_3   0.688372 0.889200 0.464003 0.000000
N292  N     N_3   0.698795 0.839060 0.475103 0.000000
C875  C     C_3   0.693205 0.841310 0.501281 0.000000
C876  C     C_R   0.718436 0.797664 0.513579 0.000000
N293  N     N_R   0.691564 0.755009 0.518572 0.000000
C877  C     C_R   0.716070 0.735694 0.539600 0.000000
C878  C     C_R   0.700374 0.700016 0.556701 0.000000
C879  C     C_R   0.728645 0.690698 0.578573 0.000000
C880  C     C_R   0.772632 0.716246 0.582980 0.000000
C881  C     C_R   0.786989 0.753793 0.566181 0.000000
C882  C     C_R   0.757063 0.763484 0.545204 0.000000
N294  N     N_R   0.759671 0.803346 0.529197 0.000000
H971  H     H_    0.658295 0.888400 0.449833 0.000000
H972  H     H_    0.677745 0.915615 0.478006 0.000000
H973  H     H_    0.721405 0.902933 0.454474 0.000000
H974  H     H_    0.736380 0.828853 0.472517 0.000000
H975  H     H_    0.711538 0.874405 0.508633 0.000000
H976  H     H_    0.652877 0.838792 0.505584 0.000000
H977  H     H_    0.666419 0.680834 0.553777 0.000000
H978  H     H_    0.716183 0.663326 0.592456 0.000000
H979  H     H_    0.794460 0.708266 0.600042 0.000000
H980  H     H_    0.819516 0.775951 0.569876 0.000000
C883  C     C_3   0.821811 0.677023 0.518393 0.000000
N295  N     N_3   0.870486 0.700794 0.519951 0.000000
C884  C     C_3   0.869888 0.750356 0.507073 0.000000
C885  C     C_R   0.903296 0.784394 0.519573 0.000000
N296  N     N_R   0.955619 0.781471 0.517831 0.000000
C886  C     C_R   0.968774 0.824757 0.528017 0.000000
C887  C     C_R   0.016409 0.841473 0.532410 0.000000
C888  C     C_R   0.020909 0.888257 0.542407 0.000000
C889  C     C_R   0.978143 0.917522 0.547463 0.000000
C890  C     C_R   0.930233 0.899749 0.543251 0.000000
C891  C     C_R   0.926842 0.852639 0.534092 0.000000
N297  N     N_R   0.884419 0.827935 0.529360 0.000000
H981  H     H_    0.794028 0.699091 0.506156 0.000000
H982  H     H_    0.827703 0.639261 0.510848 0.000000
H983  H     H_    0.807129 0.670883 0.537270 0.000000
H984  H     H_    0.893436 0.678738 0.509213 0.000000
H985  H     H_    0.888040 0.747023 0.489381 0.000000
H986  H     H_    0.831743 0.768268 0.504788 0.000000
H987  H     H_    0.049255 0.818495 0.528881 0.000000
H988  H     H_    0.058099 0.902303 0.546160 0.000000
H989  H     H_    0.982350 0.954174 0.555004 0.000000
H990  H     H_    0.896732 0.921930 0.547317 0.000000
C892  C     C_3   0.102454 0.593996 0.800645 0.000000
N298  N     N_3   0.089348 0.558141 0.820583 0.000000
C893  C     C_3   0.107130 0.575927 0.844233 0.000000
C894  C     C_R   0.106706 0.533838 0.862928 0.000000
N299  N     N_R   0.062954 0.509911 0.870377 0.000000
C895  C     C_R   0.082846 0.465911 0.879268 0.000000
C896  C     C_R   0.056478 0.424299 0.884559 0.000000
C897  C     C_R   0.083587 0.381382 0.891279 0.000000
C898  C     C_R   0.135575 0.380525 0.892615 0.000000
C899  C     C_R   0.161835 0.424250 0.889056 0.000000
C900  C     C_R   0.134253 0.465739 0.880471 0.000000
N300  N     N_R   0.151654 0.508837 0.870605 0.000000
H991  H     H_    0.070967 0.597542 0.786623 0.000000
H992  H     H_    0.109039 0.631650 0.807935 0.000000
H993  H     H_    0.136672 0.579649 0.791522 0.000000
H994  H     H_    0.108797 0.524066 0.817801 0.000000
H995  H     H_    0.146176 0.587075 0.842715 0.000000
H996  H     H_    0.084842 0.608124 0.850480 0.000000
H997  H     H_    0.016185 0.424747 0.884072 0.000000
H998  H     H_    0.063752 0.348818 0.896964 0.000000
H999  H     H_    0.154290 0.345380 0.897740 0.000000
H1000 H     H_    0.202419 0.425076 0.891429 0.000000
C901  C     C_3   0.031481 0.367491 0.945174 0.000000
N301  N     N_3   0.005137 0.411487 0.933227 0.000000
C902  C     C_3   0.030781 0.457357 0.939007 0.000000
C903  C     C_R   0.994652 0.499427 0.936612 0.000000
N302  N     N_R   0.967655 0.510370 0.914513 0.000000
C904  C     C_R   0.921238 0.520765 0.923167 0.000000
C905  C     C_R   0.876431 0.520393 0.910115 0.000000
C906  C     C_R   0.831572 0.524796 0.922652 0.000000
C907  C     C_R   0.832394 0.523753 0.948389 0.000000
C908  C     C_R   0.878052 0.518727 0.961511 0.000000
C909  C     C_R   0.921891 0.519442 0.948521 0.000000
N303  N     N_R   0.968889 0.509453 0.957845 0.000000
H1001 H     H_    0.007936 0.334331 0.943540 0.000000
H1002 H     H_    0.067701 0.358922 0.936857 0.000000
H1003 H     H_    0.039581 0.373736 0.964603 0.000000
H1004 H     H_    0.969860 0.413437 0.941431 0.000000
H1005 H     H_    0.038424 0.456999 0.958816 0.000000
H1006 H     H_    0.063596 0.464015 0.927443 0.000000
H1007 H     H_    0.876460 0.511062 0.890996 0.000000
H1008 H     H_    0.795788 0.524473 0.912516 0.000000
H1009 H     H_    0.797270 0.523753 0.958218 0.000000
H1010 H     H_    0.879097 0.512592 0.981337 0.000000
C910  C     C_3   0.972986 0.666226 0.791281 0.000000
N304  N     N_3   0.958081 0.662661 0.817052 0.000000
C911  C     C_3   0.999753 0.638863 0.831883 0.000000
C912  C     C_R   0.983975 0.627073 0.857825 0.000000
N305  N     N_R   0.968260 0.666698 0.871571 0.000000
C913  C     C_R   0.926345 0.649183 0.882142 0.000000
C914  C     C_R   0.891256 0.676892 0.894328 0.000000
C915  C     C_R   0.841857 0.661586 0.893792 0.000000
C916  C     C_R   0.828969 0.621793 0.879458 0.000000
C917  C     C_R   0.866365 0.593672 0.868385 0.000000
C918  C     C_R   0.916134 0.603289 0.873930 0.000000
N306  N     N_R   0.955869 0.584841 0.861871 0.000000
H1011 H     H_    0.010525 0.683376 0.789813 0.000000
H1012 H     H_    0.944634 0.690264 0.780211 0.000000
H1013 H     H_    0.974592 0.628035 0.783804 0.000000
H1014 H     H_    0.927634 0.638598 0.818014 0.000000
H1015 H     H_    0.009162 0.602881 0.823690 0.000000
H1016 H     H_    0.032057 0.664166 0.831850 0.000000
H1017 H     H_    0.900815 0.712357 0.901401 0.000000
H1018 H     H_    0.812639 0.683793 0.902264 0.000000
H1019 H     H_    0.789679 0.612813 0.876850 0.000000
H1020 H     H_    0.856705 0.563677 0.856466 0.000000
C919  C     C_3   0.851513 0.792818 0.925260 0.000000
N307  N     N_3   0.889637 0.774181 0.943887 0.000000
C920  C     C_3   0.939076 0.793464 0.937787 0.000000
C921  C     C_R   0.977019 0.751173 0.938929 0.000000
N308  N     N_R   0.994968 0.726594 0.960781 0.000000
C922  C     C_R   0.015197 0.683251 0.952422 0.000000
C923  C     C_R   0.038114 0.642472 0.965636 0.000000
C924  C     C_R   0.051303 0.600132 0.953448 0.000000
C925  C     C_R   0.047838 0.601166 0.928026 0.000000
C926  C     C_R   0.033070 0.645189 0.914894 0.000000
C927  C     C_R   0.012810 0.684151 0.927440 0.000000
N309  N     N_R   0.991668 0.727895 0.917929 0.000000
H1021 H     H_    0.815733 0.773272 0.928706 0.000000
H1022 H     H_    0.844145 0.833803 0.926329 0.000000
H1023 H     H_    0.863216 0.785532 0.906249 0.000000
H1024 H     H_    0.892122 0.735084 0.942873 0.000000
H1025 H     H_    0.938242 0.809866 0.918516 0.000000
H1026 H     H_    0.950234 0.821619 0.951210 0.000000
H1027 H     H_    0.045780 0.642056 0.985221 0.000000
H1028 H     H_    0.066737 0.567077 0.963677 0.000000
H1029 H     H_    0.060238 0.568553 0.918433 0.000000
H1030 H     H_    0.040810 0.649153 0.895583 0.000000
C928  C     C_3   0.080572 0.822890 0.939952 0.000000
N310  N     N_3   0.079859 0.810531 0.913996 0.000000
C929  C     C_3   0.108208 0.763531 0.910163 0.000000
C930  C     C_R   0.109553 0.756184 0.883256 0.000000
N311  N     N_R   0.065024 0.750869 0.869921 0.000000
C931  C     C_R   0.079316 0.759235 0.846465 0.000000
C932  C     C_R   0.048297 0.763358 0.825630 0.000000
C933  C     C_R   0.070153 0.775038 0.803130 0.000000
C934  C     C_R   0.121680 0.783231 0.802121 0.000000
C935  C     C_R   0.151918 0.779956 0.823541 0.000000
C936  C     C_R   0.130165 0.767428 0.845683 0.000000
N312  N     N_R   0.151820 0.764659 0.868820 0.000000
H1031 H     H_    0.074084 0.864155 0.941102 0.000000
H1032 H     H_    0.050432 0.804310 0.950131 0.000000
H1033 H     H_    0.116632 0.810888 0.949114 0.000000
H1034 H     H_    0.042244 0.805359 0.909041 0.000000
H1035 H     H_    0.146541 0.764577 0.917044 0.000000
H1036 H     H_    0.091263 0.731501 0.919853 0.000000
H1037 H     H_    0.008030 0.758227 0.826805 0.000000
H1038 H     H_    0.046879 0.778658 0.786312 0.000000
H1039 H     H_    0.138197 0.793448 0.784499 0.000000
H1040 H     H_    0.190790 0.789302 0.822790 0.000000
C937  C     C_3   0.499534 0.807992 0.623307 0.000000
N313  N     N_3   0.527152 0.828428 0.602162 0.000000
C938  C     C_3   0.526364 0.883023 0.601805 0.000000
C939  C     C_R   0.475276 0.906498 0.595279 0.000000
N314  N     N_R   0.438880 0.883972 0.580459 0.000000
C940  C     C_R   0.396689 0.892510 0.593486 0.000000
C941  C     C_R   0.351307 0.869371 0.591269 0.000000
C942  C     C_R   0.314454 0.878472 0.608327 0.000000
C943  C     C_R   0.324688 0.907529 0.628328 0.000000
C944  C     C_R   0.371666 0.928053 0.631224 0.000000
C945  C     C_R   0.406515 0.921775 0.613117 0.000000
N315  N     N_R   0.455407 0.934540 0.613679 0.000000
H1041 H     H_    0.506031 0.766420 0.624946 0.000000
H1042 H     H_    0.513027 0.823432 0.640906 0.000000
H1043 H     H_    0.458358 0.816023 0.620582 0.000000
H1044 H     H_    0.508431 0.819867 0.586107 0.000000
H1045 H     H_    0.534738 0.892890 0.620911 0.000000
H1046 H     H_    0.556069 0.897890 0.589799 0.000000
H1047 H     H_    0.345108 0.842523 0.577580 0.000000
H1048 H     H_    0.278482 0.860496 0.606812 0.000000
H1049 H     H_    0.296798 0.911831 0.642448 0.000000
H1050 H     H_    0.381583 0.944120 0.648326 0.000000
C946  C     C_3   0.272025 0.965331 0.913290 0.000000
N316  N     N_3   0.317488 0.976149 0.899915 0.000000
C947  C     C_3   0.317773 0.029517 0.892054 0.000000
C948  C     C_R   0.296302 0.039282 0.866426 0.000000
N317  N     N_R   0.312651 0.011196 0.847138 0.000000
C949  C     C_R   0.285517 0.031775 0.827659 0.000000
C950  C     C_R   0.282538 0.014939 0.804110 0.000000
C951  C     C_R   0.247136 0.038234 0.787630 0.000000
C952  C     C_R   0.218043 0.079416 0.794466 0.000000
C953  C     C_R   0.222718 0.096211 0.818207 0.000000
C954  C     C_R   0.255867 0.071134 0.834689 0.000000
N318  N     N_R   0.261227 0.078039 0.859268 0.000000
H1051 H     H_    0.270421 0.923924 0.916726 0.000000
H1052 H     H_    0.273159 0.983232 0.931379 0.000000
H1053 H     H_    0.238351 0.978637 0.902142 0.000000
H1054 H     H_    0.317101 0.954509 0.884471 0.000000
H1055 H     H_    0.298268 0.052401 0.905016 0.000000
H1056 H     H_    0.356880 0.041656 0.892612 0.000000
H1057 H     H_    0.304907 0.983050 0.798884 0.000000
H1058 H     H_    0.241764 0.023948 0.769376 0.000000
H1059 H     H_    0.190122 0.097130 0.781530 0.000000
H1060 H     H_    0.196992 0.123906 0.824609 0.000000
C955  C     C_3   0.460789 0.827317 0.913513 0.000000
N319  N     N_3   0.474185 0.877992 0.904981 0.000000
C956  C     C_3   0.431395 0.912275 0.908767 0.000000
C957  C     C_R   0.439822 0.962197 0.896213 0.000000
N320  N     N_R   0.469973 0.998538 0.905907 0.000000
C958  C     C_R   0.469157 0.034260 0.887181 0.000000
C959  C     C_R   0.498981 0.075525 0.884450 0.000000
C960  C     C_R   0.493265 0.106100 0.863033 0.000000
C961  C     C_R   0.455840 0.097238 0.845567 0.000000
C962  C     C_R   0.425619 0.055840 0.848783 0.000000
C963  C     C_R   0.436339 0.022769 0.868861 0.000000
N321  N     N_R   0.418013 0.976492 0.873302 0.000000
H1061 H     H_    0.494183 0.801224 0.912333 0.000000
H1062 H     H_    0.448642 0.827200 0.933010 0.000000
H1063 H     H_    0.429471 0.813937 0.901815 0.000000
H1064 H     H_    0.479915 0.877669 0.885930 0.000000
H1065 H     H_    0.396430 0.896961 0.900835 0.000000
H1066 H     H_    0.427627 0.917157 0.928698 0.000000
H1067 H     H_    0.528454 0.082790 0.897644 0.000000
H1068 H     H_    0.517969 0.137223 0.860062 0.000000
H1069 H     H_    0.451240 0.121774 0.829013 0.000000
H1070 H     H_    0.398247 0.047548 0.834527 0.000000
C964  C     C_3   0.176764 0.913540 0.820204 0.000000
N322  N     N_3   0.212126 0.876080 0.831966 0.000000
C965  C     C_3   0.240995 0.899413 0.851198 0.000000
C966  C     C_R   0.285514 0.866341 0.858845 0.000000
N323  N     N_R   0.283707 0.813886 0.862587 0.000000
C967  C     C_R   0.333133 0.800229 0.859803 0.000000
C968  C     C_R   0.354471 0.752571 0.858414 0.000000
C969  C     C_R   0.405154 0.747912 0.852606 0.000000
C970  C     C_R   0.433987 0.790223 0.848692 0.000000
C971  C     C_R   0.412264 0.837939 0.850241 0.000000
C972  C     C_R   0.362070 0.841608 0.855902 0.000000
N324  N     N_R   0.333760 0.884296 0.855785 0.000000
H1071 H     H_    0.152968 0.895384 0.806237 0.000000
H1072 H     H_    0.152075 0.929024 0.834370 0.000000
H1073 H     H_    0.197546 0.944273 0.810705 0.000000
H1074 H     H_    0.237299 0.865509 0.818425 0.000000
H1075 H     H_    0.255404 0.935202 0.843424 0.000000
H1076 H     H_    0.217293 0.907700 0.866991 0.000000
H1077 H     H_    0.332673 0.719542 0.860458 0.000000
H1078 H     H_    0.422347 0.710892 0.850551 0.000000
H1079 H     H_    0.473348 0.785853 0.844015 0.000000
H1080 H     H_    0.433887 0.871256 0.846620 0.000000
C973  C     C_3   0.572133 0.939126 0.877550 0.000000
N325  N     N_3   0.573748 0.956142 0.902766 0.000000
C974  C     C_3   0.606808 0.998758 0.904094 0.000000
C975  C     C_R   0.613644 0.010543 0.930632 0.000000
N326  N     N_R   0.572946 0.006178 0.945752 0.000000
C976  C     C_R   0.594175 0.985934 0.967291 0.000000
C977  C     C_R   0.573287 0.975613 0.990001 0.000000
C978  C     C_R   0.601334 0.945604 0.007453 0.000000
C979  C     C_R   0.649940 0.928904 0.002579 0.000000
C980  C     C_R   0.672033 0.945625 0.980970 0.000000
C981  C     C_R   0.644111 0.977222 0.964626 0.000000
N327  N     N_R   0.658900 0.998143 0.943007 0.000000
H1081 H     H_    0.537098 0.954363 0.867914 0.000000
H1082 H     H_    0.605361 0.951406 0.866985 0.000000
H1083 H     H_    0.571608 0.897289 0.878240 0.000000
H1084 H     H_    0.589741 0.926560 0.914228 0.000000
H1085 H     H_    0.643616 0.987737 0.896898 0.000000
H1086 H     H_    0.591194 0.031295 0.892674 0.000000
H1087 H     H_    0.537449 0.991479 0.994924 0.000000
H1088 H     H_    0.585299 0.934778 0.024973 0.000000
H1089 H     H_    0.671057 0.904210 0.015989 0.000000
H1090 H     H_    0.709314 0.932744 0.976584 0.000000
C982  C     C_3   0.794060 0.864215 0.968282 0.000000
N328  N     N_3   0.843522 0.883988 0.973905 0.000000
C983  C     C_3   0.844925 0.936746 0.965516 0.000000
C984  C     C_R   0.813604 0.967938 0.981557 0.000000
N329  N     N_R   0.773097 0.998681 0.972520 0.000000
C985  C     C_R   0.756120 0.017240 0.993446 0.000000
C986  C     C_R   0.713671 0.046091 0.995637 0.000000
C987  C     C_R   0.703586 0.064852 0.018313 0.000000
C988  C     C_R   0.736173 0.054315 0.038264 0.000000
C989  C     C_R   0.777154 0.022052 0.035914 0.000000
C990  C     C_R   0.785097 0.001297 0.013451 0.000000
N330  N     N_R   0.822019 0.968523 0.007028 0.000000
H1091 H     H_    0.767859 0.872934 0.983221 0.000000
H1092 H     H_    0.778539 0.879762 0.950088 0.000000
H1093 H     H_    0.797653 0.822520 0.967872 0.000000
H1094 H     H_    0.870655 0.864178 0.964293 0.000000
H1095 H     H_    0.884481 0.949054 0.966906 0.000000
H1096 H     H_    0.830993 0.941809 0.946086 0.000000
H1097 H     H_    0.691180 0.055716 0.979338 0.000000
H1098 H     H_    0.672004 0.090316 0.020316 0.000000
H1099 H     H_    0.729511 0.071017 0.055804 0.000000
H1100 H     H_    0.801863 0.014906 0.051628 0.000000
C991  C     C_3   0.406695 0.808610 0.477704 0.000000
N331  N     N_3   0.439954 0.787701 0.497484 0.000000
C992  C     C_3   0.490693 0.803800 0.492717 0.000000
C993  C     C_R   0.519986 0.793476 0.516423 0.000000
N332  N     N_R   0.491573 0.797522 0.537364 0.000000
C994  C     C_R   0.507947 0.756969 0.551606 0.000000
C995  C     C_R   0.485497 0.736713 0.572365 0.000000
C996  C     C_R   0.505117 0.691704 0.583147 0.000000
C997  C     C_R   0.545064 0.666888 0.572341 0.000000
C998  C     C_R   0.565795 0.687023 0.550889 0.000000
C999  C     C_R   0.547815 0.733203 0.541020 0.000000
N333  N     N_R   0.559364 0.757084 0.519082 0.000000
H1101 H     H_    0.372195 0.786153 0.476742 0.000000
H1102 H     H_    0.395908 0.847556 0.482223 0.000000
H1103 H     H_    0.426056 0.808349 0.459739 0.000000
H1104 H     H_    0.439743 0.748476 0.497524 0.000000
H1105 H     H_    0.505122 0.783339 0.477166 0.000000
H1106 H     H_    0.489390 0.844137 0.486964 0.000000
H1107 H     H_    0.454036 0.756219 0.580343 0.000000
H1108 H     H_    0.488568 0.675289 0.599697 0.000000
H1109 H     H_    0.559311 0.630777 0.580316 0.000000
H1110 H     H_    0.593010 0.664794 0.541806 0.000000
C1000 C     C_3   0.736241 0.635778 0.463378 0.000000
N334  N     N_3   0.702464 0.679718 0.462333 0.000000
C1001 C     C_3   0.664377 0.673497 0.442945 0.000000
C1002 C     C_R   0.633930 0.720903 0.439991 0.000000
N335  N     N_R   0.623505 0.748964 0.460451 0.000000
C1003 C     C_R   0.605090 0.792228 0.449382 0.000000
C1004 C     C_R   0.582590 0.831863 0.460199 0.000000
C1005 C     C_R   0.563151 0.871123 0.444592 0.000000
C1006 C     C_R   0.577350 0.874998 0.420232 0.000000
C1007 C     C_R   0.599418 0.834321 0.409666 0.000000
C1008 C     C_R   0.607750 0.791413 0.424250 0.000000
N336  N     N_R   0.622025 0.745547 0.416949 0.000000
H1111 H     H_    0.764914 0.638518 0.478420 0.000000
H1112 H     H_    0.713911 0.602387 0.467328 0.000000
H1113 H     H_    0.755323 0.632772 0.445503 0.000000
H1114 H     H_    0.723602 0.710796 0.457258 0.000000
H1115 H     H_    0.682457 0.666855 0.425077 0.000000
H1116 H     H_    0.639874 0.642000 0.448479 0.000000
H1117 H     H_    0.579790 0.831763 0.479996 0.000000
H1118 H     H_    0.539827 0.900880 0.451357 0.000000
H1119 H     H_    0.566973 0.907956 0.408917 0.000000
H1120 H     H_    0.604791 0.835004 0.390334 0.000000
C1009 C     C_3   0.845166 0.704240 0.455364 0.000000
N337  N     N_3   0.888483 0.726100 0.442927 0.000000
C1010 C     C_3   0.934092 0.694157 0.447308 0.000000
C1011 C     C_R   0.980187 0.724636 0.442168 0.000000
N338  N     N_R   0.992583 0.744084 0.418547 0.000000
C1012 C     C_R   0.007710 0.790225 0.423844 0.000000
C1013 C     C_R   0.013200 0.829816 0.407023 0.000000
C1014 C     C_R   0.023255 0.876626 0.415572 0.000000
C1015 C     C_R   0.023321 0.883585 0.440818 0.000000
C1016 C     C_R   0.014306 0.843569 0.457481 0.000000
C1017 C     C_R   0.010251 0.795919 0.448723 0.000000
N339  N     N_R   0.997749 0.752733 0.461215 0.000000
H1121 H     H_    0.821841 0.734690 0.463150 0.000000
H1122 H     H_    0.820100 0.686172 0.442377 0.000000
H1123 H     H_    0.857012 0.675060 0.469858 0.000000
H1124 H     H_    0.894759 0.761377 0.449551 0.000000
H1125 H     H_    0.936767 0.681744 0.467080 0.000000
H1126 H     H_    0.930924 0.660652 0.436291 0.000000
H1127 H     H_    0.006114 0.824936 0.387789 0.000000
H1128 H     H_    0.027395 0.908531 0.402538 0.000000
H1129 H     H_    0.026920 0.921142 0.447396 0.000000
H1130 H     H_    0.007488 0.850630 0.476677 0.000000
C1018 C     C_3   0.112390 0.897770 0.489163 0.000000
N340  N     N_3   0.137225 0.851177 0.499233 0.000000
C1019 C     C_3   0.117951 0.809138 0.486138 0.000000
C1020 C     C_R   0.126596 0.761074 0.500667 0.000000
N341  N     N_R   0.173642 0.741497 0.509281 0.000000
C1021 C     C_R   0.160634 0.712347 0.528982 0.000000
C1022 C     C_R   0.193053 0.688487 0.546391 0.000000
C1023 C     C_R   0.171987 0.664235 0.566739 0.000000
C1024 C     C_R   0.119711 0.663675 0.568878 0.000000
C1025 C     C_R   0.087808 0.686568 0.550531 0.000000
C1026 C     C_R   0.109083 0.710596 0.530514 0.000000
N342  N     N_R   0.085567 0.738426 0.511572 0.000000
H1131 H     H_    0.134093 0.930328 0.495090 0.000000
H1132 H     H_    0.110688 0.898267 0.468660 0.000000
H1133 H     H_    0.073550 0.901189 0.496209 0.000000
H1134 H     H_    0.126264 0.846660 0.517637 0.000000
H1135 H     H_    0.077464 0.812453 0.486669 0.000000
H1136 H     H_    0.130984 0.809084 0.467007 0.000000
H1137 H     H_    0.233579 0.690235 0.544708 0.000000
H1138 H     H_    0.196351 0.646382 0.581274 0.000000
H1139 H     H_    0.103755 0.645680 0.585206 0.000000
H1140 H     H_    0.047992 0.688953 0.553019 0.000000
C1027 C     C_3   0.372246 0.124674 0.990537 0.000000
N343  N     N_3   0.377161 0.070297 0.992567 0.000000
C1028 C     C_3   0.429877 0.055832 0.993697 0.000000
C1029 C     C_R   0.434585 0.002309 0.988452 0.000000
N344  N     N_R   0.420559 0.964150 0.005020 0.000000
C1030 C     C_R   0.445230 0.923551 0.996448 0.000000
C1031 C     C_R   0.449854 0.875732 0.007541 0.000000
C1032 C     C_R   0.479836 0.840389 0.996219 0.000000
C1033 C     C_R   0.505029 0.853625 0.974626 0.000000
C1034 C     C_R   0.499830 0.902100 0.963771 0.000000
C1035 C     C_R   0.468832 0.936225 0.974911 0.000000
N345  N     N_R   0.462132 0.986073 0.968883 0.000000
H1141 H     H_    0.396893 0.140794 0.976337 0.000000
H1142 H     H_    0.332121 0.134817 0.986109 0.000000
H1143 H     H_    0.384427 0.140794 0.007919 0.000000
H1144 H     H_    0.360390 0.055376 0.977017 0.000000
H1145 H     H_    0.451102 0.077690 0.979856 0.000000
H1146 H     H_    0.445963 0.062159 0.012287 0.000000
H1147 H     H_    0.432262 0.866352 0.024967 0.000000
H1148 H     H_    0.484599 0.802479 0.004542 0.000000
H1149 H     H_    0.529190 0.825890 0.966305 0.000000
H1150 H     H_    0.520259 0.912899 0.947350 0.000000
C1036 C     C_3   0.741032 0.847970 0.080777 0.000000
N346  N     N_3   0.709886 0.892691 0.072993 0.000000
C1037 C     C_3   0.739563 0.935028 0.064163 0.000000
C1038 C     C_R   0.788337 0.939374 0.078613 0.000000
N347  N     N_R   0.789559 0.942386 0.104263 0.000000
C1039 C     C_R   0.835793 0.920719 0.110095 0.000000
C1040 C     C_R   0.856858 0.907552 0.133179 0.000000
C1041 C     C_R   0.902520 0.880390 0.134640 0.000000
C1042 C     C_R   0.925371 0.865248 0.113245 0.000000
C1043 C     C_R   0.904142 0.879638 0.090157 0.000000
C1044 C     C_R   0.861402 0.910203 0.089143 0.000000
N348  N     N_R   0.834946 0.926431 0.068556 0.000000
H1151 H     H_    0.717311 0.814303 0.080339 0.000000
H1152 H     H_    0.772670 0.842627 0.068212 0.000000
H1153 H     H_    0.755972 0.850407 0.100006 0.000000
H1154 H     H_    0.689210 0.904333 0.087827 0.000000
H1155 H     H_    0.747812 0.929274 0.044507 0.000000
H1156 H     H_    0.716134 0.969950 0.065737 0.000000
H1157 H     H_    0.838691 0.917422 0.149778 0.000000
H1158 H     H_    0.919512 0.869270 0.152633 0.000000
H1159 H     H_    0.959707 0.841859 0.114627 0.000000
H1160 H     H_    0.919674 0.865702 0.073401 0.000000
C1045 C     C_3   0.056430 0.915776 0.011470 0.000000
N349  N     N_3   0.001981 0.910438 0.009571 0.000000
C1046 C     C_3   0.994806 0.861794 0.021503 0.000000
C1047 C     C_R   0.945586 0.841621 0.015681 0.000000
N350  N     N_R   0.900136 0.864253 0.022189 0.000000
C1048 C     C_R   0.868484 0.826071 0.020356 0.000000
C1049 C     C_R   0.817919 0.827174 0.025078 0.000000
C1050 C     C_R   0.792117 0.783014 0.022908 0.000000
C1051 C     C_R   0.817577 0.739163 0.016412 0.000000
C1052 C     C_R   0.868700 0.739389 0.011442 0.000000
C1053 C     C_R   0.893226 0.783647 0.012925 0.000000
N351  N     N_R   0.942651 0.791900 0.009283 0.000000
H1161 H     H_    0.065308 0.955550 0.008149 0.000000
H1162 H     H_    0.070701 0.902991 0.030326 0.000000
H1163 H     H_    0.075770 0.892736 0.997704 0.000000
H1164 H     H_    0.991279 0.907804 0.990963 0.000000
H1165 H     H_    0.022112 0.835600 0.013755 0.000000
H1166 H     H_    0.999309 0.863613 0.041871 0.000000
H1167 H     H_    0.798787 0.861902 0.029578 0.000000
H1168 H     H_    0.752059 0.782589 0.026419 0.000000
H1169 H     H_    0.797344 0.704565 0.015242 0.000000
H1170 H     H_    0.888932 0.705730 0.007251 0.000000
C1054 C     C_3   0.175345 0.669185 0.952748 0.000000
N352  N     N_3   0.170233 0.711984 0.967695 0.000000
C1055 C     C_3   0.121180 0.712391 0.977360 0.000000
C1056 C     C_R   0.118347 0.749186 0.995820 0.000000
N353  N     N_R   0.161989 0.768317 0.005959 0.000000
C1057 C     C_R   0.144413 0.785488 0.027241 0.000000
C1058 C     C_R   0.171761 0.807188 0.045424 0.000000
C1059 C     C_R   0.147349 0.819508 0.066771 0.000000
C1060 C     C_R   0.096657 0.808949 0.069658 0.000000
C1061 C     C_R   0.069510 0.786658 0.051113 0.000000
C1062 C     C_R   0.093759 0.776209 0.029615 0.000000
N354  N     N_R   0.074728 0.754879 0.009168 0.000000
H1171 H     H_    0.205497 0.642437 0.960194 0.000000
H1172 H     H_    0.139021 0.650453 0.951259 0.000000
H1173 H     H_    0.186108 0.684107 0.934302 0.000000
H1174 H     H_    0.164581 0.741397 0.954669 0.000000
H1175 H     H_    0.094535 0.724372 0.962300 0.000000
H1176 H     H_    0.115345 0.676303 0.986968 0.000000
H1177 H     H_    0.210765 0.815114 0.042845 0.000000
H1178 H     H_    0.167938 0.837207 0.081353 0.000000
H1179 H     H_    0.078042 0.818653 0.086467 0.000000
H1180 H     H_    0.029965 0.779805 0.053298 0.000000
C1063 C     C_3   0.386675 0.695009 0.939162 0.000000
N355  N     N_3   0.344507 0.728617 0.930819 0.000000
C1064 C     C_3   0.297413 0.708469 0.940012 0.000000
C1065 C     C_R   0.257845 0.748538 0.937260 0.000000
N356  N     N_R   0.240592 0.770176 0.914675 0.000000
C1066 C     C_R   0.220927 0.814708 0.921441 0.000000
C1067 C     C_R   0.194683 0.850075 0.906503 0.000000
C1068 C     C_R   0.171754 0.890366 0.917544 0.000000
C1069 C     C_R   0.174606 0.893491 0.943141 0.000000
C1070 C     C_R   0.199990 0.856416 0.958021 0.000000
C1071 C     C_R   0.222082 0.817221 0.946500 0.000000
N357  N     N_R   0.243028 0.774755 0.957379 0.000000
H1181 H     H_    0.417904 0.698893 0.925960 0.000000
H1182 H     H_    0.400796 0.706170 0.957491 0.000000
H1183 H     H_    0.374534 0.655365 0.940654 0.000000
H1184 H     H_    0.343558 0.734392 0.911567 0.000000
H1185 H     H_    0.285130 0.674176 0.931516 0.000000
H1186 H     H_    0.302798 0.699065 0.959706 0.000000
H1187 H     H_    0.188595 0.844037 0.887148 0.000000
H1188 H     H_    0.149318 0.918190 0.906394 0.000000
H1189 H     H_    0.152651 0.922337 0.951502 0.000000
H1190 H     H_    0.199555 0.855971 0.977969 0.000000
C1072 C     C_3   0.319502 0.001517 0.485800 0.000000
N358  N     N_3   0.355008 0.965865 0.498956 0.000000
C1073 C     C_3   0.405725 0.984344 0.497349 0.000000
C1074 C     C_R   0.444077 0.941940 0.496356 0.000000
N359  N     N_R   0.454408 0.912137 0.518058 0.000000
C1075 C     C_R   0.504163 0.913371 0.519776 0.000000
C1076 C     C_R   0.532746 0.895837 0.539734 0.000000
C1077 C     C_R   0.583532 0.901251 0.539513 0.000000
C1078 C     C_R   0.604622 0.916860 0.517805 0.000000
C1079 C     C_R   0.574655 0.925775 0.496585 0.000000
C1080 C     C_R   0.523808 0.932315 0.498781 0.000000
N360  N     N_R   0.486987 0.951251 0.482464 0.000000
H1191 H     H_    0.280564 0.987887 0.487928 0.000000
H1192 H     H_    0.321786 0.039014 0.493849 0.000000
H1193 H     H_    0.327672 0.004675 0.465721 0.000000
H1194 H     H_    0.354230 0.931313 0.490823 0.000000
H1195 H     H_    0.409108 0.010504 0.480876 0.000000
H1196 H     H_    0.414237 0.005118 0.514184 0.000000
H1197 H     H_    0.515522 0.878679 0.555169 0.000000
H1198 H     H_    0.606549 0.891142 0.555683 0.000000
H1199 H     H_    0.644777 0.921162 0.517608 0.000000
H1200 H     H_    0.591444 0.928738 0.479209 0.000000
C1081 C     C_3   0.305234 0.743167 0.580071 0.000000
N361  N     N_3   0.357208 0.748048 0.572208 0.000000
C1082 C     C_3   0.360924 0.734172 0.546543 0.000000
C1083 C     C_R   0.346356 0.778005 0.529041 0.000000
N362  N     N_R   0.365702 0.824933 0.533306 0.000000
C1084 C     C_R   0.324679 0.855611 0.529400 0.000000
C1085 C     C_R   0.318862 0.903460 0.537688 0.000000
C1086 C     C_R   0.270373 0.923906 0.539106 0.000000
C1087 C     C_R   0.229234 0.894568 0.534283 0.000000
C1088 C     C_R   0.236573 0.846029 0.526501 0.000000
C1089 C     C_R   0.284409 0.828995 0.521813 0.000000
N363  N     N_R   0.298015 0.780492 0.518319 0.000000
H1201 H     H_    0.301873 0.757647 0.598901 0.000000
H1202 H     H_    0.278632 0.765507 0.567290 0.000000
H1203 H     H_    0.295172 0.702831 0.581042 0.000000
H1204 H     H_    0.378321 0.720781 0.583065 0.000000
H1205 H     H_    0.400229 0.721441 0.543144 0.000000
H1206 H     H_    0.334074 0.703833 0.543925 0.000000
H1207 H     H_    0.351055 0.923506 0.544278 0.000000
H1208 H     H_    0.264537 0.961213 0.545923 0.000000
H1209 H     H_    0.191467 0.908753 0.537850 0.000000
H1210 H     H_    0.206602 0.820051 0.526506 0.000000
C1090 C     C_3   0.463490 0.471187 0.263317 0.000000
N364  N     N_3   0.454089 0.428647 0.280554 0.000000
C1091 C     C_3   0.481344 0.384988 0.271740 0.000000
C1092 C     C_R   0.461396 0.336966 0.282172 0.000000
N365  N     N_R   0.427284 0.336965 0.301467 0.000000
C1093 C     C_R   0.397256 0.299060 0.295425 0.000000
C1094 C     C_R   0.353767 0.284716 0.306545 0.000000
C1095 C     C_R   0.327196 0.245883 0.296837 0.000000
C1096 C     C_R   0.343876 0.222919 0.275849 0.000000
C1097 C     C_R   0.387196 0.238764 0.264400 0.000000
C1098 C     C_R   0.413544 0.276610 0.274772 0.000000
N366  N     N_R   0.456658 0.296773 0.266698 0.000000
H1211 H     H_    0.439087 0.469186 0.246375 0.000000
H1212 H     H_    0.454346 0.507006 0.272191 0.000000
H1213 H     H_    0.503820 0.470585 0.258109 0.000000
H1214 H     H_    0.415576 0.422609 0.278460 0.000000
H1215 H     H_    0.473621 0.385362 0.251504 0.000000
H1216 H     H_    0.522152 0.386640 0.276095 0.000000
H1217 H     H_    0.339245 0.305079 0.321410 0.000000
H1218 H     H_    0.292506 0.234267 0.305281 0.000000
H1219 H     H_    0.322381 0.193226 0.268119 0.000000
H1220 H     H_    0.399205 0.222588 0.247511 0.000000
C1099 C     C_3   0.421263 0.391567 0.405732 0.000000
N367  N     N_3   0.369942 0.389560 0.396087 0.000000
C1100 C     C_3   0.357827 0.437954 0.383732 0.000000
C1101 C     C_R   0.328703 0.432285 0.360150 0.000000
N368  N     N_R   0.349027 0.410947 0.339576 0.000000
C1102 C     C_R   0.312621 0.421844 0.321913 0.000000
C1103 C     C_R   0.312386 0.410358 0.297373 0.000000
C1104 C     C_R   0.271480 0.427509 0.282358 0.000000
C1105 C     C_R   0.232111 0.455810 0.291932 0.000000
C1106 C     C_R   0.233089 0.467090 0.316685 0.000000
C1107 C     C_R   0.273673 0.449269 0.331309 0.000000
N369  N     N_R   0.281814 0.455742 0.355682 0.000000
H1221 H     H_    0.430687 0.355527 0.416139 0.000000
H1222 H     H_    0.448246 0.396597 0.390464 0.000000
H1223 H     H_    0.423808 0.423267 0.417947 0.000000
H1224 H     H_    0.346285 0.385438 0.411225 0.000000
H1225 H     H_    0.335150 0.460460 0.396331 0.000000
H1226 H     H_    0.392796 0.458134 0.379398 0.000000
H1227 H     H_    0.342673 0.388722 0.289783 0.000000
H1228 H     H_    0.270267 0.418936 0.262975 0.000000
H1229 H     H_    0.200417 0.468999 0.279990 0.000000
H1230 H     H_    0.202460 0.488570 0.324320 0.000000
C1108 C     C_3   0.582383 0.046973 0.508219 0.000000
N370  N     N_3   0.579439 0.027244 0.483905 0.000000
C1109 C     C_3   0.630198 0.013958 0.476740 0.000000
C1110 C     C_R   0.626569 0.992144 0.452055 0.000000
N371  N     N_R   0.580169 0.992649 0.439379 0.000000
C1111 C     C_R   0.595037 0.003457 0.416248 0.000000
C1112 C     C_R   0.568124 0.034586 0.399905 0.000000
C1113 C     C_R   0.590376 0.051363 0.378674 0.000000
C1114 C     C_R   0.641798 0.043442 0.375785 0.000000
C1115 C     C_R   0.670689 0.018623 0.394265 0.000000
C1116 C     C_R   0.646373 0.999317 0.414507 0.000000
N372  N     N_R   0.668057 0.990787 0.436981 0.000000
H1231 H     H_    0.613765 0.073286 0.509860 0.000000
H1232 H     H_    0.546253 0.066305 0.512454 0.000000
H1233 H     H_    0.589004 0.014349 0.521266 0.000000
H1234 H     H_    0.564327 0.054496 0.471270 0.000000
H1235 H     H_    0.651985 0.047906 0.475726 0.000000
H1236 H     H_    0.650081 0.988687 0.490825 0.000000
H1237 H     H_    0.530794 0.047068 0.403879 0.000000
H1238 H     H_    0.566854 0.072585 0.365075 0.000000
H1239 H     H_    0.660648 0.061331 0.360540 0.000000
H1240 H     H_    0.711137 0.020441 0.393832 0.000000
C1117 C     C_3   0.732872 0.799168 0.425225 0.000000
N373  N     N_3   0.756379 0.847860 0.423476 0.000000
C1118 C     C_3   0.729498 0.881825 0.405380 0.000000
C1119 C     C_R   0.765312 0.918970 0.395514 0.000000
N374  N     N_R   0.779132 0.960251 0.408607 0.000000
C1120 C     C_R   0.815445 0.979721 0.393844 0.000000
C1121 C     C_R   0.845038 0.020471 0.397213 0.000000
C1122 C     C_R   0.881071 0.032156 0.379837 0.000000
C1123 C     C_R   0.885167 0.005394 0.358547 0.000000
C1124 C     C_R   0.854526 0.965177 0.354996 0.000000
C1125 C     C_R   0.821392 0.952409 0.373227 0.000000
N375  N     N_R   0.790725 0.913344 0.373509 0.000000
H1241 H     H_    0.760094 0.771518 0.434505 0.000000
H1242 H     H_    0.699778 0.801648 0.436465 0.000000
H1243 H     H_    0.719506 0.786033 0.407188 0.000000
H1244 H     H_    0.793517 0.842832 0.417868 0.000000
H1245 H     H_    0.714377 0.860334 0.390641 0.000000
H1246 H     H_    0.697278 0.901743 0.413526 0.000000
H1247 H     H_    0.842119 0.042462 0.412921 0.000000
H1248 H     H_    0.905683 0.063192 0.382698 0.000000
H1249 H     H_    0.912347 0.016010 0.344734 0.000000
H1250 H     H_    0.856253 0.944808 0.338307 0.000000
C1126 C     C_3   0.764465 0.119980 0.197814 0.000000
N376  N     N_3   0.717746 0.093401 0.201316 0.000000
C1127 C     C_3   0.693391 0.113397 0.222505 0.000000
C1128 C     C_R   0.730978 0.110460 0.243204 0.000000
N377  N     N_R   0.756976 0.065369 0.249952 0.000000
C1129 C     C_R   0.796595 0.081535 0.263269 0.000000
C1130 C     C_R   0.837965 0.053620 0.272672 0.000000
C1131 C     C_R   0.876856 0.078515 0.283765 0.000000
C1132 C     C_R   0.873749 0.130484 0.285355 0.000000
C1133 C     C_R   0.831335 0.158062 0.276270 0.000000
C1134 C     C_R   0.793605 0.132909 0.264814 0.000000
N378  N     N_R   0.752635 0.153168 0.252073 0.000000
H1251 H     H_    0.777487 0.117737 0.178656 0.000000
H1252 H     H_    0.755981 0.159053 0.200955 0.000000
H1253 H     H_    0.796044 0.106276 0.210428 0.000000
H1254 H     H_    0.726520 0.056233 0.206559 0.000000
H1255 H     H_    0.680448 0.153071 0.217990 0.000000
H1256 H     H_    0.660858 0.090029 0.227456 0.000000
H1257 H     H_    0.841987 0.014087 0.270352 0.000000
H1258 H     H_    0.910416 0.057448 0.290736 0.000000
H1259 H     H_    0.905286 0.149566 0.293251 0.000000
H1260 H     H_    0.828902 0.198174 0.277631 0.000000
C1135 C     C_3   0.607180 0.160345 0.298072 0.000000
N379  N     N_3   0.582112 0.178075 0.275123 0.000000
C1136 C     C_3   0.614182 0.178342 0.253862 0.000000
C1137 C     C_R   0.618613 0.231062 0.244138 0.000000
N380  N     N_R   0.577966 0.265417 0.242425 0.000000
C1138 C     C_R   0.601514 0.309882 0.240578 0.000000
C1139 C     C_R   0.580313 0.357384 0.237562 0.000000
C1140 C     C_R   0.611826 0.397967 0.235679 0.000000
C1141 C     C_R   0.663979 0.390368 0.237627 0.000000
C1142 C     C_R   0.684989 0.341872 0.240015 0.000000
C1143 C     C_R   0.652602 0.302350 0.240472 0.000000
N381  N     N_R   0.665131 0.252749 0.242137 0.000000
H1261 H     H_    0.614445 0.191517 0.310083 0.000000
H1262 H     H_    0.579175 0.137521 0.307699 0.000000
H1263 H     H_    0.643144 0.139527 0.295414 0.000000
H1264 H     H_    0.567953 0.214051 0.277899 0.000000
H1265 H     H_    0.652204 0.163017 0.258864 0.000000
H1266 H     H_    0.597073 0.154792 0.239913 0.000000
H1267 H     H_    0.540433 0.362445 0.235034 0.000000
H1268 H     H_    0.595640 0.435886 0.232916 0.000000
H1269 H     H_    0.688272 0.422355 0.236500 0.000000
H1270 H     H_    0.725529 0.335525 0.240328 0.000000
C1144 C     C_3   0.668103 0.817957 0.287373 0.000000
N382  N     N_3   0.714029 0.842311 0.294767 0.000000
C1145 C     C_3   0.707949 0.896415 0.289017 0.000000
C1146 C     C_R   0.756603 0.920935 0.293802 0.000000
N383  N     N_R   0.793321 0.893806 0.308188 0.000000
C1147 C     C_R   0.830925 0.889936 0.291832 0.000000
C1148 C     C_R   0.863118 0.848998 0.289989 0.000000
C1149 C     C_R   0.891459 0.845689 0.268791 0.000000
C1150 C     C_R   0.886886 0.882903 0.249744 0.000000
C1151 C     C_R   0.850307 0.920953 0.250733 0.000000
C1152 C     C_R   0.821304 0.921525 0.271430 0.000000
N384  N     N_R   0.775438 0.943894 0.272739 0.000000
H1271 H     H_    0.634649 0.837737 0.294676 0.000000
H1272 H     H_    0.665414 0.817594 0.266891 0.000000
H1273 H     H_    0.669400 0.778387 0.294968 0.000000
H1274 H     H_    0.742250 0.828764 0.283415 0.000000
H1275 H     H_    0.700612 0.901711 0.268952 0.000000
H1276 H     H_    0.675669 0.914049 0.298069 0.000000
H1277 H     H_    0.863441 0.818609 0.303934 0.000000
H1278 H     H_    0.916939 0.813526 0.266860 0.000000
H1279 H     H_    0.909264 0.880026 0.233341 0.000000
H1280 H     H_    0.842633 0.947406 0.235150 0.000000

loop_
_geom_bond_atom_site_label_1
_geom_bond_atom_site_label_2
_geom_bond_distance
_geom_bond_site_symmetry_2
_ccdc_geom_bond_type
Zn1   N2    2.123 .      S
Zn1   N12   2.115 .      S
Zn1   N236  2.078 .      S
Zn1   N369  2.070 .      S
Zn2   N5    2.159 .      S
Zn2   N17   2.062 1_565  S
Zn2   N41   2.128 .      S
Zn2   N344  2.093 .      S
Zn3   N8    2.088 .      S
Zn3   N11   2.076 1_655  S
Zn3   N104  2.069 .      S
Zn3   N147  2.163 .      S
Zn4   N14   2.109 .      S
Zn4   N239  2.174 .      S
Zn4   N341  2.126 .      S
Zn4   N363  2.160 .      S
Zn5   N18   2.073 1_556  S
Zn5   N21   2.080 1_556  S
Zn5   N51   2.178 .      S
Zn5   N71   2.010 1_556  S
Zn6   N24   2.198 .      S
Zn6   N35   2.043 .      S
Zn6   N234  2.149 .      S
Zn6   N248  2.155 .      S
Zn7   N26   2.053 .      S
Zn7   N45   2.125 .      S
Zn7   N377  2.132 1_565  S
Zn7   N384  2.049 .      S
Zn8   N6    2.178 1_545  S
Zn8   N30   2.128 1_545  S
Zn8   N47   2.130 1_545  S
Zn8   N251  2.048 .      S
Zn9   N32   2.149 .      S
Zn9   N254  2.088 .      S
Zn9   N366  2.157 .      S
Zn9   N380  2.100 .      S
Zn10  N23   2.205 1_545  S
Zn10  N27   2.133 1_545  S
Zn10  N29   2.153 1_545  S
Zn10  N33   2.190 .      S
Zn11  N36   2.083 .      S
Zn11  N39   2.069 .      S
Zn11  N156  1.998 .      S
Zn11  N336  2.171 .      S
Zn12  N42   2.156 1_556  S
Zn12  N129  2.060 1_556  S
Zn12  N353  2.159 1_556  S
Zn12  N357  2.076 .      S
Zn13  N44   2.111 .      S
Zn13  N48   2.171 .      S
Zn13  N114  2.111 1_565  S
Zn13  N347  2.151 .      S
Zn14  N50   2.133 .      S
Zn14  N257  2.093 .      S
Zn14  N284  2.042 .      S
Zn14  N318  2.129 .      S
Zn15  N53   2.159 .      S
Zn15  N57   2.116 .      S
Zn15  N260  2.058 .      S
Zn15  N281  1.995 .      S
Zn16  N60   2.085 .      S
Zn16  N63   2.116 .      S
Zn16  N264  2.206 .      S
Zn16  N300  2.114 .      S
Zn17  N65   2.049 .      S
Zn17  N68   2.109 .      S
Zn17  N72   2.049 1_655  S
Zn17  N288  2.136 1_554  S
Zn18  N75   2.109 .      S
Zn18  N77   2.206 .      S
Zn18  N81   2.055 .      S
Zn18  N222  2.068 .      S
Zn19  N83   2.084 .      S
Zn19  N87   2.208 .      S
Zn19  N89   2.088 .      S
Zn19  N267  2.147 .      S
Zn20  N80   2.124 .      S
Zn20  N92   1.999 .      S
Zn20  N96   2.223 .      S
Zn20  N270  2.145 .      S
Zn21  N98   2.163 1_655  S
Zn21  N102  2.119 .      S
Zn21  N105  2.142 .      S
Zn21  N272  2.134 .      S
Zn22  N107  2.197 .      S
Zn22  N111  2.155 .      S
Zn22  N113  2.156 .      S
Zn22  N132  2.124 .      S
Zn23  N9    2.137 .      S
Zn23  N117  2.107 1_655  S
Zn23  N120  2.059 .      S
Zn23  N338  2.132 .      S
Zn24  N20   2.113 .      S
Zn24  N54   2.036 .      S
Zn24  N122  2.145 .      S
Zn24  N126  2.105 .      S
Zn25  N59   2.176 .      S
Zn25  N123  2.138 1_556  S
Zn25  N128  2.153 1_556  S
Zn25  N137  2.176 1_556  S
Zn26  N66   2.064 .      S
Zn26  N131  2.077 .      S
Zn26  N135  2.155 .      S
Zn26  N278  2.150 .      S
Zn27  N134  2.177 1_556  S
Zn27  N138  2.212 1_656  S
Zn27  N140  2.124 1_556  S
Zn27  N303  2.126 .      S
Zn28  N90   2.035 .      S
Zn28  N144  2.186 .      S
Zn28  N146  2.117 .      S
Zn28  N150  2.116 .      S
Zn29  N95   2.093 .      S
Zn29  N149  2.111 .      S
Zn29  N152  2.128 .      S
Zn29  N155  2.002 .      S
Zn30  N158  2.264 .      S
Zn30  N161  2.134 .      S
Zn30  N164  2.159 .      S
Zn30  N167  2.255 .      S
Zn31  N159  2.210 .      S
Zn31  N170  2.137 .      S
Zn31  N173  2.171 .      S
Zn31  N176  2.159 .      S
Zn32  N162  2.154 1_565  S
Zn32  N179  2.140 .      S
Zn32  N182  2.035 .      S
Zn32  N186  2.172 .      S
Zn33  N165  2.186 .      S
Zn33  N189  2.111 .      S
Zn33  N191  2.045 .      S
Zn33  N194  2.188 .      S
Zn34  N168  2.219 .      S
Zn34  N198  2.210 .      S
Zn34  N200  2.104 .      S
Zn34  N204  2.193 .      S
Zn35  N183  2.079 .      S
Zn35  N207  2.166 .      S
Zn35  N210  2.065 .      S
Zn35  N213  2.094 .      S
Zn36  N177  2.210 1_565  S
Zn36  N185  2.186 .      S
Zn36  N215  2.158 .      S
Zn36  N218  2.106 .      S
Zn37  N171  2.156 .      S
Zn37  N197  2.132 .      S
Zn37  N221  2.079 .      S
Zn37  N225  2.110 .      S
Zn38  N180  2.146 .      S
Zn38  N201  2.123 1_565  S
Zn38  N227  2.024 .      S
Zn38  N230  2.116 .      S
Zn39  N233  2.164 .      S
Zn39  N246  2.073 1_565  S
Zn39  N360  2.191 .      S
Zn39  N371  2.169 .      S
Zn40  N74   2.068 .      S
Zn40  N99   2.123 .      S
Zn40  N237  2.041 .      S
Zn40  N240  2.151 .      S
Zn41  N78   2.217 .      S
Zn41  N86   2.186 .      S
Zn41  N243  2.193 .      S
Zn41  N245  2.089 .      S
Zn42  N3    2.106 .      S
Zn42  N15   2.113 .      S
Zn42  N116  2.052 .      S
Zn42  N249  2.125 .      S
Zn43  N110  2.113 .      S
Zn43  N125  2.042 .      S
Zn43  N252  2.055 .      S
Zn43  N255  2.178 .      S
Zn44  N203  2.122 .      S
Zn44  N258  2.046 .      S
Zn44  N261  2.055 .      S
Zn44  N263  2.204 .      S
Zn45  N174  2.147 .      S
Zn45  N266  2.153 .      S
Zn45  N269  2.095 .      S
Zn45  N273  2.144 .      S
Zn46  N188  2.037 .      S
Zn46  N276  2.111 .      S
Zn46  N279  2.149 .      S
Zn46  N282  2.045 .      S
Zn47  N192  2.136 .      S
Zn47  N209  2.056 .      S
Zn47  N285  1.964 1_655  S
Zn47  N287  2.140 .      S
Zn48  N216  2.119 .      S
Zn48  N290  2.067 .      S
Zn48  N294  2.060 .      S
Zn48  N297  2.079 .      S
Zn49  N195  2.154 .      S
Zn49  N299  2.129 1_655  S
Zn49  N302  2.149 .      S
Zn49  N306  2.082 .      S
Zn50  N212  2.097 .      S
Zn50  N305  2.052 .      S
Zn50  N309  2.032 .      S
Zn50  N311  2.078 1_655  S
Zn51  N219  2.096 .      S
Zn51  N224  2.163 1_565  S
Zn51  N231  2.098 .      S
Zn51  N315  2.118 .      S
Zn52  N228  2.119 .      S
Zn52  N317  2.059 1_565  S
Zn52  N321  2.047 .      S
Zn52  N324  2.102 .      S
Zn53  N206  2.056 1_545  S
Zn53  N275  2.172 .      S
Zn53  N327  2.041 1_545  S
Zn53  N329  2.099 1_545  S
Zn54  N93   1.999 .      S
Zn54  N293  2.129 .      S
Zn54  N333  2.163 .      S
Zn54  N335  2.136 .      S
Zn55  N101  2.111 1_455  S
Zn55  N296  2.126 1_455  S
Zn55  N339  2.114 1_455  S
Zn55  N342  2.173 .      S
Zn56  N56   2.049 .      S
Zn56  N320  2.059 1_545  S
Zn56  N326  2.022 .      S
Zn56  N345  2.067 1_545  S
Zn57  N69   2.113 .      S
Zn57  N330  2.090 .      S
Zn57  N348  2.170 .      S
Zn57  N350  2.098 .      S
Zn58  N141  2.083 1_556  S
Zn58  N308  2.064 .      S
Zn58  N351  2.139 1_556  S
Zn58  N354  2.194 1_656  S
Zn59  N62   2.125 .      S
Zn59  N312  2.162 .      S
Zn59  N323  2.159 .      S
Zn59  N356  2.060 .      S
Zn60  N314  2.191 .      S
Zn60  N332  2.106 .      S
Zn60  N359  2.090 .      S
Zn60  N362  2.097 .      S
Zn61  N153  2.112 .      S
Zn61  N242  2.091 .      S
Zn61  N365  2.153 .      S
Zn61  N368  2.071 .      S
Zn62  N84   2.044 1_565  S
Zn62  N291  2.091 .      S
Zn62  N372  2.073 .      S
Zn62  N374  2.154 .      S
Zn63  N108  2.094 .      S
Zn63  N143  2.187 .      S
Zn63  N378  2.112 .      S
Zn63  N381  2.065 .      S
Zn64  N38   2.003 .      S
Zn64  N119  2.049 .      S
Zn64  N375  2.105 .      S
Zn64  N383  2.124 .      S
C1    N1    1.451 .      S
C1    H1    1.109 .      S
C1    H2    1.106 .      S
C1    H3    1.106 .      S
N1    C2    1.458 .      S
N1    H4    1.042 .      S
C2    C3    1.483 .      S
C2    H5    1.092 .      S
C2    H6    1.106 .      S
C5    H7    1.043 .      S
C6    H8    1.074 .      S
C7    H9    1.071 .      S
C8    H10   1.071 .      S
C10   N4    1.456 .      S
C10   H11   1.110 .      S
C10   H12   1.107 .      S
C10   H13   1.101 .      S
N4    C11   1.458 1_565  S
N4    H14   1.034 .      S
C11   N4    1.458 1_545  S
C11   C12   1.470 1_545  S
C11   H15   1.105 .      S
C11   H16   1.101 .      S
C12   C11   1.470 1_565  S
C14   H17   1.078 .      S
C15   H18   1.081 .      S
C16   H19   1.081 .      S
C17   H20   1.076 .      S
N6    Zn8   2.178 1_565  S
C19   N7    1.451 .      S
C19   H21   1.108 .      S
C19   H22   1.109 .      S
C19   H23   1.103 .      S
N7    C20   1.446 .      S
N7    H24   1.044 .      S
C20   C21   1.485 .      S
C20   H25   1.107 .      S
C20   H26   1.086 .      S
C23   H27   1.074 .      S
C24   H28   1.080 .      S
C25   H29   1.081 .      S
C26   H30   1.066 .      S
C28   N10   1.444 .      S
C28   H31   1.099 .      S
C28   H32   1.097 .      S
C28   H33   1.098 .      S
N10   C29   1.447 .      S
N10   H34   1.043 .      S
C29   C30   1.460 .      S
C29   H35   1.096 .      S
C29   H36   1.093 .      S
N11   Zn3   2.076 1_455  S
C32   H37   1.076 .      S
C33   H38   1.081 .      S
C34   H39   1.081 .      S
C35   H40   1.072 .      S
C37   N13   1.447 .      S
C37   H41   1.096 .      S
C37   H42   1.103 .      S
C37   H43   1.101 .      S
N13   C38   1.442 .      S
N13   H44   1.042 .      S
C38   C39   1.452 .      S
C38   H45   1.099 .      S
C38   H46   1.101 .      S
C41   H47   1.066 .      S
C42   H48   1.081 .      S
C43   H49   1.081 .      S
C44   H50   1.070 .      S
C46   N16   1.438 .      S
C46   H51   1.076 .      S
C46   H52   1.080 .      S
C46   H53   1.104 .      S
N16   C47   1.432 .      S
N16   H54   1.039 .      S
C47   C48   1.460 .      S
C47   H55   1.109 .      S
C47   H56   1.093 .      S
N17   Zn2   2.062 1_545  S
C50   H57   1.072 .      S
C51   H58   1.080 .      S
C52   H59   1.074 .      S
C53   H60   1.071 .      S
N18   Zn5   2.073 1_554  S
C55   N19   1.432 .      S
C55   H61   1.087 .      S
C55   H62   1.094 .      S
C55   H63   1.093 .      S
N19   C56   1.427 .      S
N19   H64   1.032 .      S
C56   C57   1.454 1_556  S
C56   H65   1.094 .      S
C56   H66   1.088 .      S
C57   C56   1.454 1_554  S
C59   H67   1.052 .      S
C60   H68   1.081 .      S
C61   H69   1.081 .      S
C62   H70   1.061 .      S
N21   Zn5   2.080 1_554  S
C64   N22   1.460 .      S
C64   H71   1.105 .      S
C64   H72   1.107 .      S
C64   H73   1.096 .      S
N22   C65   1.459 .      S
N22   H74   1.043 .      S
C65   C66   1.482 .      S
C65   H75   1.100 .      S
C65   H76   1.105 .      S
N23   Zn10  2.205 1_565  S
C68   H77   1.077 .      S
C69   H78   1.081 .      S
C70   H79   1.080 .      S
C71   H80   1.076 .      S
C73   N25   1.460 .      S
C73   H81   1.109 .      S
C73   H82   1.108 .      S
C73   H83   1.104 .      S
N25   C74   1.453 .      S
N25   H84   1.030 .      S
C74   C75   1.491 .      S
C74   H85   1.100 .      S
C74   H86   1.098 .      S
C77   H87   1.070 .      S
C78   H88   1.078 .      S
C79   H89   1.064 .      S
C80   H90   1.043 .      S
N27   Zn10  2.133 1_565  S
C82   N28   1.452 .      S
C82   H91   1.096 1_565  S
C82   H92   1.099 1_565  S
C82   H93   1.105 .      S
N28   C83   1.436 .      S
N28   H94   1.030 1_565  S
C83   C84   1.470 .      S
C83   H95   1.067 .      S
C83   H96   1.099 .      S
N29   Zn10  2.153 1_565  S
C86   H97   1.065 1_545  S
C87   H98   1.081 .      S
C88   H99   1.081 .      S
C89   H100  1.073 .      S
N30   Zn8   2.128 1_565  S
H91   C82   1.096 1_545  S
H92   C82   1.099 1_545  S
H94   N28   1.030 1_545  S
H97   C86   1.065 1_565  S
C91   N31   1.451 .      S
C91   H101  1.109 .      S
C91   H102  1.105 .      S
C91   H103  1.109 .      S
N31   C92   1.453 .      S
N31   H104  1.041 .      S
C92   C93   1.487 .      S
C92   H105  1.103 .      S
C92   H106  1.103 .      S
C95   H107  1.066 .      S
C96   H108  1.076 .      S
C97   H109  1.069 .      S
C98   H110  1.055 .      S
C100  N34   1.438 .      S
C100  H111  1.090 .      S
C100  H112  1.106 .      S
C100  H113  1.101 .      S
N34   C101  1.438 .      S
N34   H114  1.043 .      S
C101  C102  1.479 .      S
C101  H115  1.092 .      S
C101  H116  1.095 .      S
C104  H117  1.061 .      S
C105  H118  1.081 .      S
C106  H119  1.081 .      S
C107  H120  1.062 .      S
C109  N37   1.453 .      S
C109  H121  1.109 .      S
C109  H122  1.105 .      S
C109  H123  1.110 .      S
N37   C110  1.453 .      S
N37   H124  1.044 .      S
C110  C111  1.511 .      S
C110  H125  1.105 .      S
C110  H126  1.088 .      S
C113  H127  1.073 .      S
C114  H128  1.070 .      S
C115  H129  1.055 .      S
C116  H130  1.058 .      S
C118  N40   1.453 .      S
C118  H131  1.109 .      S
C118  H132  1.109 .      S
C118  H133  1.109 .      S
N40   C119  1.453 .      S
N40   H134  1.044 .      S
C119  C120  1.486 .      S
C119  H135  1.109 .      S
C119  H136  1.106 .      S
C122  H137  1.072 .      S
C123  H138  1.073 .      S
C124  H139  1.079 .      S
C125  H140  1.066 .      S
N42   Zn12  2.156 1_554  S
C127  N43   1.452 1_545  S
C127  H141  1.109 .      S
C127  H142  1.109 1_545  S
C127  H143  1.109 .      S
N43   C127  1.452 1_565  S
N43   C128  1.452 1_565  S
N43   H144  1.043 .      S
C128  N43   1.452 1_545  S
C128  C129  1.484 1_545  S
C128  H145  1.103 .      S
C128  H146  1.096 .      S
C129  C128  1.484 1_565  S
C131  H147  1.076 .      S
C132  H148  1.081 .      S
C133  H149  1.081 .      S
C134  H150  1.074 .      S
H142  C127  1.109 1_565  S
C136  N46   1.443 .      S
C136  H151  1.102 .      S
C136  H152  1.104 .      S
C136  H153  1.089 .      S
N46   C137  1.452 .      S
N46   H154  1.042 1_545  S
C137  C138  1.473 .      S
C137  H155  1.108 .      S
C137  H156  1.109 .      S
N47   Zn8   2.130 1_565  S
C140  H157  1.081 .      S
C141  H158  1.081 .      S
C142  H159  1.081 .      S
C143  H160  1.062 .      S
H154  N46   1.042 1_565  S
C145  N49   1.436 .      S
C145  H161  1.099 .      S
C145  H162  1.101 1_545  S
C145  H163  1.093 .      S
N49   C146  1.438 .      S
N49   H164  1.042 .      S
C146  C147  1.442 .      S
C146  H165  1.103 .      S
C146  H166  1.088 .      S
C149  H167  1.058 .      S
C150  H168  1.078 .      S
C151  H169  1.065 .      S
C152  H170  1.047 .      S
H162  C145  1.101 1_565  S
C154  N52   1.449 .      S
C154  H171  1.109 .      S
C154  H172  1.108 .      S
C154  H173  1.108 .      S
N52   C155  1.452 .      S
N52   H174  1.042 .      S
C155  C156  1.498 .      S
C155  H175  1.109 1_556  S
C155  H176  1.097 .      S
C158  H177  1.059 .      S
C159  H178  1.075 .      S
C160  H179  1.076 .      S
C161  H180  1.069 .      S
H175  C155  1.109 1_554  S
C163  N55   1.423 .      S
C163  H181  1.102 .      S
C163  H182  1.093 .      S
C163  H183  1.104 .      S
N55   C164  1.445 .      S
N55   H184  1.038 .      S
C164  C165  1.453 .      S
C164  H185  1.095 .      S
C164  H186  1.108 .      S
C167  H187  1.080 .      S
C168  H188  1.070 .      S
C169  H189  1.057 .      S
C170  H190  1.063 .      S
C172  N58   1.452 .      S
C172  H191  1.085 .      S
C172  H192  1.091 .      S
C172  H193  1.104 .      S
N58   C173  1.449 .      S
N58   H194  1.037 .      S
C173  C174  1.472 .      S
C173  H195  1.102 .      S
C173  H196  1.102 .      S
C176  H197  1.054 .      S
C177  H198  1.076 .      S
C178  H199  1.081 .      S
C179  H200  1.075 .      S
C181  N61   1.451 .      S
C181  H201  1.104 .      S
C181  H202  1.105 .      S
C181  H203  1.109 .      S
N61   C182  1.452 .      S
N61   H204  1.031 .      S
C182  C183  1.480 .      S
C182  H205  1.103 .      S
C182  H206  1.082 .      S
C185  H207  1.078 .      S
C186  H208  1.081 .      S
C187  H209  1.081 .      S
C188  H210  1.081 .      S
C190  N64   1.453 1_455  S
C190  H211  1.109 .      S
C190  H212  1.110 .      S
C190  H213  1.109 .      S
N64   C190  1.453 1_655  S
N64   C191  1.451 .      S
N64   H214  1.044 .      S
C191  C192  1.490 .      S
C191  H215  1.107 .      S
C191  H216  1.098 1_655  S
C194  H217  1.066 .      S
C195  H218  1.078 .      S
C196  H219  1.066 .      S
C197  H220  1.068 .      S
H216  C191  1.098 1_455  S
C199  N67   1.446 .      S
C199  H221  1.107 .      S
C199  H222  1.097 .      S
C199  H223  1.096 .      S
N67   C200  1.452 .      S
N67   H224  1.041 .      S
C200  C201  1.457 .      S
C200  H225  1.101 .      S
C200  H226  1.071 .      S
C203  H227  1.078 .      S
C204  H228  1.081 .      S
C205  H229  1.081 .      S
C206  H230  1.062 .      S
C208  N70   1.459 1_565  S
C208  H231  1.105 .      S
C208  H232  1.103 .      S
C208  H233  1.104 1_565  S
N70   C208  1.459 1_545  S
N70   C209  1.438 .      S
N70   H234  1.031 .      S
C209  C210  1.492 .      S
C209  H235  1.104 .      S
C209  H236  1.102 .      S
N71   Zn5   2.010 1_554  S
C212  H237  1.057 .      S
C213  H238  1.076 .      S
C214  H239  1.057 .      S
C215  H240  1.036 .      S
N72   Zn17  2.049 1_455  S
H233  C208  1.104 1_545  S
C217  N73   1.443 .      S
C217  H241  1.096 .      S
C217  H242  1.094 .      S
C217  H243  1.094 .      S
N73   C218  1.447 .      S
N73   H244  1.043 .      S
C218  C219  1.483 .      S
C218  H245  1.109 .      S
C218  H246  1.101 .      S
C221  H247  1.072 .      S
C222  H248  1.081 .      S
C223  H249  1.081 .      S
C224  H250  1.077 .      S
C226  N76   1.459 .      S
C226  H251  1.105 .      S
C226  H252  1.109 .      S
C226  H253  1.099 .      S
N76   C227  1.443 .      S
N76   H254  1.030 .      S
C227  C228  1.493 .      S
C227  H255  1.092 .      S
C227  H256  1.107 .      S
C230  H257  1.059 .      S
C231  H258  1.080 .      S
C232  H259  1.081 .      S
C233  H260  1.062 .      S
C235  N79   1.437 .      S
C235  H261  1.068 .      S
C235  H262  1.092 .      S
C235  H263  1.103 .      S
N79   C236  1.423 .      S
N79   H264  1.038 .      S
C236  C237  1.426 .      S
C236  H265  1.090 .      S
C236  H266  1.100 .      S
C239  H267  1.080 .      S
C240  H268  1.080 .      S
C241  H269  1.081 .      S
C242  H270  1.078 .      S
C244  N82   1.447 .      S
C244  H271  1.091 .      S
C244  H272  1.108 .      S
C244  H273  1.093 .      S
N82   C245  1.447 .      S
N82   H274  1.044 .      S
C245  C246  1.459 .      S
C245  H275  1.065 .      S
C245  H276  1.097 .      S
C248  H277  1.061 .      S
C249  H278  1.081 .      S
C250  H279  1.081 .      S
C251  H280  1.076 .      S
N84   Zn62  2.044 1_545  S
C253  N85   1.450 .      S
C253  H281  1.108 .      S
C253  H282  1.079 .      S
C253  H283  1.100 .      S
N85   C254  1.443 .      S
N85   H284  1.025 .      S
C254  C255  1.401 .      S
C254  H285  1.091 .      S
C254  H286  1.084 .      S
C257  H287  1.074 .      S
C258  H288  1.063 .      S
C259  H289  1.081 .      S
C260  H290  1.059 .      S
C262  N88   1.429 .      S
C262  H291  1.100 .      S
C262  H292  1.107 .      S
C262  H293  1.104 .      S
N88   C263  1.437 .      S
N88   H294  1.035 .      S
C263  C264  1.467 .      S
C263  H295  1.101 .      S
C263  H296  1.105 .      S
C266  H297  1.076 .      S
C267  H298  1.076 .      S
C268  H299  1.075 .      S
C269  H300  1.077 .      S
C271  N91   1.454 .      S
C271  H301  1.108 .      S
C271  H302  1.102 .      S
C271  H303  1.106 .      S
N91   C272  1.455 .      S
N91   H304  1.041 .      S
C272  C273  1.486 .      S
C272  H305  1.104 .      S
C272  H306  1.102 .      S
C275  H307  1.051 .      S
C276  H308  1.076 .      S
C277  H309  1.064 .      S
C278  H310  1.050 .      S
C280  N94   1.451 .      S
C280  H311  1.105 .      S
C280  H312  1.098 .      S
C280  H313  1.104 .      S
N94   C281  1.446 .      S
N94   H314  1.038 .      S
C281  C282  1.471 .      S
C281  H315  1.081 .      S
C281  H316  1.101 .      S
C284  H317  1.046 .      S
C285  H318  1.077 .      S
C286  H319  1.076 .      S
C287  H320  1.056 .      S
C289  N97   1.453 .      S
C289  H321  1.109 .      S
C289  H322  1.109 .      S
C289  H323  1.109 .      S
N97   C290  1.451 .      S
N97   H324  1.043 .      S
C290  C291  1.481 .      S
C290  H325  1.100 .      S
C290  H326  1.105 .      S
N98   Zn21  2.163 1_455  S
C293  H327  1.066 .      S
C294  H328  1.081 .      S
C295  H329  1.080 .      S
C296  H330  1.080 .      S
C298  N100  1.445 .      S
C298  H331  1.098 .      S
C298  H332  1.091 1_455  S
C298  H333  1.089 .      S
N100  C299  1.425 .      S
N100  H334  1.028 .      S
C299  C300  1.455 1_455  S
C299  H335  1.100 .      S
C299  H336  1.093 .      S
C300  C299  1.455 1_655  S
N101  Zn55  2.111 1_655  S
C302  H337  1.079 .      S
C303  H338  1.081 .      S
C304  H339  1.081 .      S
C305  H340  1.079 .      S
H332  C298  1.091 1_655  S
C307  N103  1.452 .      S
C307  H341  1.105 .      S
C307  H342  1.109 .      S
C307  H343  1.108 .      S
N103  C308  1.451 .      S
N103  H344  1.039 .      S
C308  C309  1.473 .      S
C308  H345  1.108 .      S
C308  H346  1.085 .      S
C311  H347  1.075 .      S
C312  H348  1.076 .      S
C313  H349  1.074 .      S
C314  H350  1.068 .      S
C316  N106  1.456 .      S
C316  H351  1.109 .      S
C316  H352  1.110 .      S
C316  H353  1.106 .      S
N106  C317  1.456 .      S
N106  H354  1.042 .      S
C317  C318  1.456 .      S
C317  H355  1.100 .      S
C317  H356  1.080 .      S
C320  H357  1.057 .      S
C321  H358  1.081 .      S
C322  H359  1.081 .      S
C323  H360  1.073 .      S
C325  N109  1.453 .      S
C325  H361  1.109 .      S
C325  H362  1.107 .      S
C325  H363  1.109 .      S
N109  C326  1.450 .      S
N109  H364  1.042 .      S
C326  C327  1.495 .      S
C326  H365  1.106 .      S
C326  H366  1.094 .      S
C329  H367  1.078 .      S
C330  H368  1.074 .      S
C331  H369  1.074 .      S
C332  H370  1.073 .      S
C334  N112  1.403 .      S
C334  H371  1.097 .      S
C334  H372  1.095 .      S
C334  H373  1.098 .      S
N112  C335  1.431 .      S
N112  H374  1.026 .      S
C335  C336  1.429 .      S
C335  H375  1.107 .      S
C335  H376  1.093 .      S
C338  H377  1.075 .      S
C339  H378  1.080 .      S
C340  H379  1.081 .      S
C341  H380  1.065 .      S
N114  Zn13  2.111 1_545  S
C343  N115  1.445 .      S
C343  H381  1.092 .      S
C343  H382  1.105 .      S
C343  H383  1.097 .      S
N115  C344  1.430 .      S
N115  H384  1.034 .      S
C344  C345  1.459 .      S
C344  H385  1.098 .      S
C344  H386  1.100 .      S
C347  H387  1.070 .      S
C348  H388  1.081 .      S
C349  H389  1.081 .      S
C350  H390  1.051 .      S
N117  Zn23  2.107 1_455  S
C352  N118  1.457 .      S
C352  H391  1.109 .      S
C352  H392  1.097 .      S
C352  H393  1.103 .      S
N118  C353  1.466 .      S
N118  H394  1.042 .      S
C353  C354  1.489 .      S
C353  H395  1.105 .      S
C353  H396  1.096 .      S
C356  H397  1.052 .      S
C357  H398  1.079 .      S
C358  H399  1.067 .      S
C359  H400  1.065 .      S
C361  N121  1.464 .      S
C361  H401  1.103 .      S
C361  H402  1.095 .      S
C361  H403  1.109 .      S
N121  C362  1.453 1_554  S
N121  H404  1.037 1_554  S
C362  N121  1.453 1_556  S
C362  C363  1.441 1_556  S
C362  H405  1.097 .      S
C362  H406  1.096 .      S
C363  C362  1.441 1_554  S
C365  H407  1.070 .      S
C366  H408  1.081 .      S
C367  H409  1.081 .      S
C368  H410  1.077 .      S
N123  Zn25  2.138 1_554  S
H404  N121  1.037 1_556  S
C370  N124  1.454 .      S
C370  H411  1.107 .      S
C370  H412  1.108 .      S
C370  H413  1.110 .      S
N124  C371  1.453 .      S
N124  H414  1.044 .      S
C371  C372  1.484 .      S
C371  H415  1.104 .      S
C371  H416  1.107 .      S
C374  H417  1.077 .      S
C375  H418  1.081 .      S
C376  H419  1.081 .      S
C377  H420  1.078 .      S
C379  N127  1.450 .      S
C379  H421  1.103 .      S
C379  H422  1.109 .      S
C379  H423  1.105 .      S
N127  C380  1.435 .      S
N127  H424  1.039 .      S
C380  C381  1.483 .      S
C380  H425  1.097 .      S
C380  H426  1.109 .      S
N128  Zn25  2.153 1_554  S
C383  H427  1.060 .      S
C384  H428  1.081 .      S
C385  H429  1.081 .      S
C386  H430  1.077 .      S
N129  Zn12  2.060 1_554  S
C388  N130  1.447 .      S
C388  H431  1.108 .      S
C388  H432  1.106 .      S
C388  H433  1.104 .      S
N130  C389  1.450 .      S
N130  H434  1.037 .      S
C389  C390  1.475 .      S
C389  H435  1.091 .      S
C389  H436  1.094 .      S
C392  H437  1.076 .      S
C393  H438  1.081 .      S
C394  H439  1.081 .      S
C395  H440  1.072 .      S
C397  N133  1.454 .      S
C397  H441  1.108 .      S
C397  H442  1.107 .      S
C397  H443  1.104 .      S
N133  C398  1.456 1_455  S
N133  H444  1.039 .      S
C398  N133  1.456 1_655  S
C398  C399  1.450 .      S
C398  H445  1.094 1_554  S
C398  H446  1.106 .      S
N134  Zn27  2.177 1_554  S
C401  H447  1.064 .      S
C402  H448  1.081 .      S
C403  H449  1.081 .      S
C404  H450  1.073 .      S
H445  C398  1.094 1_556  S
C406  N136  1.432 .      S
C406  H451  1.081 .      S
C406  H452  1.108 .      S
C406  H453  1.101 .      S
N136  C407  1.426 .      S
N136  H454  1.031 .      S
C407  C408  1.463 .      S
C407  H455  1.079 .      S
C407  H456  1.085 .      S
N137  Zn25  2.176 1_554  S
C410  H457  1.074 .      S
C411  H458  1.081 .      S
C412  H459  1.081 .      S
C413  H460  1.075 .      S
N138  Zn27  2.212 1_454  S
C415  N139  1.454 .      S
C415  H461  1.108 .      S
C415  H462  1.109 .      S
C415  H463  1.108 .      S
N139  C416  1.456 .      S
N139  H464  1.035 .      S
C416  C417  1.495 .      S
C416  H465  1.098 .      S
C416  H466  1.094 .      S
N140  Zn27  2.124 1_554  S
C419  H467  1.074 .      S
C420  H468  1.081 .      S
C421  H469  1.081 .      S
C422  H470  1.071 1_655  S
N141  Zn58  2.083 1_554  S
H470  C422  1.071 1_455  S
C424  N142  1.453 .      S
C424  H471  1.109 .      S
C424  H472  1.109 .      S
C424  H473  1.109 .      S
N142  C425  1.453 .      S
N142  H474  1.042 .      S
C425  C426  1.491 .      S
C425  H475  1.107 .      S
C425  H476  1.109 .      S
C428  H477  1.073 .      S
C429  H478  1.055 .      S
C430  H479  1.061 .      S
C431  H480  1.068 .      S
C433  N145  1.452 .      S
C433  H481  1.109 .      S
C433  H482  1.104 .      S
C433  H483  1.107 .      S
N145  C434  1.452 .      S
N145  H484  1.037 .      S
C434  C435  1.477 .      S
C434  H485  1.107 .      S
C434  H486  1.101 .      S
C437  H487  1.079 .      S
C438  H488  1.081 .      S
C439  H489  1.081 .      S
C440  H490  1.063 .      S
C442  N148  1.453 .      S
C442  H491  1.108 .      S
C442  H492  1.109 .      S
C442  H493  1.105 .      S
N148  C443  1.456 .      S
N148  H494  1.043 .      S
C443  C444  1.486 .      S
C443  H495  1.108 .      S
C443  H496  1.101 .      S
C446  H497  1.076 .      S
C447  H498  1.055 .      S
C448  H499  1.066 .      S
C449  H500  1.070 .      S
C451  N151  1.446 .      S
C451  H501  1.108 .      S
C451  H502  1.100 .      S
C451  H503  1.099 .      S
N151  C452  1.462 .      S
N151  H504  1.038 .      S
C452  C453  1.476 .      S
C452  H505  1.102 .      S
C452  H506  1.092 .      S
C455  H507  1.071 .      S
C456  H508  1.074 .      S
C457  H509  1.081 .      S
C458  H510  1.069 .      S
C460  N154  1.448 .      S
C460  H511  1.105 .      S
C460  H512  1.103 .      S
C460  H513  1.108 .      S
N154  C461  1.445 .      S
N154  H514  1.043 .      S
C461  C462  1.472 .      S
C461  H515  1.097 .      S
C461  H516  1.097 .      S
C464  H517  1.073 .      S
C465  H518  1.081 .      S
C466  H519  1.081 .      S
C467  H520  1.076 .      S
C469  N157  1.452 .      S
C469  H521  1.108 .      S
C469  H522  1.110 .      S
C469  H523  1.104 .      S
N157  C470  1.458 .      S
N157  H524  1.044 .      S
C470  C471  1.476 .      S
C470  H525  1.090 .      S
C470  H526  1.097 .      S
C473  H527  1.077 .      S
C474  H528  1.081 .      S
C475  H529  1.081 .      S
C476  H530  1.077 .      S
C478  N160  1.445 .      S
C478  H531  1.098 .      S
C478  H532  1.109 .      S
C478  H533  1.100 .      S
N160  C479  1.443 .      S
N160  H534  1.043 .      S
C479  C480  1.475 .      S
C479  H535  1.106 .      S
C479  H536  1.097 .      S
C482  H537  1.072 .      S
C483  H538  1.079 .      S
C484  H539  1.081 .      S
C485  H540  1.074 .      S
N162  Zn32  2.154 1_545  S
C487  N163  1.452 .      S
C487  H541  1.109 .      S
C487  H542  1.100 .      S
C487  H543  1.108 .      S
N163  C488  1.456 .      S
N163  H544  1.044 .      S
C488  C489  1.486 .      S
C488  H545  1.108 .      S
C488  H546  1.085 .      S
C491  H547  1.065 .      S
C492  H548  1.081 .      S
C493  H549  1.081 .      S
C494  H550  1.068 .      S
C496  N166  1.452 .      S
C496  H551  1.108 .      S
C496  H552  1.107 .      S
C496  H553  1.108 .      S
N166  C497  1.456 .      S
N166  H554  1.039 .      S
C497  C498  1.482 .      S
C497  H555  1.090 .      S
C497  H556  1.103 .      S
C500  H557  1.023 .      S
C501  H558  1.081 .      S
C502  H559  1.080 .      S
C503  H560  1.057 .      S
C505  N169  1.453 .      S
C505  H561  1.109 .      S
C505  H562  1.109 .      S
C505  H563  1.109 .      S
N169  C506  1.454 .      S
N169  H564  1.043 .      S
C506  C507  1.486 .      S
C506  H565  1.106 .      S
C506  H566  1.107 .      S
C509  H567  1.051 .      S
C510  H568  1.074 .      S
C511  H569  1.051 .      S
C512  H570  1.049 .      S
C514  N172  1.455 .      S
C514  H571  1.108 .      S
C514  H572  1.107 .      S
C514  H573  1.109 .      S
N172  C515  1.456 .      S
N172  H574  1.044 .      S
C515  C516  1.491 .      S
C515  H575  1.100 .      S
C515  H576  1.108 .      S
C518  H577  1.055 .      S
C519  H578  1.075 .      S
C520  H579  1.075 .      S
C521  H580  1.074 .      S
C523  N175  1.426 .      S
C523  H581  1.092 .      S
C523  H582  1.079 .      S
C523  H583  1.100 .      S
N175  C524  1.425 .      S
N175  H584  1.024 .      S
C524  C525  1.450 .      S
C524  H585  1.096 .      S
C524  H586  1.106 .      S
C527  H587  1.079 .      S
C528  H588  1.081 .      S
C529  H589  1.081 .      S
C530  H590  1.064 1_545  S
N177  Zn36  2.210 1_545  S
H590  C530  1.064 1_565  S
C532  N178  1.432 .      S
C532  H591  1.093 .      S
C532  H592  1.090 .      S
C532  H593  1.066 .      S
N178  C533  1.427 .      S
N178  H594  1.030 .      S
C533  C534  1.417 1_545  S
C533  H595  1.092 .      S
C533  H596  1.102 1_545  S
C534  C533  1.417 1_565  S
C536  H597  1.076 .      S
C537  H598  1.081 .      S
C538  H599  1.081 .      S
C539  H600  1.077 .      S
H596  C533  1.102 1_565  S
C541  N181  1.437 .      S
C541  H601  1.106 .      S
C541  H602  1.103 .      S
C541  H603  1.094 .      S
N181  C542  1.443 1_545  S
N181  H604  1.042 .      S
C542  N181  1.443 1_565  S
C542  C543  1.469 .      S
C542  H605  1.105 .      S
C542  H606  1.106 1_565  S
C545  H607  1.071 .      S
C546  H608  1.081 .      S
C547  H609  1.081 .      S
C548  H610  1.068 .      S
H606  C542  1.106 1_545  S
C550  N184  1.447 .      S
C550  H611  1.088 .      S
C550  H612  1.097 .      S
C550  H613  1.090 .      S
N184  C551  1.433 .      S
N184  H614  1.032 .      S
C551  C552  1.464 1_545  S
C551  H615  1.109 .      S
C551  H616  1.078 .      S
C552  C551  1.464 1_565  S
C554  H617  1.080 .      S
C555  H618  1.081 .      S
C556  H619  1.081 .      S
C557  H620  1.079 .      S
C559  N187  1.431 .      S
C559  H621  1.094 .      S
C559  H622  1.103 .      S
C559  H623  1.100 .      S
N187  C560  1.441 .      S
N187  H624  1.027 .      S
C560  C561  1.490 .      S
C560  H625  1.066 .      S
C560  H626  1.105 .      S
C563  H627  1.075 .      S
C564  H628  1.081 .      S
C565  H629  1.081 .      S
C566  H630  1.063 .      S
C568  N190  1.453 1_455  S
C568  H631  1.108 .      S
C568  H632  1.109 .      S
C568  H633  1.108 .      S
N190  C568  1.453 1_655  S
N190  C569  1.447 .      S
N190  H634  1.042 .      S
C569  C570  1.492 .      S
C569  H635  1.102 1_655  S
C569  H636  1.107 .      S
C572  H637  1.076 .      S
C573  H638  1.071 .      S
C574  H639  1.068 .      S
C575  H640  1.067 .      S
H635  C569  1.102 1_455  S
C577  N193  1.456 .      S
C577  H641  1.108 .      S
C577  H642  1.093 .      S
C577  H643  1.089 .      S
N193  C578  1.448 .      S
N193  H644  1.038 .      S
C578  C579  1.485 .      S
C578  H645  1.093 .      S
C578  H646  1.098 .      S
C581  H647  1.070 .      S
C582  H648  1.081 .      S
C583  H649  1.081 .      S
C584  H650  1.078 .      S
C586  N196  1.453 .      S
C586  H651  1.109 .      S
C586  H652  1.107 .      S
C586  H653  1.108 .      S
N196  C587  1.462 .      S
N196  H654  1.041 .      S
C587  C588  1.508 .      S
C587  H655  1.079 .      S
C587  H656  1.084 .      S
C590  H657  1.075 .      S
C591  H658  1.081 .      S
C592  H659  1.081 .      S
C593  H660  1.081 .      S
C595  N199  1.452 .      S
C595  H661  1.098 .      S
C595  H662  1.086 .      S
C595  H663  1.105 .      S
N199  C596  1.432 .      S
N199  H664  1.016 .      S
C596  C597  1.430 .      S
C596  H665  1.102 .      S
C596  H666  1.105 .      S
C599  H667  1.079 .      S
C600  H668  1.081 .      S
C601  H669  1.074 .      S
C602  H670  1.075 .      S
N201  Zn38  2.123 1_545  S
C604  N202  1.454 .      S
C604  H671  1.100 .      S
C604  H672  1.105 .      S
C604  H673  1.108 .      S
N202  C605  1.452 .      S
N202  H674  1.038 .      S
C605  C606  1.462 .      S
C605  H675  1.086 .      S
C605  H676  1.075 .      S
C608  H677  1.081 .      S
C609  H678  1.080 .      S
C610  H679  1.081 .      S
C611  H680  1.058 .      S
C613  N205  1.446 .      S
C613  H681  1.106 .      S
C613  H682  1.108 .      S
C613  H683  1.099 .      S
N205  C614  1.448 .      S
N205  H684  1.030 .      S
C614  C615  1.463 1_545  S
C614  H685  1.083 .      S
C614  H686  1.087 1_545  S
C615  C614  1.463 1_565  S
N206  Zn53  2.056 1_565  S
C617  H687  1.075 .      S
C618  H688  1.081 .      S
C619  H689  1.081 .      S
C620  H690  1.066 .      S
H686  C614  1.087 1_565  S
C622  N208  1.455 .      S
C622  H691  1.105 .      S
C622  H692  1.104 .      S
C622  H693  1.097 .      S
N208  C623  1.442 .      S
N208  H694  1.031 .      S
C623  C624  1.466 1_565  S
C623  H695  1.092 1_565  S
C623  H696  1.100 .      S
C624  C623  1.466 1_545  S
C626  H697  1.078 1_655  S
C627  H698  1.081 .      S
C628  H699  1.071 .      S
C629  H700  1.061 1_545  S
H695  C623  1.092 1_545  S
H697  C626  1.078 1_455  S
H700  C629  1.061 1_565  S
C631  N211  1.452 .      S
C631  H701  1.105 .      S
C631  H702  1.108 .      S
C631  H703  1.109 .      S
N211  C632  1.445 1_455  S
N211  H704  1.039 .      S
C632  N211  1.445 1_655  S
C632  C633  1.495 .      S
C632  H705  1.103 .      S
C632  H706  1.107 .      S
C635  H707  1.051 .      S
C636  H708  1.081 .      S
C637  H709  1.081 .      S
C638  H710  1.052 .      S
C640  N214  1.454 .      S
C640  H711  1.106 .      S
C640  H712  1.108 .      S
C640  H713  1.103 .      S
N214  C641  1.454 .      S
N214  H714  1.041 .      S
C641  C642  1.482 .      S
C641  H715  1.102 .      S
C641  H716  1.093 .      S
C644  H717  1.076 .      S
C645  H718  1.081 .      S
C646  H719  1.081 .      S
C647  H720  1.075 .      S
C649  N217  1.448 .      S
C649  H721  1.108 .      S
C649  H722  1.098 .      S
C649  H723  1.105 .      S
N217  C650  1.455 .      S
N217  H724  1.043 .      S
C650  C651  1.481 .      S
C650  H725  1.094 .      S
C650  H726  1.071 .      S
C653  H727  1.079 .      S
C654  H728  1.077 .      S
C655  H729  1.075 .      S
C656  H730  1.074 .      S
C658  N220  1.453 .      S
C658  H731  1.109 .      S
C658  H732  1.108 .      S
C658  H733  1.108 .      S
N220  C659  1.454 .      S
N220  H734  1.044 .      S
C659  C660  1.489 .      S
C659  H735  1.100 .      S
C659  H736  1.104 .      S
C662  H737  1.052 .      S
C663  H738  1.071 .      S
C664  H739  1.055 .      S
C665  H740  1.061 .      S
C667  N223  1.414 .      S
C667  H741  1.088 .      S
C667  H742  1.086 .      S
C667  H743  1.057 .      S
N223  C668  1.421 .      S
N223  H744  1.033 .      S
C668  C669  1.426 .      S
C668  H745  1.085 .      S
C668  H746  1.090 .      S
N224  Zn51  2.163 1_545  S
C671  H747  1.073 .      S
C672  H748  1.081 .      S
C673  H749  1.081 .      S
C674  H750  1.075 .      S
C676  N226  1.456 1_545  S
C676  H751  1.109 .      S
C676  H752  1.105 .      S
C676  H753  1.107 .      S
N226  C676  1.456 1_565  S
N226  C677  1.441 .      S
N226  H754  1.043 .      S
C677  C678  1.482 .      S
C677  H755  1.088 .      S
C677  H756  1.103 1_565  S
C680  H757  1.077 .      S
C681  H758  1.081 .      S
C682  H759  1.081 .      S
C683  H760  1.070 .      S
H756  C677  1.103 1_545  S
C685  N229  1.453 .      S
C685  H761  1.109 .      S
C685  H762  1.109 .      S
C685  H763  1.108 .      S
N229  C686  1.450 .      S
N229  H764  1.041 .      S
C686  C687  1.478 .      S
C686  H765  1.090 .      S
C686  H766  1.109 .      S
C689  H767  1.070 1_545  S
C690  H768  1.080 .      S
C691  H769  1.081 .      S
C692  H770  1.070 .      S
H767  C689  1.070 1_565  S
C694  N232  1.440 .      S
C694  H771  1.090 .      S
C694  H772  1.092 1_565  S
C694  H773  1.098 .      S
N232  C695  1.421 .      S
N232  H774  1.040 .      S
C695  C696  1.443 .      S
C695  H775  1.096 .      S
C695  H776  1.098 1_565  S
C698  H777  1.057 .      S
C699  H778  1.077 .      S
C700  H779  1.069 .      S
C701  H780  1.059 .      S
H772  C694  1.092 1_545  S
H776  C695  1.098 1_545  S
C703  N235  1.445 .      S
C703  H781  1.096 .      S
C703  H782  1.084 .      S
C703  H783  1.098 .      S
N235  C704  1.421 .      S
N235  H784  1.029 .      S
C704  C705  1.466 .      S
C704  H785  1.106 .      S
C704  H786  1.103 .      S
C707  H787  1.072 .      S
C708  H788  1.080 .      S
C709  H789  1.080 .      S
C710  H790  1.078 .      S
C712  N238  1.414 .      S
C712  H791  1.101 .      S
C712  H792  1.075 .      S
C712  H793  1.081 .      S
N238  C713  1.433 .      S
N238  H794  1.029 .      S
C713  C714  1.427 .      S
C713  H795  1.104 .      S
C713  H796  1.103 .      S
C716  H797  1.076 .      S
C717  H798  1.081 .      S
C718  H799  1.070 .      S
C719  H800  1.070 .      S
C721  N241  1.436 .      S
C721  H801  1.103 .      S
C721  H802  1.098 .      S
C721  H803  1.105 .      S
N241  C722  1.445 .      S
N241  H804  1.040 .      S
C722  C723  1.450 .      S
C722  H805  1.094 .      S
C722  H806  1.101 .      S
C725  H807  1.067 .      S
C726  H808  1.081 .      S
C727  H809  1.081 .      S
C728  H810  1.064 .      S
C730  N244  1.452 .      S
C730  H811  1.107 .      S
C730  H812  1.108 .      S
C730  H813  1.105 .      S
N244  C731  1.453 .      S
N244  H814  1.042 .      S
C731  C732  1.486 .      S
C731  H815  1.094 .      S
C731  H816  1.107 .      S
C734  H817  1.069 .      S
C735  H818  1.081 .      S
C736  H819  1.081 .      S
C737  H820  1.069 .      S
N246  Zn39  2.073 1_545  S
C739  N247  1.452 .      S
C739  H821  1.109 .      S
C739  H822  1.104 .      S
C739  H823  1.109 .      S
N247  C740  1.449 .      S
N247  H824  1.037 .      S
C740  C741  1.505 .      S
C740  H825  1.092 .      S
C740  H826  1.107 .      S
C743  H827  1.079 .      S
C744  H828  1.081 .      S
C745  H829  1.081 .      S
C746  H830  1.069 .      S
C748  N250  1.454 .      S
C748  H831  1.105 .      S
C748  H832  1.103 .      S
C748  H833  1.107 .      S
N250  C749  1.457 .      S
N250  H834  1.038 .      S
C749  C750  1.445 .      S
C749  H835  1.106 .      S
C749  H836  1.103 .      S
C752  H837  1.043 .      S
C753  H838  1.074 .      S
C754  H839  1.074 .      S
C755  H840  1.058 .      S
C757  N253  1.456 .      S
C757  H841  1.109 .      S
C757  H842  1.107 .      S
C757  H843  1.106 .      S
N253  C758  1.463 .      S
N253  H844  1.041 .      S
C758  C759  1.474 .      S
C758  H845  1.091 .      S
C758  H846  1.088 .      S
C761  H847  1.072 .      S
C762  H848  1.081 .      S
C763  H849  1.081 .      S
C764  H850  1.079 .      S
C766  N256  1.445 .      S
C766  H851  1.100 .      S
C766  H852  1.097 .      S
C766  H853  1.100 .      S
N256  C767  1.440 .      S
N256  H854  1.040 .      S
C767  C768  1.463 .      S
C767  H855  1.083 .      S
C767  H856  1.095 .      S
C770  H857  1.076 .      S
C771  H858  1.080 .      S
C772  H859  1.081 .      S
C773  H860  1.081 .      S
C775  N259  1.452 .      S
C775  H861  1.109 .      S
C775  H862  1.104 .      S
C775  H863  1.106 .      S
N259  C776  1.449 .      S
N259  H864  1.040 .      S
C776  C777  1.491 .      S
C776  H865  1.106 .      S
C776  H866  1.106 .      S
C779  H867  1.062 .      S
C780  H868  1.070 .      S
C781  H869  1.079 .      S
C782  H870  1.071 .      S
C784  N262  1.452 .      S
C784  H871  1.109 .      S
C784  H872  1.106 .      S
C784  H873  1.109 .      S
N262  C785  1.455 .      S
N262  H874  1.044 .      S
C785  C786  1.480 .      S
C785  H875  1.101 .      S
C785  H876  1.090 .      S
C788  H877  1.072 .      S
C789  H878  1.081 .      S
C790  H879  1.081 .      S
C791  H880  1.060 .      S
C793  N265  1.441 .      S
C793  H881  1.108 .      S
C793  H882  1.085 .      S
C793  H883  1.087 .      S
N265  C794  1.442 .      S
N265  H884  1.043 .      S
C794  C795  1.463 .      S
C794  H885  1.108 .      S
C794  H886  1.085 .      S
C797  H887  1.054 .      S
C798  H888  1.081 .      S
C799  H889  1.080 .      S
C800  H890  1.071 .      S
C802  N268  1.440 .      S
C802  H891  1.089 .      S
C802  H892  1.107 .      S
C802  H893  1.093 .      S
N268  C803  1.440 .      S
N268  H894  1.038 .      S
C803  C804  1.443 .      S
C803  H895  1.072 .      S
C803  H896  1.105 .      S
C806  H897  1.069 .      S
C807  H898  1.080 .      S
C808  H899  1.081 .      S
C809  H900  1.061 .      S
C811  N271  1.451 .      S
C811  H901  1.108 .      S
C811  H902  1.105 .      S
C811  H903  1.108 .      S
N271  C812  1.448 .      S
N271  H904  1.027 .      S
C812  C813  1.448 .      S
C812  H905  1.084 .      S
C812  H906  1.102 .      S
C815  H907  1.075 .      S
C816  H908  1.081 .      S
C817  H909  1.081 .      S
C818  H910  1.075 .      S
C820  N274  1.456 1_554  S
C820  H911  1.100 .      S
C820  H912  1.092 .      S
C820  H913  1.099 .      S
N274  C820  1.456 1_556  S
N274  C821  1.449 .      S
N274  H914  1.031 .      S
C821  C822  1.446 .      S
C821  H915  1.100 .      S
C821  H916  1.075 .      S
C824  H917  1.065 .      S
C825  H918  1.081 .      S
C826  H919  1.078 .      S
C827  H920  1.060 .      S
C829  N277  1.447 .      S
C829  H921  1.095 .      S
C829  H922  1.104 .      S
C829  H923  1.093 .      S
N277  C830  1.449 .      S
N277  H924  1.044 .      S
C830  C831  1.447 .      S
C830  H925  1.092 .      S
C830  H926  1.107 .      S
C833  H927  1.065 .      S
C834  H928  1.081 .      S
C835  H929  1.081 .      S
C836  H930  1.074 .      S
C838  N280  1.448 1_554  S
C838  H931  1.102 .      S
C838  H932  1.106 .      S
C838  H933  1.103 .      S
N280  C838  1.448 1_556  S
N280  C839  1.443 .      S
N280  H934  1.043 .      S
C839  C840  1.479 .      S
C839  H935  1.089 .      S
C839  H936  1.094 .      S
C842  H937  1.069 .      S
C843  H938  1.076 .      S
C844  H939  1.080 .      S
C845  H940  1.069 .      S
C847  N283  1.441 .      S
C847  H941  1.096 1_545  S
C847  H942  1.100 .      S
C847  H943  1.107 1_545  S
N283  C848  1.438 .      S
N283  H944  1.042 .      S
C848  C849  1.490 .      S
C848  H945  1.107 .      S
C848  H946  1.108 .      S
C851  H947  1.049 .      S
C852  H948  1.070 .      S
C853  H949  1.078 .      S
C854  H950  1.055 .      S
N285  Zn47  1.964 1_455  S
H941  C847  1.096 1_565  S
H943  C847  1.107 1_565  S
C856  N286  1.452 .      S
C856  H951  1.096 .      S
C856  H952  1.104 .      S
C856  H953  1.104 .      S
N286  C857  1.459 .      S
N286  H954  1.043 .      S
C857  C858  1.462 1_455  S
C857  H955  1.071 .      S
C857  H956  1.080 1_455  S
C858  C857  1.462 1_655  S
C860  H957  1.078 .      S
C861  H958  1.081 .      S
C862  H959  1.068 .      S
C863  H960  1.071 .      S
N288  Zn17  2.136 1_556  S
H956  C857  1.080 1_655  S
C865  N289  1.442 .      S
C865  H961  1.101 .      S
C865  H962  1.106 .      S
C865  H963  1.104 .      S
N289  C866  1.440 .      S
N289  H964  1.042 .      S
C866  C867  1.464 .      S
C866  H965  1.100 .      S
C866  H966  1.105 .      S
C869  H967  1.070 .      S
C870  H968  1.081 .      S
C871  H969  1.081 .      S
C872  H970  1.069 .      S
C874  N292  1.444 .      S
C874  H971  1.090 .      S
C874  H972  1.092 .      S
C874  H973  1.088 .      S
N292  C875  1.427 .      S
N292  H974  1.036 .      S
C875  C876  1.438 .      S
C875  H975  1.103 .      S
C875  H976  1.100 .      S
C878  H977  1.059 .      S
C879  H978  1.080 .      S
C880  H979  1.081 .      S
C881  H980  1.078 .      S
C883  N295  1.454 .      S
C883  H981  1.106 .      S
C883  H982  1.108 .      S
C883  H983  1.104 .      S
N295  C884  1.453 .      S
N295  H984  1.037 .      S
C884  C885  1.461 .      S
C884  H985  1.085 .      S
C884  H986  1.102 .      S
N296  Zn55  2.126 1_655  S
C887  H987  1.071 .      S
C888  H988  1.081 .      S
C889  H989  1.081 .      S
C890  H990  1.080 .      S
C892  N298  1.453 .      S
C892  H991  1.108 .      S
C892  H992  1.109 .      S
C892  H993  1.107 .      S
N298  C893  1.455 .      S
N298  H994  1.044 .      S
C893  C894  1.464 .      S
C893  H995  1.087 .      S
C893  H996  1.094 .      S
N299  Zn49  2.129 1_455  S
C896  H997  1.065 .      S
C897  H998  1.060 .      S
C898  H999  1.060 .      S
C899  H1000 1.078 .      S
C901  N301  1.450 .      S
C901  H1001 1.100 .      S
C901  H1002 1.090 .      S
C901  H1003 1.086 .      S
N301  C902  1.456 .      S
N301  H1004 1.043 1_455  S
C902  C903  1.442 1_455  S
C902  H1005 1.081 .      S
C902  H1006 1.095 .      S
C903  C902  1.442 1_655  S
C905  H1007 1.072 .      S
C906  H1008 1.081 .      S
C907  H1009 1.081 .      S
C908  H1010 1.072 .      S
H1004 N301  1.043 1_655  S
C910  N304  1.453 .      S
C910  H1011 1.108 1_655  S
C910  H1012 1.109 .      S
C910  H1013 1.109 .      S
N304  C911  1.451 .      S
N304  H1014 1.044 .      S
C911  C912  1.490 .      S
C911  H1015 1.096 1_655  S
C911  H1016 1.103 1_655  S
C914  H1017 1.069 .      S
C915  H1018 1.081 .      S
C916  H1019 1.081 .      S
C917  H1020 1.081 .      S
H1011 C910  1.108 1_455  S
H1015 C911  1.096 1_455  S
H1016 C911  1.103 1_455  S
C919  N307  1.460 .      S
C919  H1021 1.109 .      S
C919  H1022 1.102 .      S
C919  H1023 1.103 .      S
N307  C920  1.458 .      S
N307  H1024 1.041 .      S
C920  C921  1.477 .      S
C920  H1025 1.104 .      S
C920  H1026 1.108 .      S
C923  H1027 1.069 .      S
C924  H1028 1.073 .      S
C925  H1029 1.077 .      S
C926  H1030 1.066 .      S
C928  N310  1.454 .      S
C928  H1031 1.107 .      S
C928  H1032 1.095 .      S
C928  H1033 1.092 .      S
N310  C929  1.459 .      S
N310  H1034 1.039 .      S
C929  C930  1.475 .      S
C929  H1035 1.072 .      S
C929  H1036 1.088 .      S
N311  Zn50  2.078 1_455  S
C932  H1037 1.081 .      S
C933  H1038 1.081 .      S
C934  H1039 1.081 .      S
C935  H1040 1.066 .      S
C937  N313  1.459 .      S
C937  H1041 1.108 .      S
C937  H1042 1.108 .      S
C937  H1043 1.107 .      S
N313  C938  1.446 .      S
N313  H1044 1.026 .      S
C938  C939  1.494 .      S
C938  H1045 1.095 .      S
C938  H1046 1.100 .      S
C941  H1047 1.065 .      S
C942  H1048 1.081 .      S
C943  H1049 1.081 .      S
C944  H1050 1.066 .      S
C946  N316  1.446 .      S
C946  H1051 1.106 .      S
C946  H1052 1.107 .      S
C946  H1053 1.099 .      S
N316  C947  1.456 1_565  S
N316  H1054 1.036 .      S
C947  N316  1.456 1_545  S
C947  C948  1.487 .      S
C947  H1055 1.079 .      S
C947  H1056 1.093 .      S
N317  Zn52  2.059 1_545  S
C950  H1057 1.070 1_545  S
C951  H1058 1.081 .      S
C952  H1059 1.081 .      S
C953  H1060 1.061 .      S
H1057 C950  1.070 1_565  S
C955  N319  1.455 .      S
C955  H1061 1.109 .      S
C955  H1062 1.107 .      S
C955  H1063 1.107 .      S
N319  C956  1.453 .      S
N319  H1064 1.042 .      S
C956  C957  1.480 .      S
C956  H1065 1.107 .      S
C956  H1066 1.096 .      S
N320  Zn56  2.059 1_565  S
C959  H1067 1.071 .      S
C960  H1068 1.077 .      S
C961  H1069 1.078 .      S
C962  H1070 1.078 .      S
C964  N322  1.450 .      S
C964  H1071 1.108 .      S
C964  H1072 1.104 .      S
C964  H1073 1.108 .      S
N322  C965  1.449 .      S
N322  H1074 1.043 .      S
C965  C966  1.481 .      S
C965  H1075 1.100 .      S
C965  H1076 1.097 .      S
C968  H1077 1.066 .      S
C969  H1078 1.080 .      S
C970  H1079 1.081 .      S
C971  H1080 1.080 .      S
C973  N325  1.455 .      S
C973  H1081 1.104 .      S
C973  H1082 1.108 .      S
C973  H1083 1.108 .      S
N325  C974  1.455 .      S
N325  H1084 1.044 .      S
C974  C975  1.488 1_565  S
C974  H1085 1.093 .      S
C974  H1086 1.096 1_565  S
C975  C974  1.488 1_545  S
C977  H1087 1.069 .      S
C978  H1088 1.074 .      S
C979  H1089 1.081 .      S
C980  H1090 1.069 .      S
N327  Zn53  2.041 1_565  S
H1086 C974  1.096 1_545  S
C982  N328  1.456 .      S
C982  H1091 1.104 .      S
C982  H1092 1.107 .      S
C982  H1093 1.108 .      S
N328  C983  1.449 .      S
N328  H1094 1.040 .      S
C983  C984  1.478 .      S
C983  H1095 1.108 .      S
C983  H1096 1.101 .      S
N329  Zn53  2.099 1_565  S
C986  H1097 1.063 .      S
C987  H1098 1.067 .      S
C988  H1099 1.081 .      S
C989  H1100 1.061 .      S
C991  N331  1.440 .      S
C991  H1101 1.107 .      S
C991  H1102 1.103 .      S
C991  H1103 1.107 .      S
N331  C992  1.446 .      S
N331  H1104 1.040 .      S
C992  C993  1.485 .      S
C992  H1105 1.092 .      S
C992  H1106 1.097 .      S
C995  H1107 1.076 .      S
C996  H1108 1.081 .      S
C997  H1109 1.080 .      S
C998  H1110 1.061 .      S
C1000 N334  1.442 .      S
C1000 H1111 1.103 .      S
C1000 H1112 1.095 .      S
C1000 H1113 1.104 .      S
N334  C1001 1.452 .      S
N334  H1114 1.039 .      S
C1001 C1002 1.469 .      S
C1001 H1115 1.106 .      S
C1001 H1116 1.107 .      S
C1004 H1117 1.071 .      S
C1005 H1118 1.070 .      S
C1006 H1119 1.063 .      S
C1007 H1120 1.055 .      S
C1009 N337  1.462 .      S
C1009 H1121 1.106 .      S
C1009 H1122 1.092 .      S
C1009 H1123 1.102 .      S
N337  C1010 1.457 .      S
N337  H1124 1.035 .      S
C1010 C1011 1.508 .      S
C1010 H1125 1.098 .      S
C1010 H1126 1.099 .      S
C1013 H1127 1.064 .      S
C1014 H1128 1.081 .      S
C1015 H1129 1.081 .      S
C1016 H1130 1.080 .      S
N339  Zn55  2.114 1_655  S
C1018 N340  1.452 .      S
C1018 H1131 1.109 .      S
C1018 H1132 1.104 .      S
C1018 H1133 1.106 .      S
N340  C1019 1.450 .      S
N340  H1134 1.042 .      S
C1019 C1020 1.468 .      S
C1019 H1135 1.072 .      S
C1019 H1136 1.096 .      S
C1022 H1137 1.080 .      S
C1023 H1138 1.081 .      S
C1024 H1139 1.081 .      S
C1025 H1140 1.065 .      S
C1027 N343  1.441 .      S
C1027 H1141 1.097 .      S
C1027 H1142 1.103 .      S
C1027 H1143 1.096 1_556  S
N343  C1028 1.432 .      S
N343  H1144 1.041 .      S
C1028 C1029 1.463 .      S
C1028 H1145 1.097 .      S
C1028 H1146 1.102 1_556  S
C1031 H1147 1.080 .      S
C1032 H1148 1.081 1_556  S
C1033 H1149 1.081 .      S
C1034 H1150 1.079 .      S
N345  Zn56  2.067 1_565  S
H1143 C1027 1.096 1_554  S
H1146 C1028 1.102 1_554  S
H1148 C1032 1.081 1_554  S
C1036 N346  1.458 .      S
C1036 H1151 1.109 .      S
C1036 H1152 1.100 .      S
C1036 H1153 1.106 .      S
N346  C1037 1.457 .      S
N346  H1154 1.035 .      S
C1037 C1038 1.500 .      S
C1037 H1155 1.105 .      S
C1037 H1156 1.105 .      S
C1040 H1157 1.067 .      S
C1041 H1158 1.081 .      S
C1042 H1159 1.081 .      S
C1043 H1160 1.079 .      S
C1045 N349  1.453 .      S
C1045 H1161 1.094 .      S
C1045 H1162 1.107 .      S
C1045 H1163 1.110 1_554  S
N349  C1046 1.431 1_455  S
N349  H1164 1.042 1_454  S
C1046 N349  1.431 1_655  S
C1046 C1047 1.456 .      S
C1046 H1165 1.091 1_655  S
C1046 H1166 1.105 .      S
C1049 H1167 1.078 .      S
C1050 H1168 1.081 .      S
C1051 H1169 1.081 .      S
C1052 H1170 1.063 .      S
N351  Zn58  2.139 1_554  S
H1163 C1045 1.110 1_556  S
H1164 N349  1.042 1_656  S
H1165 C1046 1.091 1_455  S
C1054 N352  1.431 .      S
C1054 H1171 1.102 .      S
C1054 H1172 1.099 .      S
C1054 H1173 1.098 .      S
N352  C1055 1.410 .      S
N352  H1174 1.026 .      S
C1055 C1056 1.431 .      S
C1055 H1175 1.089 .      S
C1055 H1176 1.081 .      S
N353  Zn12  2.159 1_554  S
C1058 H1177 1.070 .      S
C1059 H1178 1.081 .      S
C1060 H1179 1.081 .      S
C1061 H1180 1.075 .      S
N354  Zn58  2.194 1_454  S
C1063 N355  1.451 .      S
C1063 H1181 1.107 .      S
C1063 H1182 1.106 .      S
C1063 H1183 1.108 .      S
N355  C1064 1.459 .      S
N355  H1184 1.040 .      S
C1064 C1065 1.465 .      S
C1064 H1185 1.094 .      S
C1064 H1186 1.082 .      S
C1067 H1187 1.073 .      S
C1068 H1188 1.078 .      S
C1069 H1189 1.070 .      S
C1070 H1190 1.075 .      S
C1072 N358  1.454 1_545  S
C1072 H1191 1.109 1_545  S
C1072 H1192 1.108 .      S
C1072 H1193 1.108 .      S
N358  C1072 1.454 1_565  S
N358  C1073 1.446 .      S
N358  H1194 1.037 .      S
C1073 C1074 1.493 .      S
C1073 H1195 1.105 1_565  S
C1073 H1196 1.108 1_565  S
C1076 H1197 1.049 .      S
C1077 H1198 1.067 .      S
C1078 H1199 1.072 .      S
C1079 H1200 1.047 .      S
H1191 C1072 1.109 1_565  S
H1195 C1073 1.105 1_545  S
H1196 C1073 1.108 1_545  S
C1081 N361  1.456 .      S
C1081 H1201 1.109 .      S
C1081 H1202 1.107 .      S
C1081 H1203 1.109 .      S
N361  C1082 1.455 .      S
N361  H1204 1.043 .      S
C1082 C1083 1.491 .      S
C1082 H1205 1.105 .      S
C1082 H1206 1.102 .      S
C1085 H1207 1.081 .      S
C1086 H1208 1.081 .      S
C1087 H1209 1.081 .      S
C1088 H1210 1.067 .      S
C1090 N364  1.455 .      S
C1090 H1211 1.109 .      S
C1090 H1212 1.108 .      S
C1090 H1213 1.109 .      S
N364  C1091 1.451 .      S
N364  H1214 1.040 .      S
C1091 C1092 1.483 .      S
C1091 H1215 1.104 .      S
C1091 H1216 1.101 .      S
C1094 H1217 1.062 .      S
C1095 H1218 1.081 .      S
C1096 H1219 1.081 .      S
C1097 H1220 1.077 .      S
C1099 N367  1.444 .      S
C1099 H1221 1.100 .      S
C1099 H1222 1.108 .      S
C1099 H1223 1.097 .      S
N367  C1100 1.436 .      S
N367  H1224 1.044 .      S
C1100 C1101 1.486 .      S
C1100 H1225 1.103 .      S
C1100 H1226 1.107 .      S
C1103 H1227 1.072 .      S
C1104 H1228 1.081 .      S
C1105 H1229 1.081 .      S
C1106 H1230 1.077 .      S
C1108 N370  1.438 .      S
C1108 H1231 1.106 .      S
C1108 H1232 1.104 .      S
C1108 H1233 1.092 .      S
N370  C1109 1.443 .      S
N370  H1234 1.030 .      S
C1109 C1110 1.481 1_545  S
C1109 H1235 1.084 .      S
C1109 H1236 1.097 1_545  S
C1110 C1109 1.481 1_565  S
C1112 H1237 1.061 .      S
C1113 H1238 1.073 .      S
C1114 H1239 1.069 .      S
C1115 H1240 1.073 .      S
H1236 C1109 1.097 1_565  S
C1117 N373  1.451 .      S
C1117 H1241 1.102 .      S
C1117 H1242 1.079 .      S
C1117 H1243 1.104 .      S
N373  C1118 1.448 .      S
N373  H1244 1.041 .      S
C1118 C1119 1.477 .      S
C1118 H1245 1.078 .      S
C1118 H1246 1.100 .      S
C1121 H1247 1.056 .      S
C1122 H1248 1.081 .      S
C1123 H1249 1.081 .      S
C1124 H1250 1.075 .      S
C1126 N376  1.454 .      S
C1126 H1251 1.101 .      S
C1126 H1252 1.076 .      S
C1126 H1253 1.103 .      S
N376  C1127 1.442 .      S
N376  H1254 1.028 .      S
C1127 C1128 1.472 .      S
C1127 H1255 1.108 .      S
C1127 H1256 1.106 .      S
N377  Zn7   2.132 1_545  S
C1130 H1257 1.064 .      S
C1131 H1258 1.081 .      S
C1132 H1259 1.079 .      S
C1133 H1260 1.070 .      S
C1135 N379  1.438 .      S
C1135 H1261 1.095 .      S
C1135 H1262 1.095 .      S
C1135 H1263 1.100 .      S
N379  C1136 1.443 .      S
N379  H1264 1.033 .      S
C1136 C1137 1.476 .      S
C1136 H1265 1.094 .      S
C1136 H1266 1.100 .      S
C1139 H1267 1.063 .      S
C1140 H1268 1.081 .      S
C1141 H1269 1.081 .      S
C1142 H1270 1.079 .      S
C1144 N382  1.451 .      S
C1144 H1271 1.105 .      S
C1144 H1272 1.105 .      S
C1144 H1273 1.105 .      S
N382  C1145 1.454 .      S
N382  H1274 1.043 .      S
C1145 C1146 1.483 .      S
C1145 H1275 1.095 .      S
C1145 H1276 1.097 .      S
C1148 H1277 1.072 .      S
C1149 H1278 1.080 .      S
C1150 H1279 1.081 .      S
C1151 H1280 1.076 .      S
C3    N2    1.383 .      A
C3    N3    1.393 .      A
N2    C4    1.342 .      A
C4    C5    1.352 .      A
C4    C9    1.355 .      A
C5    C6    1.365 .      A
C6    C7    1.372 .      A
C7    C8    1.384 .      A
C8    C9    1.366 .      A
C9    N3    1.341 .      A
C12   N5    1.399 .      A
C12   N6    1.390 .      A
N5    C13   1.342 .      A
C13   C14   1.366 .      A
C13   C18   1.373 .      A
C14   C15   1.383 .      A
C15   C16   1.390 .      A
C16   C17   1.385 .      A
C17   C18   1.373 .      A
C18   N6    1.353 .      A
C21   N8    1.378 .      A
C21   N9    1.387 .      A
N8    C22   1.348 1_655  A
C22   N8    1.348 1_455  A
C22   C23   1.377 .      A
C22   C27   1.362 .      A
C23   C24   1.379 .      A
C24   C25   1.383 .      A
C25   C26   1.380 .      A
C26   C27   1.376 .      A
C27   N9    1.350 1_455  A
N9    C27   1.350 1_655  A
C30   N11   1.383 .      A
C30   N12   1.375 .      A
N11   C31   1.341 .      A
C31   C32   1.369 .      A
C31   C36   1.371 .      A
C32   C33   1.381 .      A
C33   C34   1.389 .      A
C34   C35   1.385 .      A
C35   C36   1.377 .      A
C36   N12   1.360 .      A
C39   N14   1.377 .      A
C39   N15   1.383 .      A
N14   C40   1.348 .      A
C40   C41   1.368 .      A
C40   C45   1.367 .      A
C41   C42   1.383 .      A
C42   C43   1.386 .      A
C43   C44   1.381 .      A
C44   C45   1.369 .      A
C45   N15   1.348 .      A
C48   N17   1.364 .      A
C48   N18   1.382 .      A
N17   C49   1.342 1_545  A
C49   N17   1.342 1_565  A
C49   C50   1.372 .      A
C49   C54   1.356 1_565  A
C50   C51   1.372 .      A
C51   C52   1.378 1_554  A
C52   C51   1.378 1_556  A
C52   C53   1.381 1_565  A
C53   C52   1.381 1_545  A
C53   C54   1.359 1_556  A
C54   C49   1.356 1_545  A
C54   C53   1.359 1_554  A
C54   N18   1.342 .      A
C57   N20   1.384 .      A
C57   N21   1.376 .      A
N20   C58   1.351 .      A
C58   C59   1.362 .      A
C58   C63   1.357 .      A
C59   C60   1.379 .      A
C60   C61   1.379 .      A
C61   C62   1.377 .      A
C62   C63   1.375 .      A
C63   N21   1.351 .      A
C66   N23   1.397 .      A
C66   N24   1.406 .      A
N23   C67   1.360 .      A
C67   C68   1.380 1_565  A
C67   C72   1.374 .      A
C68   C67   1.380 1_545  A
C68   C69   1.383 .      A
C69   C70   1.387 .      A
C70   C71   1.383 1_545  A
C71   C70   1.383 1_565  A
C71   C72   1.368 .      A
C72   N24   1.343 .      A
C75   N26   1.388 .      A
C75   N27   1.379 .      A
N26   C76   1.328 1_565  A
C76   N26   1.328 1_545  A
C76   C77   1.372 .      A
C76   C81   1.353 .      A
C77   C78   1.361 .      A
C78   C79   1.378 .      A
C79   C80   1.371 .      A
C80   C81   1.340 .      A
C81   N27   1.342 1_545  A
N27   C81   1.342 1_565  A
C84   N29   1.394 .      A
C84   N30   1.382 .      A
N29   C85   1.348 1_565  A
C85   N29   1.348 1_545  A
C85   C86   1.365 .      A
C85   C90   1.365 .      A
C86   C87   1.383 .      A
C87   C88   1.388 .      A
C88   C89   1.383 .      A
C89   C90   1.369 .      A
C90   N30   1.344 1_545  A
N30   C90   1.344 1_565  A
C93   N32   1.392 .      A
C93   N33   1.399 .      A
N32   C94   1.349 .      A
C94   C95   1.379 .      A
C94   C99   1.357 .      A
C95   C96   1.373 .      A
C96   C97   1.368 .      A
C97   C98   1.370 .      A
C98   C99   1.365 .      A
C99   N33   1.353 .      A
C102  N35   1.382 .      A
C102  N36   1.372 .      A
N35   C103  1.342 .      A
C103  C104  1.360 .      A
C103  C108  1.355 .      A
C104  C105  1.379 .      A
C105  C106  1.381 .      A
C106  C107  1.381 .      A
C107  C108  1.369 .      A
C108  N36   1.351 .      A
C111  N38   1.384 .      A
C111  N39   1.379 .      A
N38   C112  1.330 .      A
C112  C113  1.369 .      A
C112  C117  1.340 .      A
C113  C114  1.365 .      A
C114  C115  1.375 .      A
C115  C116  1.366 .      A
C116  C117  1.357 .      A
C117  N39   1.342 .      A
C120  N41   1.403 .      A
C120  N42   1.394 .      A
N41   C121  1.346 1_554  A
C121  N41   1.346 1_556  A
C121  C122  1.370 .      A
C121  C126  1.339 .      A
C122  C123  1.370 .      A
C123  C124  1.382 .      A
C124  C125  1.375 .      A
C125  C126  1.361 .      A
C126  N42   1.340 1_556  A
N42   C126  1.340 1_554  A
C129  N44   1.375 .      A
C129  N45   1.384 .      A
N44   C130  1.353 .      A
C130  C131  1.376 .      A
C130  C135  1.367 .      A
C131  C132  1.383 .      A
C132  C133  1.386 .      A
C133  C134  1.381 .      A
C134  C135  1.374 .      A
C135  N45   1.346 .      A
C138  N47   1.391 1_545  A
C138  N48   1.393 1_545  A
N47   C138  1.391 1_565  A
N47   C139  1.342 .      A
C139  C140  1.376 .      A
C139  C144  1.362 .      A
C140  C141  1.382 .      A
C141  C142  1.388 .      A
C142  C143  1.384 .      A
C143  C144  1.364 .      A
C144  N48   1.355 .      A
N48   C138  1.393 1_565  A
C147  N50   1.382 .      A
C147  N51   1.394 .      A
N50   C148  1.348 .      A
C148  C149  1.373 .      A
C148  C153  1.361 .      A
C149  C150  1.369 .      A
C150  C151  1.370 .      A
C151  C152  1.364 .      A
C152  C153  1.344 .      A
C153  N51   1.341 .      A
C156  N53   1.408 .      A
C156  N54   1.371 1_556  A
N53   C157  1.350 .      A
C157  C158  1.364 .      A
C157  C162  1.352 1_556  A
C158  C159  1.381 1_556  A
C159  C158  1.381 1_554  A
C159  C160  1.374 .      A
C160  C161  1.376 .      A
C161  C162  1.365 .      A
C162  C157  1.352 1_554  A
C162  N54   1.334 .      A
N54   C156  1.371 1_554  A
C165  N56   1.375 .      A
C165  N57   1.388 .      A
N56   C166  1.321 .      A
C166  C167  1.357 .      A
C166  C171  1.358 .      A
C167  C168  1.367 .      A
C168  C169  1.382 .      A
C169  C170  1.373 .      A
C170  C171  1.348 .      A
C171  N57   1.344 .      A
C174  N59   1.400 .      A
C174  N60   1.380 .      A
N59   C175  1.354 .      A
C175  C176  1.360 .      A
C175  C180  1.364 .      A
C176  C177  1.381 .      A
C177  C178  1.386 .      A
C178  C179  1.382 .      A
C179  C180  1.370 .      A
C180  N60   1.335 .      A
C183  N62   1.379 .      A
C183  N63   1.386 .      A
N62   C184  1.346 .      A
C184  C185  1.369 .      A
C184  C189  1.364 .      A
C185  C186  1.384 .      A
C186  C187  1.389 .      A
C187  C188  1.384 .      A
C188  C189  1.374 .      A
C189  N63   1.347 .      A
C192  N65   1.392 .      A
C192  N66   1.376 .      A
N65   C193  1.323 .      A
C193  C194  1.356 1_554  A
C193  C198  1.349 .      A
C194  C193  1.356 1_556  A
C194  C195  1.354 .      A
C195  C196  1.379 1_556  A
C196  C195  1.379 1_554  A
C196  C197  1.364 .      A
C197  C198  1.348 .      A
C198  N66   1.332 .      A
C201  N68   1.375 .      A
C201  N69   1.367 1_545  A
N68   C202  1.341 .      A
C202  C203  1.372 1_655  A
C202  C207  1.367 1_545  A
C203  C202  1.372 1_455  A
C203  C204  1.382 .      A
C204  C205  1.386 1_545  A
C205  C204  1.386 1_565  A
C205  C206  1.382 1_455  A
C206  C205  1.382 1_655  A
C206  C207  1.370 .      A
C207  C202  1.367 1_565  A
C207  N69   1.354 .      A
N69   C201  1.367 1_565  A
C210  N71   1.370 .      A
C210  N72   1.384 .      A
N71   C211  1.344 .      A
C211  C212  1.384 .      A
C211  C216  1.338 .      A
C212  C213  1.368 1_554  A
C213  C212  1.368 1_556  A
C213  C214  1.358 .      A
C214  C215  1.357 .      A
C215  C216  1.359 1_556  A
C216  C215  1.359 1_554  A
C216  N72   1.349 .      A
C219  N74   1.379 .      A
C219  N75   1.385 .      A
N74   C220  1.344 .      A
C220  C221  1.371 .      A
C220  C225  1.367 .      A
C221  C222  1.382 .      A
C222  C223  1.388 .      A
C223  C224  1.383 .      A
C224  C225  1.375 .      A
C225  N75   1.354 .      A
C228  N77   1.409 .      A
C228  N78   1.401 .      A
N77   C229  1.342 .      A
C229  C230  1.369 .      A
C229  C234  1.357 .      A
C230  C231  1.379 .      A
C231  C232  1.381 .      A
C232  C233  1.381 .      A
C233  C234  1.350 .      A
C234  N78   1.343 .      A
C237  N80   1.371 .      A
C237  N81   1.364 .      A
N80   C238  1.360 .      A
C238  C239  1.380 .      A
C238  C243  1.370 .      A
C239  C240  1.387 .      A
C240  C241  1.391 .      A
C241  C242  1.383 .      A
C242  C243  1.370 .      A
C243  N81   1.341 .      A
C246  N83   1.377 .      A
C246  N84   1.372 .      A
N83   C247  1.358 .      A
C247  C248  1.373 .      A
C247  C252  1.359 .      A
C248  C249  1.384 .      A
C249  C250  1.383 .      A
C250  C251  1.377 .      A
C251  C252  1.374 .      A
C252  N84   1.340 .      A
C255  N86   1.372 .      A
C255  N87   1.398 .      A
N86   C256  1.336 .      A
C256  C257  1.356 .      A
C256  C261  1.374 .      A
C257  C258  1.372 .      A
C258  C259  1.385 .      A
C259  C260  1.377 .      A
C260  C261  1.369 .      A
C261  N87   1.350 .      A
C264  N89   1.374 .      A
C264  N90   1.372 .      A
N89   C265  1.355 .      A
C265  C266  1.375 .      A
C265  C270  1.365 .      A
C266  C267  1.384 .      A
C267  C268  1.388 .      A
C268  C269  1.378 .      A
C269  C270  1.364 .      A
C270  N90   1.338 .      A
C273  N92   1.374 .      A
C273  N93   1.381 .      A
N92   C274  1.337 .      A
C274  C275  1.356 .      A
C274  C279  1.329 .      A
C275  C276  1.368 .      A
C276  C277  1.373 .      A
C277  C278  1.361 .      A
C278  C279  1.353 .      A
C279  N93   1.332 .      A
C282  N95   1.380 .      A
C282  N96   1.403 .      A
N95   C283  1.340 .      A
C283  C284  1.369 .      A
C283  C288  1.357 .      A
C284  C285  1.372 .      A
C285  C286  1.367 .      A
C286  C287  1.376 .      A
C287  C288  1.374 .      A
C288  N96   1.365 .      A
C291  N98   1.388 .      A
C291  N99   1.395 .      A
N98   C292  1.350 .      A
C292  C293  1.364 .      A
C292  C297  1.365 .      A
C293  C294  1.383 .      A
C294  C295  1.388 .      A
C295  C296  1.381 .      A
C296  C297  1.372 .      A
C297  N99   1.339 .      A
C300  N101  1.381 .      A
C300  N102  1.379 .      A
N101  C301  1.350 .      A
C301  C302  1.377 .      A
C301  C306  1.368 .      A
C302  C303  1.381 .      A
C303  C304  1.386 .      A
C304  C305  1.382 .      A
C305  C306  1.380 .      A
C306  N102  1.358 .      A
C309  N104  1.381 1_455  A
C309  N105  1.389 1_455  A
N104  C309  1.381 1_655  A
N104  C310  1.329 .      A
C310  C311  1.357 .      A
C310  C315  1.358 .      A
C311  C312  1.369 .      A
C312  C313  1.379 .      A
C313  C314  1.379 .      A
C314  C315  1.368 .      A
C315  N105  1.355 .      A
N105  C309  1.389 1_655  A
C318  N107  1.388 .      A
C318  N108  1.386 .      A
N107  C319  1.363 .      A
C319  C320  1.369 .      A
C319  C324  1.371 .      A
C320  C321  1.384 .      A
C321  C322  1.386 .      A
C322  C323  1.380 .      A
C323  C324  1.368 .      A
C324  N108  1.338 .      A
C327  N110  1.393 .      A
C327  N111  1.392 .      A
N110  C328  1.340 .      A
C328  C329  1.370 .      A
C328  C333  1.360 .      A
C329  C330  1.379 .      A
C330  C331  1.385 .      A
C331  C332  1.374 .      A
C332  C333  1.364 .      A
C333  N111  1.344 .      A
C336  N113  1.384 .      A
C336  N114  1.374 .      A
N113  C337  1.347 .      A
C337  C338  1.370 .      A
C337  C342  1.370 .      A
C338  C339  1.384 .      A
C339  C340  1.388 .      A
C340  C341  1.384 .      A
C341  C342  1.371 .      A
C342  N114  1.350 .      A
C345  N116  1.377 .      A
C345  N117  1.370 .      A
N116  C346  1.339 .      A
C346  C347  1.372 .      A
C346  C351  1.361 .      A
C347  C348  1.378 .      A
C348  C349  1.382 .      A
C349  C350  1.382 .      A
C350  C351  1.366 .      A
C351  N117  1.360 .      A
C354  N119  1.381 .      A
C354  N120  1.395 .      A
N119  C355  1.327 .      A
C355  C356  1.344 .      A
C355  C360  1.330 .      A
C356  C357  1.373 .      A
C357  C358  1.369 .      A
C358  C359  1.372 .      A
C359  C360  1.350 .      A
C360  N120  1.331 .      A
C363  N122  1.389 .      A
C363  N123  1.377 .      A
N122  C364  1.352 .      A
C364  C365  1.373 .      A
C364  C369  1.374 .      A
C365  C366  1.383 .      A
C366  C367  1.388 .      A
C367  C368  1.383 .      A
C368  C369  1.376 .      A
C369  N123  1.351 .      A
C372  N125  1.383 .      A
C372  N126  1.383 .      A
N125  C373  1.341 .      A
C373  C374  1.371 .      A
C373  C378  1.350 .      A
C374  C375  1.383 .      A
C375  C376  1.387 .      A
C376  C377  1.384 .      A
C377  C378  1.365 .      A
C378  N126  1.344 .      A
C381  N128  1.388 .      A
C381  N129  1.378 .      A
N128  C382  1.366 .      A
C382  C383  1.378 .      A
C382  C387  1.363 .      A
C383  C384  1.384 .      A
C384  C385  1.384 .      A
C385  C386  1.378 .      A
C386  C387  1.373 .      A
C387  N129  1.334 .      A
C390  N131  1.379 .      A
C390  N132  1.390 .      A
N131  C391  1.343 .      A
C391  C392  1.371 .      A
C391  C396  1.365 .      A
C392  C393  1.382 .      A
C393  C394  1.389 .      A
C394  C395  1.384 .      A
C395  C396  1.372 .      A
C396  N132  1.352 .      A
C399  N134  1.390 .      A
C399  N135  1.389 .      A
N134  C400  1.357 .      A
C400  C401  1.376 .      A
C400  C405  1.372 .      A
C401  C402  1.382 .      A
C402  C403  1.384 .      A
C403  C404  1.380 .      A
C404  C405  1.372 .      A
C405  N135  1.346 .      A
C408  N137  1.387 1_556  A
C408  N138  1.399 1_556  A
N137  C408  1.387 1_554  A
N137  C409  1.347 .      A
C409  C410  1.372 .      A
C409  C414  1.370 .      A
C410  C411  1.382 .      A
C411  C412  1.388 .      A
C412  C413  1.384 .      A
C413  C414  1.368 .      A
C414  N138  1.348 .      A
N138  C408  1.399 1_554  A
C417  N140  1.380 1_556  A
C417  N141  1.384 1_556  A
N140  C417  1.380 1_554  A
N140  C418  1.354 .      A
C418  C419  1.371 .      A
C418  C423  1.366 .      A
C419  C420  1.384 .      A
C420  C421  1.388 1_655  A
C421  C420  1.388 1_455  A
C421  C422  1.382 1_455  A
C422  C421  1.382 1_655  A
C422  C423  1.369 .      A
C423  N141  1.339 .      A
N141  C417  1.384 1_554  A
C426  N143  1.409 .      A
C426  N144  1.407 .      A
N143  C427  1.331 .      A
C427  C428  1.343 .      A
C427  C432  1.337 .      A
C428  C429  1.368 .      A
C429  C430  1.366 .      A
C430  C431  1.370 .      A
C431  C432  1.356 .      A
C432  N144  1.325 .      A
C435  N146  1.391 .      A
C435  N147  1.392 .      A
N146  C436  1.340 .      A
C436  C437  1.371 .      A
C436  C441  1.372 .      A
C437  C438  1.382 .      A
C438  C439  1.389 .      A
C439  C440  1.385 .      A
C440  C441  1.369 .      A
C441  N147  1.356 .      A
C444  N149  1.400 .      A
C444  N150  1.386 .      A
N149  C445  1.332 .      A
C445  C446  1.363 .      A
C445  C450  1.355 .      A
C446  C447  1.369 .      A
C447  C448  1.370 .      A
C448  C449  1.357 .      A
C449  C450  1.367 .      A
C450  N150  1.346 .      A
C453  N152  1.383 .      A
C453  N153  1.386 .      A
N152  C454  1.351 .      A
C454  C455  1.371 .      A
C454  C459  1.363 .      A
C455  C456  1.384 .      A
C456  C457  1.385 .      A
C457  C458  1.379 .      A
C458  C459  1.373 .      A
C459  N153  1.347 .      A
C462  N155  1.375 .      A
C462  N156  1.359 .      A
N155  C463  1.339 .      A
C463  C464  1.366 .      A
C463  C468  1.358 .      A
C464  C465  1.382 .      A
C465  C466  1.387 .      A
C466  C467  1.384 .      A
C467  C468  1.375 .      A
C468  N156  1.350 .      A
C471  N158  1.401 .      A
C471  N159  1.392 .      A
N158  C472  1.352 .      A
C472  C473  1.374 .      A
C472  C477  1.376 .      A
C473  C474  1.385 .      A
C474  C475  1.392 .      A
C475  C476  1.385 .      A
C476  C477  1.368 .      A
C477  N159  1.346 .      A
C480  N161  1.381 .      A
C480  N162  1.394 .      A
N161  C481  1.346 .      A
C481  C482  1.359 .      A
C481  C486  1.363 .      A
C482  C483  1.384 .      A
C483  C484  1.386 .      A
C484  C485  1.379 .      A
C485  C486  1.372 .      A
C486  N162  1.341 .      A
C489  N164  1.394 .      A
C489  N165  1.401 .      A
N164  C490  1.348 .      A
C490  C491  1.370 .      A
C490  C495  1.372 .      A
C491  C492  1.380 .      A
C492  C493  1.385 .      A
C493  C494  1.382 .      A
C494  C495  1.373 .      A
C495  N165  1.351 .      A
C498  N167  1.409 .      A
C498  N168  1.403 .      A
N167  C499  1.359 .      A
C499  C500  1.358 .      A
C499  C504  1.358 .      A
C500  C501  1.377 .      A
C501  C502  1.374 .      A
C502  C503  1.376 .      A
C503  C504  1.361 .      A
C504  N168  1.340 .      A
C507  N170  1.396 .      A
C507  N171  1.400 .      A
N170  C508  1.325 .      A
C508  C509  1.332 .      A
C508  C513  1.346 .      A
C509  C510  1.349 .      A
C510  C511  1.358 .      A
C511  C512  1.355 .      A
C512  C513  1.350 .      A
C513  N171  1.327 .      A
C516  N173  1.396 .      A
C516  N174  1.397 .      A
N173  C517  1.361 .      A
C517  C518  1.373 .      A
C517  C522  1.362 .      A
C518  C519  1.381 .      A
C519  C520  1.378 .      A
C520  C521  1.372 .      A
C521  C522  1.370 .      A
C522  N174  1.334 .      A
C525  N176  1.375 .      A
C525  N177  1.401 .      A
N176  C526  1.344 .      A
C526  C527  1.369 .      A
C526  C531  1.372 .      A
C527  C528  1.383 .      A
C528  C529  1.389 .      A
C529  C530  1.384 .      A
C530  C531  1.367 .      A
C531  N177  1.353 .      A
C534  N179  1.369 .      A
C534  N180  1.380 .      A
N179  C535  1.347 .      A
C535  C536  1.374 .      A
C535  C540  1.378 .      A
C536  C537  1.383 .      A
C537  C538  1.390 .      A
C538  C539  1.384 .      A
C539  C540  1.375 .      A
C540  N180  1.355 .      A
C543  N182  1.373 .      A
C543  N183  1.376 .      A
N182  C544  1.347 .      A
C544  C545  1.375 .      A
C544  C549  1.364 .      A
C545  C546  1.382 .      A
C546  C547  1.386 .      A
C547  C548  1.381 .      A
C548  C549  1.373 .      A
C549  N183  1.353 .      A
C552  N185  1.388 .      A
C552  N186  1.392 .      A
N185  C553  1.351 .      A
C553  C554  1.375 .      A
C553  C558  1.376 .      A
C554  C555  1.385 .      A
C555  C556  1.392 .      A
C556  C557  1.384 .      A
C557  C558  1.372 .      A
C558  N186  1.349 .      A
C561  N188  1.366 .      A
C561  N189  1.397 .      A
N188  C562  1.342 .      A
C562  C563  1.374 .      A
C562  C567  1.359 .      A
C563  C564  1.381 .      A
C564  C565  1.387 .      A
C565  C566  1.384 .      A
C566  C567  1.368 .      A
C567  N189  1.352 .      A
C570  N191  1.378 .      A
C570  N192  1.396 .      A
N191  C571  1.332 .      A
C571  C572  1.371 .      A
C571  C576  1.353 .      A
C572  C573  1.371 .      A
C573  C574  1.380 .      A
C574  C575  1.386 .      A
C575  C576  1.352 .      A
C576  N192  1.341 .      A
C579  N194  1.406 .      A
C579  N195  1.391 .      A
N194  C580  1.353 .      A
C580  C581  1.369 .      A
C580  C585  1.373 .      A
C581  C582  1.385 .      A
C582  C583  1.391 .      A
C583  C584  1.384 .      A
C584  C585  1.370 .      A
C585  N195  1.342 .      A
C588  N197  1.389 .      A
C588  N198  1.401 .      A
N197  C589  1.343 .      A
C589  C590  1.364 .      A
C589  C594  1.369 .      A
C590  C591  1.385 .      A
C591  C592  1.393 .      A
C592  C593  1.386 .      A
C593  C594  1.376 .      A
C594  N198  1.350 .      A
C597  N200  1.383 .      A
C597  N201  1.372 .      A
N200  C598  1.342 .      A
C598  C599  1.365 .      A
C598  C603  1.358 .      A
C599  C600  1.378 .      A
C600  C601  1.383 .      A
C601  C602  1.383 .      A
C602  C603  1.366 .      A
C603  N201  1.347 .      A
C606  N203  1.381 .      A
C606  N204  1.403 .      A
N203  C607  1.340 .      A
C607  C608  1.373 .      A
C607  C612  1.372 .      A
C608  C609  1.380 .      A
C609  C610  1.383 .      A
C610  C611  1.383 .      A
C611  C612  1.372 .      A
C612  N204  1.360 .      A
C615  N206  1.364 .      A
C615  N207  1.398 .      A
N206  C616  1.343 .      A
C616  C617  1.375 .      A
C616  C621  1.361 .      A
C617  C618  1.381 .      A
C618  C619  1.385 .      A
C619  C620  1.382 .      A
C620  C621  1.369 .      A
C621  N207  1.354 .      A
C624  N209  1.380 .      A
C624  N210  1.368 1_545  A
N209  C625  1.335 .      A
C625  C626  1.371 .      A
C625  C630  1.360 .      A
C626  C627  1.376 .      A
C627  C628  1.383 .      A
C628  C629  1.382 .      A
C629  C630  1.371 .      A
C630  N210  1.355 1_545  A
N210  C624  1.368 1_565  A
N210  C630  1.355 1_565  A
C633  N212  1.384 .      A
C633  N213  1.387 .      A
N212  C634  1.352 .      A
C634  C635  1.373 .      A
C634  C639  1.355 .      A
C635  C636  1.376 .      A
C636  C637  1.374 .      A
C637  C638  1.375 .      A
C638  C639  1.372 .      A
C639  N213  1.346 .      A
C642  N215  1.402 .      A
C642  N216  1.376 .      A
N215  C643  1.353 .      A
C643  C644  1.375 .      A
C643  C648  1.373 .      A
C644  C645  1.383 .      A
C645  C646  1.388 .      A
C646  C647  1.383 .      A
C647  C648  1.374 .      A
C648  N216  1.347 .      A
C651  N218  1.382 .      A
C651  N219  1.392 .      A
N218  C652  1.335 .      A
C652  C653  1.351 1_565  A
C652  C657  1.356 .      A
C653  C652  1.351 1_545  A
C653  C654  1.373 .      A
C654  C655  1.395 .      A
C655  C656  1.370 .      A
C656  C657  1.363 1_545  A
C657  C656  1.363 1_565  A
C657  N219  1.338 .      A
C660  N221  1.390 .      A
C660  N222  1.391 .      A
N221  C661  1.335 .      A
C661  C662  1.350 .      A
C661  C666  1.335 .      A
C662  C663  1.362 .      A
C663  C664  1.356 .      A
C664  C665  1.370 .      A
C665  C666  1.353 .      A
C666  N222  1.324 .      A
C669  N224  1.385 .      A
C669  N225  1.366 .      A
N224  C670  1.353 .      A
C670  C671  1.373 .      A
C670  C675  1.374 .      A
C671  C672  1.384 .      A
C672  C673  1.389 .      A
C673  C674  1.383 .      A
C674  C675  1.374 .      A
C675  N225  1.350 .      A
C678  N227  1.369 .      A
C678  N228  1.391 .      A
N227  C679  1.341 .      A
C679  C680  1.372 .      A
C679  C684  1.366 .      A
C680  C681  1.383 .      A
C681  C682  1.389 .      A
C682  C683  1.384 .      A
C683  C684  1.373 .      A
C684  N228  1.355 .      A
C687  N230  1.380 .      A
C687  N231  1.388 .      A
N230  C688  1.348 1_565  A
C688  N230  1.348 1_545  A
C688  C689  1.365 .      A
C688  C693  1.354 .      A
C689  C690  1.383 .      A
C690  C691  1.382 .      A
C691  C692  1.378 .      A
C692  C693  1.374 .      A
C693  N231  1.346 1_545  A
N231  C693  1.346 1_565  A
C696  N233  1.391 .      A
C696  N234  1.386 .      A
N233  C697  1.342 .      A
C697  C698  1.357 .      A
C697  C702  1.357 .      A
C698  C699  1.381 .      A
C699  C700  1.373 .      A
C700  C701  1.369 .      A
C701  C702  1.361 .      A
C702  N234  1.347 .      A
C705  N236  1.382 .      A
C705  N237  1.363 .      A
N236  C706  1.345 .      A
C706  C707  1.368 .      A
C706  C711  1.362 .      A
C707  C708  1.384 .      A
C708  C709  1.389 .      A
C709  C710  1.385 .      A
C710  C711  1.372 .      A
C711  N237  1.344 .      A
C714  N239  1.387 .      A
C714  N240  1.377 .      A
N239  C715  1.342 .      A
C715  C716  1.360 .      A
C715  C720  1.372 .      A
C716  C717  1.378 .      A
C717  C718  1.384 .      A
C718  C719  1.378 .      A
C719  C720  1.367 .      A
C720  N240  1.349 .      A
C723  N242  1.367 .      A
C723  N243  1.392 .      A
N242  C724  1.347 .      A
C724  C725  1.381 .      A
C724  C729  1.368 .      A
C725  C726  1.373 .      A
C726  C727  1.375 .      A
C727  C728  1.379 .      A
C728  C729  1.386 .      A
C729  N243  1.372 .      A
C732  N245  1.389 .      A
C732  N246  1.372 .      A
N245  C733  1.353 .      A
C733  C734  1.373 .      A
C733  C738  1.357 .      A
C734  C735  1.382 .      A
C735  C736  1.382 .      A
C736  C737  1.379 .      A
C737  C738  1.373 .      A
C738  N246  1.344 .      A
C741  N248  1.389 .      A
C741  N249  1.392 .      A
N248  C742  1.347 .      A
C742  C743  1.373 .      A
C742  C747  1.361 .      A
C743  C744  1.384 .      A
C744  C745  1.387 .      A
C745  C746  1.380 .      A
C746  C747  1.365 .      A
C747  N249  1.341 .      A
C750  N251  1.370 .      A
C750  N252  1.382 .      A
N251  C751  1.339 .      A
C751  C752  1.342 .      A
C751  C756  1.327 .      A
C752  C753  1.388 .      A
C753  C754  1.372 .      A
C754  C755  1.363 .      A
C755  C756  1.329 .      A
C756  N252  1.317 .      A
C759  N254  1.378 .      A
C759  N255  1.371 .      A
N254  C760  1.345 .      A
C760  C761  1.372 .      A
C760  C765  1.374 .      A
C761  C762  1.382 .      A
C762  C763  1.387 .      A
C763  C764  1.383 .      A
C764  C765  1.375 .      A
C765  N255  1.352 .      A
C768  N257  1.372 .      A
C768  N258  1.372 .      A
N257  C769  1.363 .      A
C769  C770  1.383 .      A
C769  C774  1.364 .      A
C770  C771  1.384 .      A
C771  C772  1.386 .      A
C772  C773  1.380 .      A
C773  C774  1.377 .      A
C774  N258  1.346 .      A
C777  N260  1.375 .      A
C777  N261  1.392 .      A
N260  C778  1.330 .      A
C778  C779  1.339 .      A
C778  C783  1.334 .      A
C779  C780  1.377 .      A
C780  C781  1.385 .      A
C781  C782  1.371 .      A
C782  C783  1.353 .      A
C783  N261  1.333 .      A
C786  N263  1.396 .      A
C786  N264  1.399 .      A
N263  C787  1.343 .      A
C787  C788  1.369 .      A
C787  C792  1.374 .      A
C788  C789  1.379 .      A
C789  C790  1.383 .      A
C790  C791  1.382 .      A
C791  C792  1.372 .      A
C792  N264  1.358 .      A
C795  N266  1.394 .      A
C795  N267  1.384 .      A
N266  C796  1.353 .      A
C796  C797  1.375 .      A
C796  C801  1.367 .      A
C797  C798  1.378 .      A
C798  C799  1.378 .      A
C799  C800  1.378 .      A
C800  C801  1.380 .      A
C801  N267  1.354 .      A
C804  N269  1.379 .      A
C804  N270  1.384 .      A
N269  C805  1.339 .      A
C805  C806  1.359 .      A
C805  C810  1.362 .      A
C806  C807  1.383 .      A
C807  C808  1.387 .      A
C808  C809  1.383 .      A
C809  C810  1.365 .      A
C810  N270  1.349 .      A
C813  N272  1.389 .      A
C813  N273  1.378 .      A
N272  C814  1.349 .      A
C814  C815  1.371 1_655  A
C814  C819  1.378 .      A
C815  C814  1.371 1_455  A
C815  C816  1.384 .      A
C816  C817  1.391 1_455  A
C817  C816  1.391 1_655  A
C817  C818  1.384 .      A
C818  C819  1.370 .      A
C819  N273  1.350 .      A
C822  N275  1.403 .      A
C822  N276  1.365 .      A
N275  C823  1.345 .      A
C823  C824  1.361 .      A
C823  C828  1.363 .      A
C824  C825  1.378 .      A
C825  C826  1.384 .      A
C826  C827  1.379 .      A
C827  C828  1.365 .      A
C828  N276  1.342 .      A
C831  N278  1.385 1_556  A
C831  N279  1.383 .      A
N278  C831  1.385 1_554  A
N278  C832  1.351 1_554  A
C832  N278  1.351 1_556  A
C832  C833  1.370 1_556  A
C832  C837  1.370 .      A
C833  C832  1.370 1_554  A
C833  C834  1.382 .      A
C834  C835  1.386 1_554  A
C835  C834  1.386 1_556  A
C835  C836  1.382 .      A
C836  C837  1.376 .      A
C837  N279  1.350 .      A
C840  N281  1.360 .      A
C840  N282  1.380 .      A
N281  C841  1.340 .      A
C841  C842  1.372 .      A
C841  C846  1.350 .      A
C842  C843  1.375 .      A
C843  C844  1.381 .      A
C844  C845  1.380 .      A
C845  C846  1.379 .      A
C846  N282  1.358 .      A
C849  N284  1.388 .      A
C849  N285  1.366 .      A
N284  C850  1.347 .      A
C850  C851  1.366 .      A
C850  C855  1.334 .      A
C851  C852  1.370 .      A
C852  C853  1.377 .      A
C853  C854  1.358 .      A
C854  C855  1.348 .      A
C855  N285  1.320 .      A
C858  N287  1.391 .      A
C858  N288  1.390 .      A
N287  C859  1.338 1_655  A
C859  N287  1.338 1_455  A
C859  C860  1.357 .      A
C859  C864  1.359 .      A
C860  C861  1.379 1_545  A
C861  C860  1.379 1_565  A
C861  C862  1.375 .      A
C862  C863  1.385 1_565  A
C863  C862  1.385 1_545  A
C863  C864  1.368 .      A
C864  N288  1.341 1_455  A
N288  C864  1.341 1_655  A
C867  N290  1.375 .      A
C867  N291  1.378 .      A
N290  C868  1.346 .      A
C868  C869  1.370 .      A
C868  C873  1.363 .      A
C869  C870  1.379 1_565  A
C870  C869  1.379 1_545  A
C870  C871  1.385 .      A
C871  C872  1.380 .      A
C872  C873  1.374 1_545  A
C873  C872  1.374 1_565  A
C873  N291  1.350 .      A
C876  N293  1.374 .      A
C876  N294  1.378 .      A
N293  C877  1.359 .      A
C877  C878  1.367 .      A
C877  C882  1.367 .      A
C878  C879  1.386 .      A
C879  C880  1.387 .      A
C880  C881  1.379 .      A
C881  C882  1.371 .      A
C882  N294  1.333 .      A
C885  N296  1.389 .      A
C885  N297  1.378 .      A
N296  C886  1.350 .      A
C886  C887  1.368 1_655  A
C886  C891  1.368 .      A
C887  C886  1.368 1_455  A
C887  C888  1.386 .      A
C888  C889  1.391 1_455  A
C889  C888  1.391 1_655  A
C889  C890  1.384 .      A
C890  C891  1.372 .      A
C891  N297  1.343 .      A
C894  N299  1.395 .      A
C894  N300  1.384 .      A
N299  C895  1.324 .      A
C895  C896  1.346 .      A
C895  C900  1.359 .      A
C896  C897  1.352 .      A
C897  C898  1.374 .      A
C898  C899  1.378 .      A
C899  C900  1.353 .      A
C900  N300  1.335 .      A
C903  N302  1.385 .      A
C903  N303  1.380 .      A
N302  C904  1.349 .      A
C904  C905  1.363 .      A
C904  C909  1.365 .      A
C905  C906  1.384 .      A
C906  C907  1.386 .      A
C907  C908  1.382 .      A
C908  C909  1.369 .      A
C909  N303  1.341 .      A
C912  N305  1.376 .      A
C912  N306  1.375 .      A
N305  C913  1.344 .      A
C913  C914  1.367 .      A
C913  C918  1.350 .      A
C914  C915  1.380 .      A
C915  C916  1.387 .      A
C916  C917  1.385 .      A
C917  C918  1.377 .      A
C918  N306  1.341 .      A
C921  N308  1.381 .      A
C921  N309  1.376 .      A
N308  C922  1.355 1_655  A
C922  N308  1.355 1_455  A
C922  C923  1.377 .      A
C922  C927  1.345 .      A
C923  C924  1.370 .      A
C924  C925  1.370 .      A
C925  C926  1.373 .      A
C926  C927  1.366 .      A
C927  N309  1.341 1_455  A
N309  C927  1.341 1_655  A
C930  N311  1.379 .      A
C930  N312  1.395 .      A
N311  C931  1.338 .      A
C931  C932  1.371 .      A
C931  C936  1.370 .      A
C932  C933  1.382 .      A
C933  C934  1.389 .      A
C934  C935  1.385 .      A
C935  C936  1.368 .      A
C936  N312  1.356 .      A
C939  N314  1.404 .      A
C939  N315  1.375 .      A
N314  C940  1.352 .      A
C940  C941  1.371 .      A
C940  C945  1.369 .      A
C941  C942  1.381 .      A
C942  C943  1.384 .      A
C943  C944  1.381 .      A
C944  C945  1.372 .      A
C945  N315  1.347 .      A
C948  N317  1.380 .      A
C948  N318  1.393 .      A
N317  C949  1.338 .      A
C949  C950  1.369 .      A
C949  C954  1.360 .      A
C950  C951  1.381 .      A
C951  C952  1.386 .      A
C952  C953  1.381 .      A
C953  C954  1.363 .      A
C954  N318  1.352 .      A
C957  N320  1.385 .      A
C957  N321  1.379 .      A
N320  C958  1.346 1_565  A
C958  N320  1.346 1_545  A
C958  C959  1.373 .      A
C958  C963  1.351 .      A
C959  C960  1.377 .      A
C960  C961  1.383 .      A
C961  C962  1.385 .      A
C962  C963  1.374 .      A
C963  N321  1.346 1_545  A
N321  C963  1.346 1_565  A
C966  N323  1.397 .      A
C966  N324  1.387 .      A
N323  C967  1.358 .      A
C967  C968  1.373 .      A
C967  C972  1.368 .      A
C968  C969  1.387 .      A
C969  C970  1.387 .      A
C970  C971  1.379 .      A
C971  C972  1.371 .      A
C972  N324  1.336 .      A
C975  N326  1.371 .      A
C975  N327  1.376 1_545  A
N326  C976  1.353 1_545  A
C976  N326  1.353 1_565  A
C976  C977  1.374 .      A
C976  C981  1.345 .      A
C977  C978  1.383 1_556  A
C978  C977  1.383 1_554  A
C978  C979  1.381 .      A
C979  C980  1.375 1_554  A
C980  C979  1.375 1_556  A
C980  C981  1.368 .      A
C981  N327  1.337 .      A
N327  C975  1.376 1_565  A
C984  N329  1.386 .      A
C984  N330  1.386 1_556  A
N329  C985  1.336 1_565  A
C985  N329  1.336 1_545  A
C985  C986  1.348 .      A
C985  C990  1.348 1_556  A
C986  C987  1.373 1_556  A
C987  C986  1.373 1_554  A
C987  C988  1.372 .      A
C988  C989  1.371 .      A
C989  C990  1.374 .      A
C990  C985  1.348 1_554  A
C990  N330  1.349 1_545  A
N330  C984  1.386 1_554  A
N330  C990  1.349 1_565  A
C993  N332  1.379 .      A
C993  N333  1.395 .      A
N332  C994  1.341 .      A
C994  C995  1.373 .      A
C994  C999  1.363 .      A
C995  C996  1.379 .      A
C996  C997  1.383 .      A
C997  C998  1.382 .      A
C998  C999  1.374 .      A
C999  N333  1.358 .      A
C1002 N335  1.391 .      A
C1002 N336  1.396 .      A
N335  C1003 1.336 .      A
C1003 C1004 1.356 .      A
C1003 C1008 1.360 .      A
C1004 C1005 1.380 .      A
C1005 C1006 1.374 .      A
C1006 C1007 1.367 .      A
C1007 C1008 1.357 .      A
C1008 N336  1.343 .      A
C1011 N338  1.399 .      A
C1011 N339  1.380 .      A
N338  C1012 1.342 1_655  A
C1012 N338  1.342 1_455  A
C1012 C1013 1.364 .      A
C1012 C1017 1.358 .      A
C1013 C1014 1.378 .      A
C1014 C1015 1.383 .      A
C1015 C1016 1.384 .      A
C1016 C1017 1.378 .      A
C1017 N339  1.352 1_455  A
N339  C1017 1.352 1_655  A
C1020 N341  1.391 .      A
C1020 N342  1.386 .      A
N341  C1021 1.339 .      A
C1021 C1022 1.370 .      A
C1021 C1026 1.370 .      A
C1022 C1023 1.381 .      A
C1023 C1024 1.390 .      A
C1024 C1025 1.385 .      A
C1025 C1026 1.367 .      A
C1026 N342  1.353 .      A
C1029 N344  1.380 1_546  A
C1029 N345  1.376 1_545  A
N344  C1029 1.380 1_564  A
N344  C1030 1.349 1_554  A
C1030 N344  1.349 1_556  A
C1030 C1031 1.373 1_556  A
C1030 C1035 1.364 .      A
C1031 C1030 1.373 1_554  A
C1031 C1032 1.384 1_554  A
C1032 C1031 1.384 1_556  A
C1032 C1033 1.390 .      A
C1033 C1034 1.385 .      A
C1034 C1035 1.373 .      A
C1035 N345  1.349 .      A
N345  C1029 1.376 1_565  A
C1038 N347  1.389 .      A
C1038 N348  1.398 .      A
N347  C1039 1.356 .      A
C1039 C1040 1.373 .      A
C1039 C1044 1.368 .      A
C1040 C1041 1.383 .      A
C1041 C1042 1.387 .      A
C1042 C1043 1.382 .      A
C1043 C1044 1.367 .      A
C1044 N348  1.340 .      A
C1047 N350  1.387 .      A
C1047 N351  1.384 .      A
N350  C1048 1.341 .      A
C1048 C1049 1.367 .      A
C1048 C1053 1.366 .      A
C1049 C1050 1.383 .      A
C1050 C1051 1.389 .      A
C1051 C1052 1.385 .      A
C1052 C1053 1.364 .      A
C1053 N351  1.350 .      A
C1056 N353  1.387 1_556  A
C1056 N354  1.383 1_556  A
N353  C1056 1.387 1_554  A
N353  C1057 1.344 .      A
C1057 C1058 1.366 .      A
C1057 C1062 1.377 .      A
C1058 C1059 1.382 .      A
C1059 C1060 1.389 .      A
C1060 C1061 1.385 .      A
C1061 C1062 1.375 .      A
C1062 N354  1.358 .      A
N354  C1056 1.383 1_554  A
C1065 N356  1.378 .      A
C1065 N357  1.377 .      A
N356  C1066 1.346 .      A
C1066 C1067 1.363 .      A
C1066 C1071 1.356 .      A
C1067 C1068 1.380 .      A
C1068 C1069 1.387 .      A
C1069 C1070 1.380 .      A
C1070 C1071 1.361 .      A
C1071 N357  1.338 .      A
C1074 N359  1.392 .      A
C1074 N360  1.397 .      A
N359  C1075 1.318 .      A
C1075 C1076 1.352 .      A
C1075 C1080 1.338 .      A
C1076 C1077 1.355 .      A
C1077 C1078 1.360 .      A
C1078 C1079 1.380 .      A
C1079 C1080 1.359 .      A
C1080 N360  1.360 .      A
C1083 N362  1.389 .      A
C1083 N363  1.387 .      A
N362  C1084 1.339 .      A
C1084 C1085 1.372 .      A
C1084 C1089 1.363 .      A
C1085 C1086 1.381 .      A
C1086 C1087 1.385 .      A
C1087 C1088 1.383 .      A
C1088 C1089 1.363 .      A
C1089 N363  1.348 .      A
C1092 N365  1.394 .      A
C1092 N366  1.394 .      A
N365  C1093 1.349 .      A
C1093 C1094 1.366 .      A
C1093 C1098 1.362 .      A
C1094 C1095 1.383 .      A
C1095 C1096 1.388 .      A
C1096 C1097 1.382 .      A
C1097 C1098 1.375 .      A
C1098 N366  1.347 .      A
C1101 N368  1.384 .      A
C1101 N369  1.378 .      A
N368  C1102 1.350 .      A
C1102 C1103 1.373 .      A
C1102 C1107 1.364 .      A
C1103 C1104 1.384 .      A
C1104 C1105 1.389 .      A
C1105 C1106 1.383 .      A
C1106 C1107 1.371 .      A
C1107 N369  1.347 .      A
C1110 N371  1.388 .      A
C1110 N372  1.382 .      A
N371  C1111 1.336 1_565  A
C1111 N371  1.336 1_545  A
C1111 C1112 1.347 .      A
C1111 C1116 1.364 1_545  A
C1112 C1113 1.361 .      A
C1113 C1114 1.383 .      A
C1114 C1115 1.366 .      A
C1115 C1116 1.365 1_545  A
C1116 C1111 1.364 1_565  A
C1116 C1115 1.365 1_565  A
C1116 N372  1.332 .      A
C1119 N374  1.387 .      A
C1119 N375  1.390 .      A
N374  C1120 1.360 .      A
C1120 C1121 1.372 1_565  A
C1120 C1125 1.368 .      A
C1121 C1120 1.372 1_545  A
C1121 C1122 1.384 .      A
C1122 C1123 1.385 .      A
C1123 C1124 1.379 1_545  A
C1124 C1123 1.379 1_565  A
C1124 C1125 1.370 .      A
C1125 N375  1.336 .      A
C1128 N377  1.386 .      A
C1128 N378  1.387 .      A
N377  C1129 1.349 .      A
C1129 C1130 1.371 .      A
C1129 C1134 1.369 .      A
C1130 C1131 1.380 .      A
C1131 C1132 1.385 .      A
C1132 C1133 1.383 .      A
C1133 C1134 1.370 .      A
C1134 N378  1.348 .      A
C1137 N380  1.383 .      A
C1137 N381  1.379 .      A
N380  C1138 1.351 .      A
C1138 C1139 1.361 .      A
C1138 C1143 1.359 .      A
C1139 C1140 1.383 .      A
C1140 C1141 1.387 .      A
C1141 C1142 1.382 .      A
C1142 C1143 1.375 .      A
C1143 N381  1.343 .      A
C1146 N383  1.385 .      A
C1146 N384  1.372 .      A
N383  C1147 1.350 .      A
C1147 C1148 1.366 .      A
C1147 C1152 1.360 .      A
C1148 C1149 1.387 .      A
C1149 C1150 1.386 .      A
C1150 C1151 1.378 .      A
C1151 C1152 1.370 .      A
C1152 N384  1.337 .      A
