data_str_m1_o12038_CAN
_audit_creation_date              2015-10-01T06:40:59-0700
_symmetry_space_group_name_H-M    P1
_symmetry_Int_Tables_number       1
_space_group_crystal_system       triclinic
loop_
_symmetry_equiv_pos_as_xyz
  x,y,z
_cell_length_a                    24.7587238
_cell_length_b                    25.1093345
_cell_length_c                    10.9010116
_cell_angle_alpha                 89.8353599
_cell_angle_beta                  86.7129368
_cell_angle_gamma                 61.7360272
_cell_volume                      5956.82292025

loop_
_atom_site_label
_atom_site_type_symbol
_atom_site_description
_atom_site_fract_x
_atom_site_fract_y
_atom_site_fract_z
_atom_type_partial_charge
Zn1   Zn    Zn3+2 0.306293 0.695264 0.588417 0.000000
Zn2   Zn    Zn3+2 0.911278 0.789151 0.068862 0.000000
Zn3   Zn    Zn3+2 0.634108 0.546253 0.050499 0.000000
Zn4   Zn    Zn3+2 0.904932 0.531728 0.096201 0.000000
Zn5   Zn    Zn3+2 0.647694 0.038365 0.063578 0.000000
Zn6   Zn    Zn3+2 0.377586 0.786368 0.065349 0.000000
Zn7   Zn    Zn3+2 0.562185 0.459571 0.555708 0.000000
Zn8   Zn    Zn3+2 0.313920 0.203466 0.598227 0.000000
Zn9   Zn    Zn3+2 0.051718 0.451576 0.588845 0.000000
Zn10  Zn    Zn3+2 0.043610 0.710195 0.569367 0.000000
Zn11  Zn    Zn3+2 0.387140 0.045580 0.080255 0.000000
Zn12  Zn    Zn3+2 0.575170 0.193563 0.580117 0.000000
N1    N     N_2   0.165368 0.579389 0.248115 0.000000
C1    C     C_R   0.104720 0.598530 0.216277 0.000000
C2    C     C_R   0.076342 0.563552 0.240954 0.000000
C3    C     C_R   0.021246 0.577616 0.190312 0.000000
C4    C     C_R   0.991050 0.630297 0.127789 0.000000
C5    C     C_R   0.019108 0.665838 0.107708 0.000000
C6    C     C_R   0.076943 0.648245 0.145835 0.000000
C7    C     C_R   0.927334 0.654241 0.093442 0.000000
N2    N     N_R   0.893442 0.622624 0.089982 0.000000
C8    C     C_R   0.837242 0.668351 0.069149 0.000000
C9    C     C_R   0.784832 0.664907 0.055517 0.000000
C10   C     C_R   0.731569 0.717242 0.033696 0.000000
N3    N     N_2   0.676663 0.714816 0.021196 0.000000
C11   C     C_R   0.732357 0.771677 0.020591 0.000000
C12   C     C_R   0.786094 0.774351 0.033189 0.000000
C13   C     C_R   0.837564 0.722169 0.058057 0.000000
N4    N     N_R   0.893690 0.715479 0.071353 0.000000
H1    H     H_    0.193178 0.533598 0.235899 0.000000
H2    H     H_    0.183709 0.605061 0.209100 0.000000
H3    H     H_    0.097819 0.525058 0.298926 0.000000
H4    H     H_    0.000585 0.549003 0.202866 0.000000
H5    H     H_    0.996465 0.706678 0.057969 0.000000
H6    H     H_    0.101681 0.672271 0.119266 0.000000
H7    H     H_    0.788441 0.622005 0.038902 0.000000
H8    H     H_    0.647466 0.746123 0.962699 0.000000
H9    H     H_    0.683347 0.671448 0.013092 0.000000
H10   H     H_    0.690975 0.811969 0.999671 0.000000
H11   H     H_    0.787564 0.815869 0.022321 0.000000
N5    N     N_2   0.652532 0.716066 0.502694 0.000000
C14   C     C_R   0.676880 0.690562 0.385236 0.000000
C15   C     C_R   0.640624 0.683336 0.304224 0.000000
C16   C     C_R   0.668368 0.641152 0.210635 0.000000
C17   C     C_R   0.730701 0.610788 0.193594 0.000000
C18   C     C_R   0.765797 0.628954 0.256845 0.000000
C19   C     C_R   0.738204 0.669360 0.354088 0.000000
C20   C     C_R   0.759505 0.556372 0.116180 0.000000
N6    N     N_R   0.726820 0.528357 0.074864 0.000000
C21   C     C_R   0.773208 0.473120 0.040777 0.000000
C22   C     C_R   0.768185 0.423791 0.003128 0.000000
C23   C     C_R   0.821611 0.369734 0.981093 0.000000
N7    N     N_2   0.817897 0.317167 0.952545 0.000000
C24   C     C_R   0.878712 0.366930 0.986736 0.000000
C25   C     C_R   0.883100 0.417444 0.021853 0.000000
C26   C     C_R   0.829411 0.469059 0.057373 0.000000
N8    N     N_R   0.823180 0.522702 0.097714 0.000000
H12   H     H_    0.619547 0.705728 0.538729 0.000000
H13   H     H_    0.685815 0.711889 0.559424 0.000000
H14   H     H_    0.591463 0.708907 0.317024 0.000000
H15   H     H_    0.642907 0.629012 0.152913 0.000000
H16   H     H_    0.815068 0.607622 0.238170 0.000000
H17   H     H_    0.764692 0.681154 0.411541 0.000000
H18   H     H_    0.724252 0.426596 0.991830 0.000000
H19   H     H_    0.856127 0.277811 0.972948 0.000000
H20   H     H_    0.776022 0.320261 0.979580 0.000000
H21   H     H_    0.919988 0.324815 0.965144 0.000000
H22   H     H_    0.927515 0.415446 0.027157 0.000000
N9    N     N_2   0.225151 0.417721 0.053449 0.000000
C27   C     C_R   0.169181 0.430738 0.002861 0.000000
C28   C     C_R   0.165367 0.433310 0.877676 0.000000
C29   C     C_R   0.109294 0.452519 0.829037 0.000000
C30   C     C_R   0.057438 0.467198 0.905099 0.000000
C31   C     C_R   0.061322 0.464356 0.029223 0.000000
C32   C     C_R   0.116189 0.449519 0.078193 0.000000
C33   C     C_R   0.002369 0.472803 0.854635 0.000000
N10   N     N_R   0.007104 0.444792 0.743485 0.000000
C34   C     C_R   0.956544 0.438576 0.747038 0.000000
C35   C     C_R   0.943501 0.403891 0.670023 0.000000
C36   C     C_R   0.891837 0.398246 0.700452 0.000000
N11   N     N_2   0.881271 0.355391 0.637851 0.000000
C37   C     C_R   0.849563 0.436122 0.790515 0.000000
C38   C     C_R   0.859319 0.479447 0.849718 0.000000
C39   C     C_R   0.918830 0.469411 0.846220 0.000000
N12   N     N_R   0.947219 0.489898 0.922336 0.000000
H23   H     H_    0.251693 0.430686 0.998100 0.000000
H24   H     H_    0.220378 0.431358 0.144179 0.000000
H25   H     H_    0.206040 0.421115 0.817919 0.000000
H26   H     H_    0.106668 0.454653 0.731109 0.000000
H27   H     H_    0.021453 0.472483 0.086759 0.000000
H28   H     H_    0.116752 0.453240 0.175757 0.000000
H29   H     H_    0.975817 0.375840 0.598989 0.000000
H30   H     H_    0.835737 0.365836 0.639258 0.000000
H31   H     H_    0.906257 0.340203 0.554963 0.000000
H32   H     H_    0.809193 0.431487 0.811555 0.000000
H33   H     H_    0.821630 0.520559 0.888704 0.000000
N13   N     N_2   0.783165 0.685618 0.625637 0.000000
C40   C     C_R   0.835718 0.641229 0.560268 0.000000
C41   C     C_R   0.862996 0.655508 0.460233 0.000000
C42   C     C_R   0.910432 0.610833 0.390406 0.000000
C43   C     C_R   0.932167 0.552130 0.425003 0.000000
C44   C     C_R   0.904953 0.537998 0.523119 0.000000
C45   C     C_R   0.856380 0.582241 0.589566 0.000000
C46   C     C_R   0.975926 0.500696 0.353734 0.000000
N14   N     N_R   0.955669 0.484714 0.251164 0.000000
C47   C     C_R   0.974146 0.425578 0.270703 0.000000
C48   C     C_R   0.939892 0.397401 0.248316 0.000000
C49   C     C_R   0.955201 0.342000 0.299471 0.000000
N15   N     N_2   0.918842 0.313742 0.280672 0.000000
C50   C     C_R   0.001960 0.317262 0.379369 0.000000
C51   C     C_R   0.030941 0.349775 0.414228 0.000000
C52   C     C_R   0.012239 0.405597 0.365672 0.000000
N16   N     N_R   0.013403 0.452269 0.422138 0.000000
H34   H     H_    0.791750 0.715970 0.671920 0.000000
H35   H     H_    0.761492 0.667434 0.681225 0.000000
H36   H     H_    0.844237 0.700215 0.426659 0.000000
H37   H     H_    0.928170 0.622765 0.308537 0.000000
H38   H     H_    0.920470 0.491178 0.545181 0.000000
H39   H     H_    0.834259 0.570041 0.663145 0.000000
H40   H     H_    0.894237 0.423979 0.220797 0.000000
H41   H     H_    0.940510 0.268167 0.297336 0.000000
H42   H     H_    0.895304 0.326570 0.201885 0.000000
H43   H     H_    0.010265 0.275985 0.424754 0.000000
H44   H     H_    0.061552 0.335584 0.488319 0.000000
N17   N     N_2   0.639344 0.803662 0.407170 0.000000
C53   C     C_R   0.612215 0.854768 0.336371 0.000000
C54   C     C_R   0.644652 0.861668 0.238010 0.000000
C55   C     C_R   0.620330 0.914724 0.177057 0.000000
C56   C     C_R   0.561974 0.960445 0.212784 0.000000
C57   C     C_R   0.526046 0.942102 0.279287 0.000000
C58   C     C_R   0.551051 0.894001 0.354953 0.000000
C59   C     C_R   0.533440 0.010670 0.130115 0.000000
N18   N     N_R   0.579595 0.010160 0.052464 0.000000
C60   C     C_R   0.574393 0.981840 0.953898 0.000000
C61   C     C_R   0.618574 0.952219 0.863252 0.000000
C62   C     C_R   0.605864 0.920243 0.777406 0.000000
N19   N     N_2   0.653407 0.878456 0.698360 0.000000
C63   C     C_R   0.548825 0.922287 0.779234 0.000000
C64   C     C_R   0.505752 0.950215 0.875795 0.000000
C65   C     C_R   0.521220 0.977703 0.964609 0.000000
N20   N     N_R   0.487726 0.006876 0.067392 0.000000
H45   H     H_    0.685859 0.778809 0.386331 0.000000
H46   H     H_    0.625703 0.814983 0.498378 0.000000
H47   H     H_    0.687911 0.824893 0.205448 0.000000
H48   H     H_    0.646899 0.916634 0.096604 0.000000
H49   H     H_    0.487021 0.948300 0.235333 0.000000
H50   H     H_    0.522143 0.881187 0.412006 0.000000
H51   H     H_    0.663555 0.948528 0.868820 0.000000
H52   H     H_    0.644462 0.843594 0.677806 0.000000
H53   H     H_    0.695459 0.864979 0.733780 0.000000
H54   H     H_    0.540066 0.898409 0.708325 0.000000
H55   H     H_    0.464218 0.946152 0.886017 0.000000
N21   N     N_2   0.453623 0.018071 0.681730 0.000000
C66   C     C_R   0.492233 0.040759 0.716264 0.000000
C67   C     C_R   0.527225 0.050579 0.626594 0.000000
C68   C     C_R   0.555928 0.082952 0.657473 0.000000
C69   C     C_R   0.564980 0.088412 0.777905 0.000000
C70   C     C_R   0.530598 0.079697 0.867026 0.000000
C71   C     C_R   0.488926 0.061247 0.835232 0.000000
C72   C     C_R   0.606017 0.110622 0.810163 0.000000
N22   N     N_R   0.621540 0.142444 0.726206 0.000000
C73   C     C_R   0.677034 0.131428 0.760873 0.000000
C74   C     C_R   0.718428 0.145465 0.699682 0.000000
C75   C     C_R   0.770247 0.135426 0.759024 0.000000
N23   N     N_2   0.812759 0.151617 0.702446 0.000000
C76   C     C_R   0.779248 0.111972 0.876414 0.000000
C77   C     C_R   0.739288 0.093545 0.932100 0.000000
C78   C     C_R   0.688235 0.103992 0.871583 0.000000
N24   N     N_R   0.644222 0.088756 0.906219 0.000000
H56   H     H_    0.476882 0.981505 0.622241 0.000000
H57   H     H_    0.426931 0.015327 0.754180 0.000000
H58   H     H_    0.527367 0.038210 0.531968 0.000000
H59   H     H_    0.567433 0.107313 0.590036 0.000000
H60   H     H_    0.534639 0.094741 0.955410 0.000000
H61   H     H_    0.452025 0.066402 0.899342 0.000000
H62   H     H_    0.710079 0.165241 0.609942 0.000000
H63   H     H_    0.855687 0.129800 0.736366 0.000000
H64   H     H_    0.811437 0.153976 0.608325 0.000000
H65   H     H_    0.818180 0.107795 0.923903 0.000000
H66   H     H_    0.747415 0.072943 0.020877 0.000000
N25   N     N_2   0.727394 0.270688 0.101799 0.000000
C79   C     C_R   0.690753 0.245078 0.146916 0.000000
C80   C     C_R   0.668422 0.254648 0.267933 0.000000
C81   C     C_R   0.637470 0.224767 0.313903 0.000000
C82   C     C_R   0.626588 0.187482 0.238507 0.000000
C83   C     C_R   0.646067 0.180673 0.117053 0.000000
C84   C     C_R   0.679315 0.208110 0.071515 0.000000
C85   C     C_R   0.612282 0.142524 0.293330 0.000000
N26   N     N_R   0.612991 0.136767 0.419958 0.000000
C86   C     C_R   0.638042 0.076170 0.429114 0.000000
C87   C     C_R   0.665055 0.040814 0.527311 0.000000
C88   C     C_R   0.692716 0.978979 0.511345 0.000000
N27   N     N_2   0.720667 0.942141 0.609521 0.000000
C89   C     C_R   0.694140 0.953084 0.399500 0.000000
C90   C     C_R   0.667422 0.988955 0.302836 0.000000
C91   C     C_R   0.641952 0.049777 0.318863 0.000000
N28   N     N_R   0.625944 0.089337 0.228592 0.000000
H67   H     H_    0.744690 0.285311 0.170053 0.000000
H68   H     H_    0.758856 0.244619 0.032548 0.000000
H69   H     H_    0.678446 0.282422 0.328440 0.000000
H70   H     H_    0.626353 0.226335 0.410854 0.000000
H71   H     H_    0.639402 0.149731 0.061032 0.000000
H72   H     H_    0.697127 0.199289 0.977388 0.000000
H73   H     H_    0.668683 0.058809 0.612944 0.000000
H74   H     H_    0.741138 0.896652 0.590336 0.000000
H75   H     H_    0.695685 0.957860 0.691721 0.000000
H76   H     H_    0.717687 0.905025 0.386583 0.000000
H77   H     H_    0.667554 0.970125 0.216472 0.000000
N29   N     N_2   0.838978 0.925520 0.529535 0.000000
C92   C     C_R   0.821851 0.920057 0.652342 0.000000
C93   C     C_R   0.846122 0.864415 0.705274 0.000000
C94   C     C_R   0.829998 0.858127 0.825710 0.000000
C95   C     C_R   0.787115 0.908420 0.891913 0.000000
C96   C     C_R   0.763491 0.963752 0.838111 0.000000
C97   C     C_R   0.782058 0.970480 0.720846 0.000000
C98   C     C_R   0.779567 0.909908 0.025397 0.000000
N30   N     N_R   0.830540 0.874796 0.091855 0.000000
C99   C     C_R   0.825311 0.914525 0.180928 0.000000
C100  C     C_R   0.872158 0.911892 0.247315 0.000000
C101  C     C_R   0.863739 0.963597 0.308734 0.000000
N31   N     N_2   0.913412 0.964272 0.364033 0.000000
C102  C     C_R   0.808718 0.016489 0.305791 0.000000
C103  C     C_R   0.762512 0.019100 0.236982 0.000000
C104  C     C_R   0.771512 0.967474 0.175287 0.000000
N32   N     N_R   0.738971 0.964964 0.082514 0.000000
H78   H     H_    0.855640 0.886090 0.477728 0.000000
H79   H     H_    0.807044 0.963991 0.489899 0.000000
H80   H     H_    0.880059 0.826610 0.652875 0.000000
H81   H     H_    0.852396 0.814654 0.868153 0.000000
H82   H     H_    0.734500 0.002591 0.893487 0.000000
H83   H     H_    0.764506 0.014836 0.682140 0.000000
H84   H     H_    0.916929 0.873570 0.241499 0.000000
H85   H     H_    0.901514 0.001022 0.421689 0.000000
H86   H     H_    0.946453 0.922712 0.390307 0.000000
H87   H     H_    0.803717 0.057297 0.349548 0.000000
H88   H     H_    0.724938 0.062594 0.220856 0.000000
N33   N     N_2   0.215776 0.998308 0.670389 0.000000
C105  C     C_R   0.270174 0.970739 0.733375 0.000000
C106  C     C_R   0.295221 0.005151 0.773619 0.000000
C107  C     C_R   0.340467 0.982350 0.855755 0.000000
C108  C     C_R   0.362091 0.925116 0.894171 0.000000
C109  C     C_R   0.344622 0.887550 0.837874 0.000000
C110  C     C_R   0.298251 0.910068 0.757180 0.000000
C111  C     C_R   0.379495 0.917119 0.020050 0.000000
N34   N     N_R   0.366843 0.970079 0.085465 0.000000
C112  C     C_R   0.338857 0.963884 0.188569 0.000000
C113  C     C_R   0.303705 0.008060 0.274381 0.000000
C114  C     C_R   0.289788 0.989907 0.385004 0.000000
N35   N     N_2   0.262540 0.032687 0.481995 0.000000
C115  C     C_R   0.310568 0.928642 0.404646 0.000000
C116  C     C_R   0.337623 0.887029 0.307827 0.000000
C117  C     C_R   0.346395 0.907040 0.196832 0.000000
N36   N     N_R   0.370301 0.875137 0.090349 0.000000
H89   H     H_    0.197118 0.044648 0.669141 0.000000
H90   H     H_    0.220526 0.979523 0.584831 0.000000
H91   H     H_    0.278693 0.049476 0.739395 0.000000
H92   H     H_    0.361750 0.006634 0.891164 0.000000
H93   H     H_    0.364871 0.841980 0.863382 0.000000
H94   H     H_    0.281711 0.881428 0.718648 0.000000
H95   H     H_    0.291574 0.054708 0.259818 0.000000
H96   H     H_    0.286831 0.017073 0.558472 0.000000
H97   H     H_    0.255715 0.075029 0.458345 0.000000
H98   H     H_    0.306583 0.912895 0.495261 0.000000
H99   H     H_    0.359636 0.840046 0.320924 0.000000
N37   N     N_2   0.584619 0.584343 0.725215 0.000000
C118  C     C_R   0.521879 0.605036 0.743006 0.000000
C119  C     C_R   0.485368 0.628625 0.646450 0.000000
C120  C     C_R   0.425879 0.672261 0.670048 0.000000
C121  C     C_R   0.404264 0.689595 0.789762 0.000000
C122  C     C_R   0.439327 0.662597 0.884711 0.000000
C123  C     C_R   0.497430 0.617394 0.861211 0.000000
C124  C     C_R   0.344642 0.738735 0.815702 0.000000
N38   N     N_R   0.299940 0.752592 0.734351 0.000000
C125  C     C_R   0.255732 0.806786 0.779850 0.000000
C126  C     C_R   0.200237 0.844599 0.732832 0.000000
C127  C     C_R   0.162133 0.898523 0.797062 0.000000
N39   N     N_2   0.102824 0.936664 0.758329 0.000000
C128  C     C_R   0.182530 0.916263 0.897428 0.000000
C129  C     C_R   0.239557 0.878929 0.940350 0.000000
C130  C     C_R   0.274104 0.823214 0.883601 0.000000
N40   N     N_R   0.330288 0.780159 0.911584 0.000000
H100  H     H_    0.592351 0.609214 0.659743 0.000000
H101  H     H_    0.597676 0.594447 0.804776 0.000000
H102  H     H_    0.504381 0.616257 0.553568 0.000000
H103  H     H_    0.397683 0.695417 0.595263 0.000000
H104  H     H_    0.420755 0.678097 0.976236 0.000000
H105  H     H_    0.525882 0.596286 0.934983 0.000000
H106  H     H_    0.185097 0.832073 0.651787 0.000000
H107  H     H_    0.086399 0.981857 0.779250 0.000000
H108  H     H_    0.093459 0.925264 0.674516 0.000000
H109  H     H_    0.153587 0.959808 0.942253 0.000000
H110  H     H_    0.256567 0.894289 0.013566 0.000000
N41   N     N_2   0.122821 0.002557 0.434213 0.000000
C131  C     C_R   0.174412 0.945210 0.413362 0.000000
C132  C     C_R   0.198379 0.907316 0.509926 0.000000
C133  C     C_R   0.249568 0.851332 0.491438 0.000000
C134  C     C_R   0.275081 0.832854 0.374701 0.000000
C135  C     C_R   0.251349 0.870795 0.278160 0.000000
C136  C     C_R   0.201322 0.927091 0.296875 0.000000
C137  C     C_R   0.323197 0.771352 0.345642 0.000000
N42   N     N_R   0.322883 0.723872 0.411667 0.000000
C138  C     C_R   0.332381 0.684309 0.319991 0.000000
C139  C     C_R   0.319129 0.637916 0.329038 0.000000
C140  C     C_R   0.307316 0.616175 0.223526 0.000000
N43   N     N_2   0.286772 0.572765 0.231959 0.000000
C141  C     C_R   0.311952 0.639991 0.111111 0.000000
C142  C     C_R   0.330501 0.683544 0.102840 0.000000
C143  C     C_R   0.341520 0.704610 0.209034 0.000000
N44   N     N_R   0.342731 0.756916 0.222162 0.000000
H111  H     H_    0.116246 0.018629 0.523511 0.000000
H112  H     H_    0.118351 0.032882 0.366771 0.000000
H113  H     H_    0.177627 0.923411 0.600114 0.000000
H114  H     H_    0.270541 0.821831 0.566156 0.000000
H115  H     H_    0.271577 0.855282 0.186914 0.000000
H116  H     H_    0.182814 0.956410 0.220357 0.000000
H117  H     H_    0.312326 0.624157 0.417843 0.000000
H118  H     H_    0.295774 0.546454 0.153887 0.000000
H119  H     H_    0.296283 0.550221 0.312903 0.000000
H120  H     H_    0.297394 0.628189 0.029581 0.000000
H121  H     H_    0.326955 0.705476 0.017331 0.000000
N45   N     N_2   0.489080 0.731476 0.607148 0.000000
C144  C     C_R   0.492616 0.711164 0.485080 0.000000
C145  C     C_R   0.445057 0.742517 0.412968 0.000000
C146  C     C_R   0.454535 0.731256 0.287984 0.000000
C147  C     C_R   0.503568 0.679671 0.237835 0.000000
C148  C     C_R   0.548989 0.643953 0.313517 0.000000
C149  C     C_R   0.545617 0.664173 0.433338 0.000000
C150  C     C_R   0.511405 0.674561 0.103744 0.000000
N46   N     N_R   0.472623 0.724230 0.039215 0.000000
C151  C     C_R   0.510675 0.724225 0.946369 0.000000
C152  C     C_R   0.500348 0.769916 0.867523 0.000000
C153  C     C_R   0.548330 0.763502 0.787647 0.000000
N47   N     N_2   0.538976 0.809591 0.705454 0.000000
C154  C     C_R   0.605819 0.713341 0.790987 0.000000
C155  C     C_R   0.615810 0.668163 0.872702 0.000000
C156  C     C_R   0.567025 0.674251 0.948674 0.000000
N48   N     N_R   0.568091 0.638978 0.042660 0.000000
H122  H     H_    0.444999 0.756531 0.645264 0.000000
H123  H     H_    0.520843 0.701057 0.662753 0.000000
H124  H     H_    0.403656 0.779153 0.454594 0.000000
H125  H     H_    0.427202 0.765217 0.227125 0.000000
H126  H     H_    0.589914 0.604967 0.276954 0.000000
H127  H     H_    0.585156 0.646384 0.485408 0.000000
H128  H     H_    0.457957 0.811390 0.872316 0.000000
H129  H     H_    0.565604 0.795234 0.624617 0.000000
H130  H     H_    0.493505 0.840339 0.699259 0.000000
H131  H     H_    0.643691 0.710237 0.732679 0.000000
H132  H     H_    0.660168 0.628856 0.874255 0.000000
N49   N     N_2   0.413852 0.564707 0.035638 0.000000
C157  C     C_R   0.420401 0.569190 0.161828 0.000000
C158  C     C_R   0.436288 0.610467 0.208678 0.000000
C159  C     C_R   0.441466 0.614605 0.333428 0.000000
C160  C     C_R   0.428230 0.578950 0.410157 0.000000
C161  C     C_R   0.407706 0.541651 0.363815 0.000000
C162  C     C_R   0.407376 0.533795 0.239620 0.000000
C163  C     C_R   0.433879 0.578601 0.541566 0.000000
N50   N     N_R   0.381175 0.611827 0.615499 0.000000
C164  C     C_R   0.385945 0.573119 0.705999 0.000000
C165  C     C_R   0.339437 0.577016 0.787084 0.000000
C166  C     C_R   0.346877 0.523807 0.840639 0.000000
N51   N     N_2   0.301178 0.523811 0.922799 0.000000
C167  C     C_R   0.396673 0.468971 0.805340 0.000000
C168  C     C_R   0.442655 0.466149 0.725309 0.000000
C169  C     C_R   0.438582 0.519560 0.685206 0.000000
N52   N     N_R   0.472404 0.523667 0.589765 0.000000
H133  H     H_    0.406116 0.601981 0.986501 0.000000
H134  H     H_    0.385492 0.546571 0.017796 0.000000
H135  H     H_    0.444269 0.639343 0.147838 0.000000
H136  H     H_    0.453784 0.645994 0.373554 0.000000
H137  H     H_    0.388310 0.522062 0.427345 0.000000
H138  H     H_    0.393192 0.503390 0.200978 0.000000
H139  H     H_    0.297064 0.618847 0.802195 0.000000
H140  H     H_    0.274599 0.564750 0.966015 0.000000
H141  H     H_    0.316657 0.486653 0.977595 0.000000
H142  H     H_    0.398078 0.427681 0.835098 0.000000
H143  H     H_    0.475251 0.422949 0.683837 0.000000
N53   N     N_2   0.343816 0.378365 0.269631 0.000000
C170  C     C_R   0.393491 0.368486 0.340168 0.000000
C171  C     C_R   0.403162 0.415873 0.372679 0.000000
C172  C     C_R   0.449760 0.407236 0.448226 0.000000
C173  C     C_R   0.491827 0.349515 0.475099 0.000000
C174  C     C_R   0.482999 0.302614 0.438873 0.000000
C175  C     C_R   0.432515 0.311559 0.376541 0.000000
C176  C     C_R   0.547096 0.333873 0.540960 0.000000
N54   N     N_R   0.572439 0.371950 0.561878 0.000000
C177  C     C_R   0.622189 0.335510 0.620868 0.000000
C178  C     C_R   0.669150 0.346288 0.649717 0.000000
C179  C     C_R   0.714543 0.303782 0.716649 0.000000
N55   N     N_2   0.768457 0.307602 0.733686 0.000000
C180  C     C_R   0.705327 0.259045 0.772181 0.000000
C181  C     C_R   0.656193 0.250673 0.742211 0.000000
C182  C     C_R   0.623282 0.282356 0.646440 0.000000
N56   N     N_R   0.579235 0.276791 0.589288 0.000000
H144  H     H_    0.308917 0.422303 0.273954 0.000000
H145  H     H_    0.330697 0.345198 0.277318 0.000000
H146  H     H_    0.372211 0.459187 0.339752 0.000000
H147  H     H_    0.456760 0.443562 0.482030 0.000000
H148  H     H_    0.518276 0.259611 0.460851 0.000000
H149  H     H_    0.423263 0.275088 0.352933 0.000000
H150  H     H_    0.673891 0.382893 0.611466 0.000000
H151  H     H_    0.798235 0.274594 0.788405 0.000000
H152  H     H_    0.761600 0.350976 0.746860 0.000000
H153  H     H_    0.736007 0.232498 0.840370 0.000000
H154  H     H_    0.637986 0.229121 0.804000 0.000000
N57   N     N_2   0.782572 0.569171 0.480473 0.000000
C183  C     C_R   0.742204 0.549967 0.438028 0.000000
C184  C     C_R   0.758230 0.513449 0.334193 0.000000
C185  C     C_R   0.718619 0.493784 0.296140 0.000000
C186  C     C_R   0.662949 0.512876 0.358910 0.000000
C187  C     C_R   0.648286 0.546163 0.464475 0.000000
C188  C     C_R   0.687604 0.566136 0.504084 0.000000
C189  C     C_R   0.617956 0.499515 0.311427 0.000000
N58   N     N_R   0.601860 0.511942 0.192145 0.000000
C190  C     C_R   0.557934 0.494926 0.186769 0.000000
C191  C     C_R   0.524167 0.496922 0.089916 0.000000
C192  C     C_R   0.495645 0.460907 0.094709 0.000000
N59   N     N_2   0.471156 0.451608 0.988775 0.000000
C193  C     C_R   0.498284 0.427502 0.197865 0.000000
C194  C     C_R   0.527059 0.432055 0.298936 0.000000
C195  C     C_R   0.552290 0.469825 0.293792 0.000000
N60   N     N_R   0.585637 0.476152 0.379442 0.000000
H155  H     H_    0.816165 0.564774 0.415266 0.000000
H156  H     H_    0.759265 0.609721 0.528580 0.000000
H157  H     H_    0.803273 0.497023 0.289418 0.000000
H158  H     H_    0.731457 0.460716 0.222804 0.000000
H159  H     H_    0.605902 0.554436 0.513041 0.000000
H160  H     H_    0.677949 0.592996 0.587304 0.000000
H161  H     H_    0.524088 0.521021 0.008775 0.000000
H162  H     H_    0.469483 0.479432 0.918268 0.000000
H163  H     H_    0.433457 0.445219 0.007110 0.000000
H164  H     H_    0.480699 0.395484 0.196528 0.000000
H165  H     H_    0.539868 0.399414 0.369518 0.000000
N61   N     N_2   0.567316 0.299014 0.054261 0.000000
C196  C     C_R   0.575450 0.345592 0.000118 0.000000
C197  C     C_R   0.557382 0.362592 0.883077 0.000000
C198  C     C_R   0.564351 0.408795 0.830759 0.000000
C199  C     C_R   0.589592 0.437315 0.892708 0.000000
C200  C     C_R   0.614618 0.415439 0.003302 0.000000
C201  C     C_R   0.604953 0.371457 0.060165 0.000000
C202  C     C_R   0.601269 0.481252 0.826499 0.000000
N62   N     N_R   0.610526 0.473554 0.699132 0.000000
C203  C     C_R   0.661444 0.479442 0.678621 0.000000
C204  C     C_R   0.702625 0.458954 0.577850 0.000000
C205  C     C_R   0.753061 0.468447 0.579392 0.000000
N63   N     N_2   0.800881 0.442026 0.487025 0.000000
C206  C     C_R   0.757202 0.503346 0.672793 0.000000
C207  C     C_R   0.719731 0.516733 0.779822 0.000000
C208  C     C_R   0.675262 0.499189 0.783249 0.000000
N64   N     N_R   0.636516 0.503309 0.879496 0.000000
H166  H     H_    0.582802 0.262911 0.993701 0.000000
H167  H     H_    0.583544 0.288771 0.140561 0.000000
H168  H     H_    0.537742 0.340085 0.832373 0.000000
H169  H     H_    0.551381 0.423811 0.740626 0.000000
H170  H     H_    0.639159 0.434421 0.048204 0.000000
H171  H     H_    0.621998 0.356205 0.149661 0.000000
H172  H     H_    0.696863 0.436426 0.499393 0.000000
H173  H     H_    0.841627 0.439844 0.509773 0.000000
H174  H     H_    0.803500 0.404287 0.444404 0.000000
H175  H     H_    0.793858 0.514575 0.666219 0.000000
H176  H     H_    0.728292 0.535897 0.859891 0.000000
N65   N     N_2   0.433221 0.867068 0.533780 0.000000
C209  C     C_R   0.413653 0.926630 0.496226 0.000000
C210  C     C_R   0.392311 0.973477 0.580920 0.000000
C211  C     C_R   0.374981 0.032528 0.546167 0.000000
C212  C     C_R   0.380470 0.043221 0.423347 0.000000
C213  C     C_R   0.397493 0.996453 0.341340 0.000000
C214  C     C_R   0.415538 0.938284 0.374876 0.000000
C215  C     C_R   0.357002 0.102852 0.368926 0.000000
N66   N     N_R   0.318637 0.155355 0.436618 0.000000
C216  C     C_R   0.276107 0.185882 0.356807 0.000000
C217  C     C_R   0.215455 0.223771 0.390454 0.000000
C218  C     C_R   0.172842 0.233040 0.305481 0.000000
N67   N     N_2   0.111428 0.252928 0.345825 0.000000
C219  C     C_R   0.191508 0.212246 0.185573 0.000000
C220  C     C_R   0.252694 0.175511 0.153562 0.000000
C221  C     C_R   0.293492 0.158399 0.242877 0.000000
N68   N     N_R   0.346614 0.106050 0.244109 0.000000
H177  H     H_    0.406406 0.863619 0.605826 0.000000
H178  H     H_    0.445054 0.836641 0.461568 0.000000
H179  H     H_    0.393543 0.961410 0.674191 0.000000
H180  H     H_    0.356160 0.069600 0.613081 0.000000
H181  H     H_    0.397552 0.005586 0.246745 0.000000
H182  H     H_    0.430335 0.902425 0.305979 0.000000
H183  H     H_    0.200291 0.235528 0.485732 0.000000
H184  H     H_    0.090255 0.238248 0.285961 0.000000
H185  H     H_    0.108456 0.240801 0.435217 0.000000
H186  H     H_    0.157803 0.219014 0.120014 0.000000
H187  H     H_    0.266065 0.155253 0.065699 0.000000
N69   N     N_2   0.488021 0.249346 0.008389 0.000000
C222  C     C_R   0.450555 0.229113 0.955148 0.000000
C223  C     C_R   0.393248 0.244251 0.006778 0.000000
C224  C     C_R   0.363050 0.213224 0.967538 0.000000
C225  C     C_R   0.389403 0.170712 0.873877 0.000000
C226  C     C_R   0.438991 0.167665 0.805147 0.000000
C227  C     C_R   0.471574 0.194137 0.850238 0.000000
C228  C     C_R   0.358035 0.136502 0.841500 0.000000
N70   N     N_R   0.346915 0.100366 0.925312 0.000000
C229  C     C_R   0.293893 0.104880 0.886952 0.000000
C230  C     C_R   0.257749 0.083148 0.944581 0.000000
C231  C     C_R   0.201682 0.098200 0.896890 0.000000
N71   N     N_2   0.162706 0.077729 0.954056 0.000000
C232  C     C_R   0.183465 0.133707 0.793361 0.000000
C233  C     C_R   0.221162 0.154360 0.735732 0.000000
C234  C     C_R   0.276202 0.139028 0.785348 0.000000
N72   N     N_R   0.317478 0.156926 0.750161 0.000000
H188  H     H_    0.472805 0.266968 0.096288 0.000000
H189  H     H_    0.533136 0.216485 0.998156 0.000000
H190  H     H_    0.376919 0.276659 0.081837 0.000000
H191  H     H_    0.320664 0.217750 0.009033 0.000000
H192  H     H_    0.453040 0.143632 0.719015 0.000000
H193  H     H_    0.512165 0.190651 0.802485 0.000000
H194  H     H_    0.271713 0.056764 0.026382 0.000000
H195  H     H_    0.131331 0.076768 0.897365 0.000000
H196  H     H_    0.185148 0.040355 0.006749 0.000000
H197  H     H_    0.139520 0.145287 0.757614 0.000000
H198  H     H_    0.207193 0.182403 0.656312 0.000000
N73   N     N_2   0.453636 0.109882 0.089106 0.000000
C235  C     C_R   0.473961 0.112296 0.204439 0.000000
C236  C     C_R   0.498757 0.149452 0.222468 0.000000
C237  C     C_R   0.498151 0.169089 0.338588 0.000000
C238  C     C_R   0.469326 0.154773 0.434557 0.000000
C239  C     C_R   0.452296 0.110672 0.417822 0.000000
C240  C     C_R   0.460183 0.085537 0.301843 0.000000
C241  C     C_R   0.448215 0.193623 0.544121 0.000000
N74   N     N_R   0.482921 0.215714 0.598135 0.000000
C242  C     C_R   0.441319 0.257863 0.678781 0.000000
C243  C     C_R   0.451283 0.291319 0.765525 0.000000
C244  C     C_R   0.404561 0.322622 0.855730 0.000000
N75   N     N_2   0.416232 0.348390 0.958812 0.000000
C245  C     C_R   0.349464 0.320546 0.855353 0.000000
C246  C     C_R   0.339786 0.288537 0.764234 0.000000
C247  C     C_R   0.386769 0.257236 0.678908 0.000000
N76   N     N_R   0.388957 0.217082 0.595917 0.000000
H199  H     H_    0.453299 0.143898 0.038900 0.000000
H200  H     H_    0.410471 0.114249 0.095608 0.000000
H201  H     H_    0.512842 0.168094 0.145762 0.000000
H202  H     H_    0.511451 0.202917 0.347675 0.000000
H203  H     H_    0.432310 0.097005 0.494320 0.000000
H204  H     H_    0.452896 0.047620 0.283435 0.000000
H205  H     H_    0.495990 0.288268 0.769707 0.000000
H206  H     H_    0.377974 0.382954 0.003513 0.000000
H207  H     H_    0.456143 0.351597 0.950769 0.000000
H208  H     H_    0.315125 0.341490 0.929823 0.000000
H209  H     H_    0.298221 0.285133 0.762354 0.000000
N77   N     N_2   0.060413 0.309448 0.104481 0.000000
C248  C     C_R   0.090669 0.312158 0.993215 0.000000
C249  C     C_R   0.149186 0.305531 0.992397 0.000000
C250  C     C_R   0.178838 0.308605 0.883998 0.000000
C251  C     C_R   0.149373 0.319931 0.775882 0.000000
C252  C     C_R   0.090188 0.328041 0.777637 0.000000
C253  C     C_R   0.061247 0.323045 0.885413 0.000000
C254  C     C_R   0.176490 0.329650 0.660857 0.000000
N78   N     N_R   0.233330 0.287803 0.605091 0.000000
C255  C     C_R   0.230774 0.311255 0.494511 0.000000
C256  C     C_R   0.273570 0.285345 0.399976 0.000000
C257  C     C_R   0.256449 0.308209 0.286480 0.000000
N79   N     N_2   0.296227 0.280842 0.184435 0.000000
C258  C     C_R   0.199081 0.355492 0.269606 0.000000
C259  C     C_R   0.158509 0.384866 0.368517 0.000000
C260  C     C_R   0.176105 0.361285 0.480994 0.000000
N80   N     N_R   0.140814 0.376610 0.585767 0.000000
H210  H     H_    0.075424 0.321627 0.180274 0.000000
H211  H     H_    0.013550 0.328220 0.100480 0.000000
H212  H     H_    0.171678 0.299101 0.077004 0.000000
H213  H     H_    0.223526 0.305417 0.887016 0.000000
H214  H     H_    0.066440 0.338212 0.693832 0.000000
H215  H     H_    0.015044 0.328996 0.885645 0.000000
H216  H     H_    0.318181 0.247465 0.412731 0.000000
H217  H     H_    0.276997 0.298121 0.102850 0.000000
H218  H     H_    0.326470 0.235789 0.194601 0.000000
H219  H     H_    0.186465 0.366167 0.177177 0.000000
H220  H     H_    0.113287 0.421513 0.357285 0.000000
N81   N     N_2   0.055363 0.914276 0.951142 0.000000
C261  C     C_R   0.083449 0.864625 0.867448 0.000000
C262  C     C_R   0.142705 0.820345 0.880936 0.000000
C263  C     C_R   0.170446 0.771693 0.798208 0.000000
C264  C     C_R   0.139641 0.769253 0.698460 0.000000
C265  C     C_R   0.080336 0.813434 0.685985 0.000000
C266  C     C_R   0.052308 0.861252 0.769869 0.000000
C267  C     C_R   0.166737 0.716777 0.613938 0.000000
N82   N     N_R   0.229297 0.681261 0.590884 0.000000
C268  C     C_R   0.232163 0.630074 0.543794 0.000000
C269  C     C_R   0.279913 0.572330 0.543851 0.000000
C270  C     C_R   0.270337 0.525541 0.504168 0.000000
N83   N     N_2   0.316793 0.465573 0.513965 0.000000
C271  C     C_R   0.215627 0.537429 0.454305 0.000000
C272  C     C_R   0.166046 0.595120 0.465871 0.000000
C273  C     C_R   0.175483 0.638421 0.521928 0.000000
N84   N     N_R   0.132557 0.691266 0.570605 0.000000
H221  H     H_    0.085984 0.921647 0.998881 0.000000
H222  H     H_    0.019796 0.951900 0.916495 0.000000
H223  H     H_    0.168458 0.825730 0.952431 0.000000
H224  H     H_    0.216816 0.736566 0.809609 0.000000
H225  H     H_    0.056722 0.810196 0.609007 0.000000
H226  H     H_    0.006339 0.896773 0.759003 0.000000
H227  H     H_    0.322542 0.562901 0.579166 0.000000
H228  H     H_    0.307910 0.431097 0.489231 0.000000
H229  H     H_    0.353176 0.458650 0.565001 0.000000
H230  H     H_    0.211653 0.500462 0.413850 0.000000
H231  H     H_    0.120443 0.605234 0.441748 0.000000
N85   N     N_2   0.729021 0.815663 0.545268 0.000000
C274  C     C_R   0.787790 0.798229 0.490222 0.000000
C275  C     C_R   0.794946 0.801629 0.365742 0.000000
C276  C     C_R   0.851430 0.786020 0.310319 0.000000
C277  C     C_R   0.902111 0.764776 0.378491 0.000000
C278  C     C_R   0.896308 0.757140 0.499950 0.000000
C279  C     C_R   0.838921 0.774505 0.558241 0.000000
C280  C     C_R   0.960181 0.759489 0.329648 0.000000
N86   N     N_R   0.967396 0.774015 0.210712 0.000000
C281  C     C_R   0.022761 0.771986 0.207296 0.000000
C282  C     C_R   0.057512 0.774341 0.106463 0.000000
C283  C     C_R   0.117450 0.761803 0.125750 0.000000
N87   N     N_2   0.161789 0.744972 0.027128 0.000000
C284  C     C_R   0.136128 0.760203 0.243459 0.000000
C285  C     C_R   0.099727 0.759777 0.342925 0.000000
C286  C     C_R   0.046112 0.759197 0.320504 0.000000
N88   N     N_R   0.009363 0.747909 0.400293 0.000000
H232  H     H_    0.694972 0.846897 0.494775 0.000000
H233  H     H_    0.721696 0.779547 0.563181 0.000000
H234  H     H_    0.756514 0.816650 0.310626 0.000000
H235  H     H_    0.853815 0.793169 0.214852 0.000000
H236  H     H_    0.938286 0.742876 0.543730 0.000000
H237  H     H_    0.833312 0.773069 0.656493 0.000000
H238  H     H_    0.041939 0.777431 0.014803 0.000000
H239  H     H_    0.205617 0.729505 0.054999 0.000000
H240  H     H_    0.158160 0.716764 0.964365 0.000000
H241  H     H_    0.181184 0.755149 0.257375 0.000000
H242  H     H_    0.113447 0.761081 0.433475 0.000000
N89   N     N_2   0.171804 0.530383 0.003011 0.000000
C287  C     C_R   0.127655 0.581224 0.946230 0.000000
C288  C     C_R   0.068702 0.589372 0.940837 0.000000
C289  C     C_R   0.023912 0.641595 0.894406 0.000000
C290  C     C_R   0.038646 0.686075 0.859541 0.000000
C291  C     C_R   0.097716 0.676393 0.857835 0.000000
C292  C     C_R   0.142440 0.624228 0.902045 0.000000
C293  C     C_R   0.994337 0.745389 0.825584 0.000000
N90   N     N_R   0.953802 0.789961 0.906182 0.000000
C294  C     C_R   0.937419 0.840215 0.839976 0.000000
C295  C     C_R   0.899914 0.899192 0.876796 0.000000
C296  C     C_R   0.889145 0.943208 0.790847 0.000000
N91   N     N_2   0.854077 0.004397 0.826783 0.000000
C297  C     C_R   0.913143 0.927721 0.670072 0.000000
C298  C     C_R   0.949967 0.867769 0.634166 0.000000
C299  C     C_R   0.964308 0.825470 0.723783 0.000000
N92   N     N_R   0.999518 0.765419 0.711621 0.000000
H243  H     H_    0.152029 0.520492 0.078144 0.000000
H244  H     H_    0.209629 0.534543 0.022817 0.000000
H245  H     H_    0.057089 0.555950 0.976953 0.000000
H246  H     H_    0.977076 0.649403 0.895272 0.000000
H247  H     H_    0.108108 0.710563 0.820805 0.000000
H248  H     H_    0.188175 0.618344 0.903064 0.000000
H249  H     H_    0.881954 0.911660 0.970530 0.000000
H250  H     H_    0.851774 0.010940 0.920437 0.000000
H251  H     H_    0.865051 0.032256 0.773581 0.000000
H252  H     H_    0.902885 0.962847 0.604252 0.000000
H253  H     H_    0.967017 0.855140 0.539573 0.000000
N93   N     N_2   0.306997 0.426328 0.715864 0.000000
C300  C     C_R   0.248426 0.464467 0.675389 0.000000
C301  C     C_R   0.219810 0.440823 0.605528 0.000000
C302  C     C_R   0.161721 0.478279 0.569795 0.000000
C303  C     C_R   0.133669 0.538559 0.598435 0.000000
C304  C     C_R   0.161820 0.562303 0.668040 0.000000
C305  C     C_R   0.219825 0.525434 0.704999 0.000000
C306  C     C_R   0.068703 0.571474 0.583033 0.000000
N94   N     N_R   0.036304 0.540438 0.605831 0.000000
C307  C     C_R   0.981670 0.584632 0.652512 0.000000
C308  C     C_R   0.934753 0.578350 0.711181 0.000000
C309  C     C_R   0.885649 0.628161 0.765844 0.000000
N95   N     N_2   0.837199 0.622591 0.825043 0.000000
C310  C     C_R   0.884591 0.683019 0.767993 0.000000
C311  C     C_R   0.931459 0.689436 0.709767 0.000000
C312  C     C_R   0.980156 0.639495 0.650350 0.000000
N96   N     N_R   0.034026 0.633695 0.600798 0.000000
H254  H     H_    0.323894 0.382230 0.686025 0.000000
H255  H     H_    0.309578 0.432552 0.808084 0.000000
H256  H     H_    0.242191 0.393139 0.581003 0.000000
H257  H     H_    0.137108 0.462888 0.514959 0.000000
H258  H     H_    0.137782 0.609431 0.693461 0.000000
H259  H     H_    0.242581 0.544422 0.756894 0.000000
H260  H     H_    0.934539 0.536772 0.718326 0.000000
H261  H     H_    0.801002 0.663750 0.851452 0.000000
H262  H     H_    0.852347 0.588026 0.885987 0.000000
H263  H     H_    0.848115 0.720578 0.820479 0.000000
H264  H     H_    0.927321 0.733052 0.720396 0.000000

loop_
_geom_bond_atom_site_label_1
_geom_bond_atom_site_label_2
_geom_bond_distance
_geom_bond_site_symmetry_2
_ccdc_geom_bond_type
Zn1   N38   2.097 .      S
Zn1   N42   2.140 .      S
Zn1   N50   2.072 .      S
Zn1   N82   2.095 .      S
Zn2   N4    2.091 .      S
Zn2   N30   2.135 .      S
Zn2   N86   2.052 .      S
Zn2   N90   2.015 1_554  S
Zn3   N6    2.153 .      S
Zn3   N48   2.124 .      S
Zn3   N58   2.066 .      S
Zn3   N64   2.140 1_554  S
Zn4   N2    2.164 .      S
Zn4   N8    2.140 .      S
Zn4   N12   2.129 1_554  S
Zn4   N14   2.157 .      S
Zn5   N18   2.125 .      S
Zn5   N24   2.110 1_554  S
Zn5   N28   2.101 .      S
Zn5   N32   2.157 1_545  S
Zn6   N36   2.166 .      S
Zn6   N40   2.146 1_554  S
Zn6   N44   2.154 .      S
Zn6   N46   2.122 .      S
Zn7   N52   2.047 .      S
Zn7   N54   2.093 .      S
Zn7   N60   2.073 .      S
Zn7   N62   2.148 .      S
Zn8   N66   2.105 .      S
Zn8   N72   2.006 .      S
Zn8   N76   2.041 .      S
Zn8   N78   2.110 .      S
Zn9   N10   2.013 .      S
Zn9   N16   2.094 .      S
Zn9   N80   2.114 .      S
Zn9   N94   2.085 .      S
Zn10  N84   2.022 .      S
Zn10  N88   2.103 .      S
Zn10  N92   1.976 1_455  S
Zn10  N96   2.069 .      S
Zn11  N20   2.199 .      S
Zn11  N34   2.179 1_545  S
Zn11  N68   2.207 .      S
Zn11  N70   2.149 1_554  S
Zn12  N22   2.075 .      S
Zn12  N26   2.126 .      S
Zn12  N56   2.142 .      S
Zn12  N74   2.076 .      S
N1    C1    1.408 .      S
N1    H1    1.027 .      S
N1    H2    1.028 .      S
C2    H3    1.079 .      S
C3    H4    1.066 .      S
C4    C7    1.469 .      S
C5    H5    1.071 1_455  S
C6    H6    1.073 .      S
C9    H7    1.053 .      S
C10   N3    1.404 .      S
N3    H8    1.029 1_554  S
N3    H9    1.024 .      S
C11   H10   1.081 1_554  S
C12   H11   1.066 .      S
H5    C5    1.071 1_655  S
H8    N3    1.029 1_556  S
H10   C11   1.081 1_556  S
N5    C14   1.401 .      S
N5    H12   1.026 .      S
N5    H13   1.024 .      S
C15   H14   1.074 .      S
C16   H15   1.056 .      S
C17   C20   1.450 .      S
C18   H16   1.082 .      S
C19   H17   1.069 .      S
C22   H18   1.071 1_554  S
C23   N7    1.403 .      S
N7    H19   1.029 .      S
N7    H20   1.028 .      S
C24   H21   1.081 .      S
C25   H22   1.082 .      S
H18   C22   1.071 1_556  S
N9    C27   1.410 .      S
N9    H23   1.029 1_554  S
N9    H24   1.029 .      S
C28   H25   1.080 .      S
C29   H26   1.073 .      S
C30   C33   1.444 .      S
C31   H27   1.072 .      S
C32   H28   1.069 .      S
C35   H29   1.065 .      S
C36   N11   1.408 .      S
N11   H30   1.029 .      S
N11   H31   1.029 .      S
C37   H32   1.072 .      S
C38   H33   1.078 .      S
N12   Zn4   2.129 1_556  S
H23   N9    1.029 1_556  S
N13   C40   1.403 .      S
N13   H34   1.024 .      S
N13   H35   1.028 .      S
C41   H36   1.065 .      S
C42   H37   1.076 .      S
C43   C46   1.425 .      S
C44   H38   1.081 .      S
C45   H39   1.070 .      S
C48   H40   1.066 .      S
C49   N15   1.408 .      S
N15   H41   1.029 .      S
N15   H42   1.029 .      S
C50   H43   1.081 .      S
C51   H44   1.080 .      S
N17   C53   1.390 .      S
N17   H45   1.028 .      S
N17   H46   1.027 .      S
C54   H47   1.071 .      S
C55   H48   1.081 .      S
C56   C59   1.458 1_565  S
C57   H49   1.048 .      S
C58   H50   1.081 .      S
C59   C56   1.458 1_545  S
C61   H51   1.078 .      S
C62   N19   1.396 .      S
N19   H52   1.028 .      S
N19   H53   1.029 .      S
C63   H54   1.072 .      S
C64   H55   1.080 .      S
N21   C66   1.392 .      S
N21   H56   1.027 1_545  S
N21   H57   1.024 .      S
C67   H58   1.077 .      S
C68   H59   1.065 .      S
C69   C72   1.430 .      S
C70   H60   1.063 .      S
C71   H61   1.075 .      S
C74   H62   1.081 .      S
C75   N23   1.408 .      S
N23   H63   1.029 .      S
N23   H64   1.029 .      S
C76   H65   1.081 .      S
C77   H66   1.080 1_556  S
N24   Zn5   2.110 1_556  S
H56   N21   1.027 1_565  S
H66   C77   1.080 1_554  S
N25   C79   1.406 .      S
N25   H67   1.029 .      S
N25   H68   1.028 .      S
C80   H69   1.081 .      S
C81   H70   1.073 .      S
C82   C85   1.452 .      S
C83   H71   1.067 .      S
C84   H72   1.074 1_554  S
C87   H73   1.065 .      S
C88   N27   1.397 .      S
N27   H74   1.023 .      S
N27   H75   1.024 .      S
C89   H76   1.068 .      S
C90   H77   1.054 .      S
H72   C84   1.074 1_556  S
N29   C92   1.407 .      S
N29   H78   1.029 .      S
N29   H79   1.029 .      S
C93   H80   1.061 .      S
C94   H81   1.080 .      S
C95   C98   1.455 1_556  S
C96   H82   1.059 1_565  S
C97   H83   1.080 1_565  S
C98   C95   1.455 1_554  S
C100  H84   1.068 .      S
C101  N31   1.407 .      S
N31   H85   1.029 1_565  S
N31   H86   1.028 .      S
C102  H87   1.081 .      S
C103  H88   1.070 .      S
N32   Zn5   2.157 1_565  S
H82   C96   1.059 1_545  S
H83   C97   1.080 1_545  S
H85   N31   1.029 1_545  S
N33   C105  1.409 .      S
N33   H89   1.029 1_565  S
N33   H90   1.022 .      S
C106  H91   1.063 .      S
C107  H92   1.062 1_565  S
C108  C111  1.447 1_556  S
C109  H93   1.053 .      S
C110  H94   1.078 .      S
C111  C108  1.447 1_554  S
N34   Zn11  2.179 1_565  S
C113  H95   1.076 .      S
C114  N35   1.402 1_565  S
N35   C114  1.402 1_545  S
N35   H96   1.021 .      S
N35   H97   1.029 .      S
C115  H98   1.080 .      S
C116  H99   1.053 .      S
H89   N33   1.029 1_545  S
H92   C107  1.062 1_545  S
N37   C118  1.386 .      S
N37   H100  1.015 .      S
N37   H101  1.016 .      S
C119  H102  1.073 .      S
C120  H103  1.081 .      S
C121  C124  1.418 .      S
C122  H104  1.067 .      S
C123  H105  1.064 .      S
C126  H106  1.082 .      S
C127  N39   1.410 .      S
N39   H107  1.029 .      S
N39   H108  1.029 .      S
C128  H109  1.081 .      S
C129  H110  1.076 1_556  S
N40   Zn6   2.146 1_556  S
H110  C129  1.076 1_554  S
N41   C131  1.408 1_545  S
N41   H111  1.029 .      S
N41   H112  1.029 .      S
C131  N41   1.408 1_565  S
C132  H113  1.068 .      S
C133  H114  1.078 .      S
C134  C137  1.457 .      S
C135  H115  1.073 .      S
C136  H116  1.081 .      S
C139  H117  1.058 .      S
C140  N43   1.405 .      S
N43   H118  1.026 .      S
N43   H119  1.024 .      S
C141  H120  1.071 .      S
C142  H121  1.068 .      S
N45   C144  1.410 .      S
N45   H122  1.029 .      S
N45   H123  1.026 .      S
C145  H124  1.077 .      S
C146  H125  1.062 .      S
C147  C150  1.461 .      S
C148  H126  1.077 .      S
C149  H127  1.062 .      S
C152  H128  1.071 .      S
C153  N47   1.400 .      S
N47   H129  1.025 .      S
N47   H130  1.026 .      S
C154  H131  1.073 .      S
C155  H132  1.075 .      S
N49   C157  1.405 .      S
N49   H133  1.019 1_554  S
N49   H134  1.028 .      S
C158  H135  1.059 .      S
C159  H136  1.073 .      S
C160  C163  1.447 .      S
C161  H137  1.066 .      S
C162  H138  1.075 .      S
C165  H139  1.081 .      S
C166  N51   1.402 .      S
N51   H140  1.019 .      S
N51   H141  1.029 .      S
C167  H142  1.071 .      S
C168  H143  1.079 .      S
H133  N49   1.019 1_556  S
N53   C170  1.408 .      S
N53   H144  1.029 .      S
N53   H145  1.029 .      S
C171  H146  1.067 .      S
C172  H147  1.076 .      S
C173  C176  1.464 .      S
C174  H148  1.056 .      S
C175  H149  1.079 .      S
C178  H150  1.062 .      S
C179  N55   1.405 .      S
N55   H151  1.027 .      S
N55   H152  1.029 .      S
C180  H153  1.075 .      S
C181  H154  1.070 .      S
N57   C183  1.399 .      S
N57   H155  1.027 .      S
N57   H156  1.028 .      S
C184  H157  1.075 .      S
C185  H158  1.074 .      S
C186  C189  1.429 .      S
C187  H159  1.075 .      S
C188  H160  1.077 .      S
C191  H161  1.070 .      S
C192  N59   1.404 1_554  S
N59   C192  1.404 1_556  S
N59   H162  1.026 .      S
N59   H163  1.028 1_556  S
C193  H164  1.081 .      S
C194  H165  1.069 .      S
H163  N59   1.028 1_554  S
N61   C196  1.401 .      S
N61   H166  1.025 1_554  S
N61   H167  1.028 .      S
C197  H168  1.074 .      S
C198  H169  1.063 .      S
C199  C202  1.447 .      S
C200  H170  1.070 .      S
C201  H171  1.081 .      S
C204  H172  1.079 .      S
C205  N63   1.407 .      S
N63   H173  1.029 .      S
N63   H174  1.029 .      S
C206  H175  1.069 .      S
C207  H176  1.076 .      S
N64   Zn3   2.140 1_556  S
H166  N61   1.025 1_556  S
N65   C209  1.404 .      S
N65   H177  1.029 .      S
N65   H178  1.027 .      S
C210  H179  1.058 .      S
C211  H180  1.082 .      S
C212  C215  1.464 .      S
C213  H181  1.056 1_565  S
C214  H182  1.081 .      S
C217  H183  1.077 .      S
C218  N67   1.400 .      S
N67   H184  1.030 .      S
N67   H185  1.029 .      S
C219  H186  1.081 .      S
C220  H187  1.045 .      S
H181  C213  1.056 1_545  S
N69   C222  1.402 1_554  S
N69   H188  1.029 .      S
N69   H189  1.027 1_554  S
C222  N69   1.402 1_556  S
C223  H190  1.072 .      S
C224  H191  1.073 1_556  S
C225  C228  1.460 .      S
C226  H192  1.065 .      S
C227  H193  1.070 .      S
N70   Zn11  2.149 1_556  S
C230  H194  1.081 1_556  S
C231  N71   1.408 .      S
N71   H195  1.029 .      S
N71   H196  1.029 1_556  S
C232  H197  1.081 .      S
C233  H198  1.079 .      S
H189  N69   1.027 1_556  S
H191  C224  1.073 1_554  S
H194  C230  1.081 1_554  S
H196  N71   1.029 1_554  S
N73   C235  1.393 .      S
N73   H199  1.010 .      S
N73   H200  1.020 .      S
C236  H201  1.076 .      S
C237  H202  1.053 .      S
C238  C241  1.450 .      S
C239  H203  1.082 .      S
C240  H204  1.071 .      S
C243  H205  1.076 .      S
C244  N75   1.408 .      S
N75   H206  1.029 1_556  S
N75   H207  1.028 .      S
C245  H208  1.076 .      S
C246  H209  1.074 .      S
H206  N75   1.029 1_554  S
N77   C248  1.407 1_554  S
N77   H210  1.029 .      S
N77   H211  1.029 .      S
C248  N77   1.407 1_556  S
C249  H212  1.077 1_556  S
C250  H213  1.073 .      S
C251  C254  1.463 .      S
C252  H214  1.079 .      S
C253  H215  1.081 .      S
C256  H216  1.080 .      S
C257  N79   1.385 .      S
N79   H217  1.028 .      S
N79   H218  1.029 .      S
C258  H219  1.068 .      S
C259  H220  1.075 .      S
H212  C249  1.077 1_554  S
N81   C261  1.408 .      S
N81   H221  1.029 .      S
N81   H222  1.029 .      S
C262  H223  1.082 .      S
C263  H224  1.081 .      S
C264  C267  1.461 .      S
C265  H225  1.074 .      S
C266  H226  1.076 .      S
C269  H227  1.062 .      S
C270  N83   1.405 .      S
N83   H228  1.029 .      S
N83   H229  1.029 .      S
C271  H230  1.077 .      S
C272  H231  1.082 .      S
N85   C274  1.402 .      S
N85   H232  1.026 .      S
N85   H233  1.022 .      S
C275  H234  1.064 .      S
C276  H235  1.059 .      S
C277  C280  1.449 .      S
C278  H236  1.068 .      S
C279  H237  1.075 .      S
C282  H238  1.081 .      S
C283  N87   1.403 .      S
N87   H239  1.029 .      S
N87   H240  1.024 1_554  S
C284  H241  1.081 .      S
C285  H242  1.068 .      S
H240  N87   1.024 1_556  S
N89   C287  1.400 1_554  S
N89   H243  1.020 .      S
N89   H244  1.025 .      S
C287  N89   1.400 1_556  S
C288  H245  1.075 .      S
C289  H246  1.080 1_455  S
C290  C293  1.433 1_455  S
C291  H247  1.077 .      S
C292  H248  1.071 .      S
C293  C290  1.433 1_655  S
N90   Zn2   2.015 1_556  S
C295  H249  1.076 .      S
C296  N91   1.403 1_565  S
N91   C296  1.403 1_545  S
N91   H250  1.029 .      S
N91   H251  1.029 .      S
C297  H252  1.078 .      S
C298  H253  1.080 .      S
N92   Zn10  1.976 1_655  S
H246  C289  1.080 1_655  S
N93   C300  1.404 .      S
N93   H254  1.027 .      S
N93   H255  1.028 .      S
C301  H256  1.081 .      S
C302  H257  1.070 .      S
C303  C306  1.439 .      S
C304  H258  1.071 .      S
C305  H259  1.076 .      S
C308  H260  1.049 .      S
C309  N95   1.394 .      S
N95   H261  1.024 .      S
N95   H262  1.026 .      S
C310  H263  1.081 .      S
C311  H264  1.057 .      S
C1    C2    1.378 .      A
C1    C6    1.365 .      A
C2    C3    1.385 .      A
C3    C4    1.375 1_455  A
C4    C3    1.375 1_655  A
C4    C5    1.377 1_655  A
C5    C4    1.377 1_455  A
C5    C6    1.373 .      A
C7    N2    1.404 .      A
C7    N4    1.387 .      A
N2    C8    1.352 .      A
C8    C9    1.357 .      A
C8    C13   1.360 .      A
C9    C10   1.384 .      A
C10   C11   1.383 .      A
C11   C12   1.378 .      A
C12   C13   1.368 .      A
C13   N4    1.335 .      A
C14   C15   1.366 .      A
C14   C19   1.371 .      A
C15   C16   1.368 .      A
C16   C17   1.361 .      A
C17   C18   1.373 .      A
C18   C19   1.373 .      A
C20   N6    1.391 .      A
C20   N8    1.394 .      A
N6    C21   1.351 .      A
C21   C22   1.368 .      A
C21   C26   1.369 .      A
C22   C23   1.384 1_554  A
C23   C22   1.384 1_556  A
C23   C24   1.387 .      A
C24   C25   1.380 1_556  A
C25   C24   1.380 1_554  A
C25   C26   1.382 .      A
C26   N8    1.353 .      A
C27   C28   1.373 1_554  A
C27   C32   1.382 .      A
C28   C27   1.373 1_556  A
C28   C29   1.375 .      A
C29   C30   1.380 .      A
C30   C31   1.361 1_556  A
C31   C30   1.361 1_554  A
C31   C32   1.368 .      A
C33   N10   1.374 .      A
C33   N12   1.387 1_455  A
N10   C34   1.331 1_455  A
C34   N10   1.331 1_655  A
C34   C35   1.367 .      A
C34   C39   1.358 .      A
C35   C36   1.374 .      A
C36   C37   1.382 .      A
C37   C38   1.389 .      A
C38   C39   1.370 .      A
C39   N12   1.363 .      A
N12   C33   1.387 1_655  A
C40   C41   1.384 .      A
C40   C45   1.362 .      A
C41   C42   1.368 .      A
C42   C43   1.369 .      A
C43   C44   1.366 .      A
C44   C45   1.358 .      A
C46   N14   1.386 .      A
C46   N16   1.379 1_655  A
N14   C47   1.351 .      A
C47   C48   1.368 .      A
C47   C52   1.369 1_655  A
C48   C49   1.382 .      A
C49   C50   1.384 1_655  A
C50   C49   1.384 1_455  A
C50   C51   1.383 .      A
C51   C52   1.367 .      A
C52   C47   1.369 1_455  A
C52   N16   1.338 .      A
N16   C46   1.379 1_455  A
C53   C54   1.363 .      A
C53   C58   1.363 .      A
C54   C55   1.364 .      A
C55   C56   1.387 .      A
C56   C57   1.357 .      A
C57   C58   1.366 .      A
C59   N18   1.378 .      A
C59   N20   1.396 .      A
N18   C60   1.336 1_544  A
C60   N18   1.336 1_566  A
C60   C61   1.355 .      A
C60   C65   1.367 .      A
C61   C62   1.377 .      A
C62   C63   1.388 .      A
C63   C64   1.380 .      A
C64   C65   1.363 .      A
C65   N20   1.343 1_566  A
N20   C65   1.343 1_544  A
C66   C67   1.368 .      A
C66   C71   1.380 .      A
C67   C68   1.362 .      A
C68   C69   1.363 .      A
C69   C70   1.340 .      A
C70   C71   1.376 .      A
C72   N22   1.367 .      A
C72   N24   1.382 .      A
N22   C73   1.344 .      A
C73   C74   1.372 .      A
C73   C78   1.364 .      A
C74   C75   1.384 .      A
C75   C76   1.392 .      A
C76   C77   1.387 .      A
C77   C78   1.372 .      A
C78   N24   1.350 .      A
C79   C80   1.377 .      A
C79   C84   1.377 .      A
C80   C81   1.378 .      A
C81   C82   1.376 .      A
C82   C83   1.366 .      A
C83   C84   1.374 .      A
C85   N26   1.388 .      A
C85   N28   1.395 .      A
N26   C86   1.350 .      A
C86   C87   1.377 .      A
C86   C91   1.350 .      A
C87   C88   1.375 1_545  A
C88   C87   1.375 1_565  A
C88   C89   1.374 .      A
C89   C90   1.367 .      A
C90   C91   1.355 1_565  A
C91   C90   1.355 1_545  A
C91   N28   1.334 .      A
C92   C93   1.373 .      A
C92   C97   1.368 .      A
C93   C94   1.381 .      A
C94   C95   1.375 .      A
C95   C96   1.372 .      A
C96   C97   1.371 .      A
C98   N30   1.394 .      A
C98   N32   1.388 .      A
N30   C99   1.350 .      A
C99   C100  1.377 .      A
C99   C104  1.370 .      A
C100  C101  1.382 .      A
C101  C102  1.383 1_565  A
C102  C101  1.383 1_545  A
C102  C103  1.379 .      A
C103  C104  1.377 1_545  A
C104  C103  1.377 1_565  A
C104  N32   1.348 .      A
C105  C106  1.365 1_565  A
C105  C110  1.374 .      A
C106  C105  1.365 1_545  A
C106  C107  1.374 1_545  A
C107  C106  1.374 1_565  A
C107  C108  1.349 .      A
C108  C109  1.369 .      A
C109  C110  1.382 .      A
C111  N34   1.400 .      A
C111  N36   1.397 .      A
N34   C112  1.334 .      A
C112  C113  1.364 1_565  A
C112  C117  1.352 .      A
C113  C112  1.364 1_545  A
C113  C114  1.371 1_545  A
C114  C113  1.371 1_565  A
C114  C115  1.392 .      A
C115  C116  1.384 .      A
C116  C117  1.354 .      A
C117  N36   1.348 .      A
C118  C119  1.369 .      A
C118  C123  1.363 .      A
C119  C120  1.366 .      A
C120  C121  1.372 .      A
C121  C122  1.351 .      A
C122  C123  1.355 .      A
C124  N38   1.371 .      A
C124  N40   1.384 .      A
N38   C125  1.352 .      A
C125  C126  1.376 .      A
C125  C130  1.377 .      A
C126  C127  1.390 .      A
C127  C128  1.389 .      A
C128  C129  1.382 .      A
C129  C130  1.372 .      A
C130  N40   1.349 .      A
C131  C132  1.377 .      A
C131  C136  1.372 .      A
C132  C133  1.381 .      A
C133  C134  1.367 .      A
C134  C135  1.377 .      A
C135  C136  1.374 .      A
C137  N42   1.394 .      A
C137  N44   1.393 .      A
N42   C138  1.341 .      A
C138  C139  1.353 .      A
C138  C143  1.360 .      A
C139  C140  1.378 .      A
C140  C141  1.385 .      A
C141  C142  1.373 .      A
C142  C143  1.368 .      A
C143  N44   1.336 .      A
C144  C145  1.360 .      A
C144  C149  1.373 .      A
C145  C146  1.376 .      A
C146  C147  1.374 .      A
C147  C148  1.377 .      A
C148  C149  1.386 .      A
C150  N46   1.382 .      A
C150  N48   1.386 .      A
N46   C151  1.343 1_554  A
C151  N46   1.343 1_556  A
C151  C152  1.365 .      A
C151  C156  1.367 .      A
C152  C153  1.377 .      A
C153  C154  1.386 .      A
C154  C155  1.377 .      A
C155  C156  1.371 .      A
C156  N48   1.346 1_556  A
N48   C156  1.346 1_554  A
C157  C158  1.379 .      A
C157  C162  1.360 .      A
C158  C159  1.382 .      A
C159  C160  1.360 .      A
C160  C161  1.369 .      A
C161  C162  1.370 .      A
C163  N50   1.379 .      A
C163  N52   1.377 .      A
N50   C164  1.353 .      A
C164  C165  1.376 .      A
C164  C169  1.366 .      A
C165  C166  1.391 .      A
C166  C167  1.380 .      A
C167  C168  1.368 .      A
C168  C169  1.369 .      A
C169  N52   1.333 .      A
C170  C171  1.371 .      A
C170  C175  1.366 .      A
C171  C172  1.388 .      A
C172  C173  1.369 .      A
C173  C174  1.359 .      A
C174  C175  1.380 .      A
C176  N54   1.395 .      A
C176  N56   1.389 .      A
N54   C177  1.337 .      A
C177  C178  1.365 .      A
C177  C182  1.351 .      A
C178  C179  1.374 .      A
C179  C180  1.380 .      A
C180  C181  1.385 .      A
C181  C182  1.366 .      A
C182  N56   1.349 .      A
C183  C184  1.375 .      A
C183  C188  1.371 .      A
C184  C185  1.373 .      A
C185  C186  1.366 .      A
C186  C187  1.351 .      A
C187  C188  1.377 .      A
C189  N58   1.373 .      A
C189  N60   1.381 .      A
N58   C190  1.348 .      A
C190  C191  1.370 .      A
C190  C195  1.356 .      A
C191  C192  1.385 .      A
C192  C193  1.387 .      A
C193  C194  1.379 .      A
C194  C195  1.360 .      A
C195  N60   1.339 .      A
C196  C197  1.375 1_554  A
C196  C201  1.375 .      A
C197  C196  1.375 1_556  A
C197  C198  1.369 .      A
C198  C199  1.354 .      A
C199  C200  1.378 1_556  A
C200  C199  1.378 1_554  A
C200  C201  1.375 .      A
C202  N62   1.393 .      A
C202  N64   1.385 .      A
N62   C203  1.344 .      A
C203  C204  1.374 .      A
C203  C208  1.368 .      A
C204  C205  1.379 .      A
C205  C206  1.385 .      A
C206  C207  1.385 .      A
C207  C208  1.365 .      A
C208  N64   1.350 .      A
C209  C210  1.370 .      A
C209  C214  1.357 .      A
C210  C211  1.392 1_565  A
C211  C210  1.392 1_545  A
C211  C212  1.376 .      A
C212  C213  1.360 1_545  A
C213  C212  1.360 1_565  A
C213  C214  1.365 .      A
C215  N66   1.387 .      A
C215  N68   1.394 .      A
N66   C216  1.338 .      A
C216  C217  1.371 .      A
C216  C221  1.366 .      A
C217  C218  1.380 .      A
C218  C219  1.379 .      A
C219  C220  1.373 .      A
C220  C221  1.361 .      A
C221  N68   1.350 .      A
C222  C223  1.369 1_556  A
C222  C227  1.362 .      A
C223  C222  1.369 1_554  A
C223  C224  1.393 1_554  A
C224  C223  1.393 1_556  A
C224  C225  1.370 .      A
C225  C226  1.371 .      A
C226  C227  1.375 .      A
C228  N70   1.392 .      A
C228  N72   1.374 .      A
N70   C229  1.354 .      A
C229  C230  1.374 .      A
C229  C234  1.360 .      A
C230  C231  1.387 .      A
C231  C232  1.394 .      A
C232  C233  1.387 .      A
C233  C234  1.373 .      A
C234  N72   1.335 .      A
C235  C236  1.358 .      A
C235  C240  1.366 .      A
C236  C237  1.356 .      A
C237  C238  1.374 .      A
C238  C239  1.375 .      A
C239  C240  1.376 .      A
C241  N74   1.380 .      A
C241  N76   1.381 .      A
N74   C242  1.350 .      A
C242  C243  1.374 .      A
C242  C247  1.358 .      A
C243  C244  1.391 .      A
C244  C245  1.390 .      A
C245  C246  1.380 .      A
C246  C247  1.360 .      A
C247  N76   1.336 .      A
C248  C249  1.377 .      A
C248  C253  1.376 .      A
C249  C250  1.377 .      A
C250  C251  1.379 .      A
C251  C252  1.380 .      A
C252  C253  1.377 .      A
C254  N78   1.400 .      A
C254  N80   1.390 .      A
N78   C255  1.332 .      A
C255  C256  1.354 .      A
C255  C260  1.358 .      A
C256  C257  1.366 .      A
C257  C258  1.376 .      A
C258  C259  1.376 .      A
C259  C260  1.363 .      A
C260  N80   1.336 .      A
C261  C262  1.374 .      A
C261  C266  1.375 .      A
C262  C263  1.385 .      A
C263  C264  1.381 .      A
C264  C265  1.373 .      A
C265  C266  1.380 .      A
C267  N82   1.381 .      A
C267  N84   1.382 .      A
N82   C268  1.354 .      A
C268  C269  1.370 .      A
C268  C273  1.353 .      A
C269  C270  1.379 .      A
C270  C271  1.386 .      A
C271  C272  1.386 .      A
C272  C273  1.368 .      A
C273  N84   1.332 .      A
C274  C275  1.366 .      A
C274  C279  1.378 .      A
C275  C276  1.364 .      A
C276  C277  1.372 .      A
C277  C278  1.347 .      A
C278  C279  1.387 .      A
C280  N86   1.371 .      A
C280  N88   1.390 1_655  A
N86   C281  1.346 1_655  A
C281  N86   1.346 1_455  A
C281  C282  1.375 .      A
C281  C286  1.365 .      A
C282  C283  1.392 .      A
C283  C284  1.383 .      A
C284  C285  1.373 .      A
C285  C286  1.370 .      A
C286  N88   1.348 .      A
N88   C280  1.390 1_455  A
C287  C288  1.379 .      A
C287  C292  1.372 .      A
C288  C289  1.374 .      A
C289  C290  1.376 .      A
C290  C291  1.363 .      A
C291  C292  1.363 .      A
C293  N90   1.368 .      A
C293  N92   1.361 .      A
N90   C294  1.350 .      A
C294  C295  1.369 .      A
C294  C299  1.363 .      A
C295  C296  1.383 .      A
C296  C297  1.390 .      A
C297  C298  1.383 .      A
C298  C299  1.373 .      A
C299  N92   1.339 .      A
C300  C301  1.377 .      A
C300  C305  1.378 .      A
C301  C302  1.373 .      A
C302  C303  1.361 .      A
C303  C304  1.369 .      A
C304  C305  1.374 .      A
C306  N94   1.371 .      A
C306  N96   1.388 .      A
N94   C307  1.350 1_455  A
C307  N94   1.350 1_655  A
C307  C308  1.368 .      A
C307  C312  1.360 .      A
C308  C309  1.371 .      A
C309  C310  1.365 .      A
C310  C311  1.367 .      A
C311  C312  1.389 .      A
C312  N96   1.351 1_655  A
N96   C312  1.351 1_455  A
