data_str_m1_o12038_CON
_audit_creation_date              2015-10-01T06:41:17-0700
_symmetry_space_group_name_H-M    P1
_symmetry_Int_Tables_number       1
_space_group_crystal_system       triclinic
loop_
_symmetry_equiv_pos_as_xyz
  x,y,z
_cell_length_a                    25.9565406
_cell_length_b                    28.6389110
_cell_length_c                    28.7081011
_cell_angle_alpha                 118.564723
_cell_angle_beta                  75.0366761
_cell_angle_gamma                 91.7543130
_cell_volume                      17998.7371225

loop_
_atom_site_label
_atom_site_type_symbol
_atom_site_description
_atom_site_fract_x
_atom_site_fract_y
_atom_site_fract_z
_atom_type_partial_charge
Zn1   Zn    Zn3+2 0.111618 0.381595 0.640467 0.000000
Zn2   Zn    Zn3+2 0.125956 0.583566 0.534776 0.000000
Zn3   Zn    Zn3+2 0.125068 0.813872 0.523337 0.000000
Zn4   Zn    Zn3+2 0.113386 0.145919 0.629683 0.000000
Zn5   Zn    Zn3+2 0.129135 0.794414 0.938947 0.000000
Zn6   Zn    Zn3+2 0.987760 0.623364 0.785818 0.000000
Zn7   Zn    Zn3+2 0.507282 0.809497 0.948572 0.000000
Zn8   Zn    Zn3+2 0.385738 0.044054 0.778667 0.000000
Zn9   Zn    Zn3+2 0.372179 0.638195 0.784916 0.000000
Zn10  Zn    Zn3+2 0.751274 0.172172 0.209033 0.000000
Zn11  Zn    Zn3+2 0.998211 0.169412 0.208308 0.000000
Zn12  Zn    Zn3+2 0.734732 0.941640 0.219212 0.000000
Zn13  Zn    Zn3+2 0.515357 0.345739 0.378824 0.000000
Zn14  Zn    Zn3+2 0.767842 0.021582 0.935953 0.000000
Zn15  Zn    Zn3+2 0.989097 0.935740 0.207305 0.000000
Zn16  Zn    Zn3+2 0.505527 0.941829 0.396753 0.000000
Zn17  Zn    Zn3+2 0.133586 0.036716 0.931590 0.000000
Zn18  Zn    Zn3+2 0.763171 0.794655 0.945309 0.000000
Zn19  Zn    Zn3+2 0.509707 0.041023 0.945575 0.000000
Zn20  Zn    Zn3+2 0.139485 0.337479 0.373877 0.000000
Zn21  Zn    Zn3+2 0.377099 0.179131 0.212580 0.000000
Zn22  Zn    Zn3+2 0.991890 0.028299 0.763628 0.000000
Zn23  Zn    Zn3+2 0.391640 0.590716 0.526578 0.000000
Zn24  Zn    Zn3+2 0.377710 0.384392 0.632888 0.000000
Zn25  Zn    Zn3+2 0.372654 0.159412 0.637966 0.000000
Zn26  Zn    Zn3+2 0.392740 0.822035 0.530943 0.000000
Zn27  Zn    Zn3+2 0.118377 0.926295 0.375474 0.000000
Zn28  Zn    Zn3+2 0.371434 0.929568 0.217336 0.000000
N1    N     N_2   0.018296 0.152472 0.442528 0.000000
C1    C     C_R   0.038800 0.180159 0.487244 0.000000
C2    C     C_R   0.020130 0.232669 0.524084 0.000000
C3    C     C_R   0.043485 0.260636 0.565719 0.000000
C4    C     C_R   0.083768 0.234574 0.570661 0.000000
C5    C     C_R   0.101372 0.182098 0.534326 0.000000
C6    C     C_R   0.080013 0.155345 0.491242 0.000000
C7    C     C_R   0.098461 0.257914 0.620990 0.000000
N2    N     N_R   0.091484 0.313351 0.654917 0.000000
C8    C     C_R   0.076343 0.316686 0.705300 0.000000
C9    C     C_R   0.053714 0.360749 0.755833 0.000000
C10   C     C_R   0.027149 0.352438 0.799653 0.000000
N3    N     N_2   0.994429 0.393956 0.849316 0.000000
C11   C     C_R   0.029145 0.301826 0.793681 0.000000
C12   C     C_R   0.056473 0.259310 0.744247 0.000000
C13   C     C_R   0.078168 0.266972 0.700605 0.000000
N4    N     N_R   0.095290 0.228059 0.647905 0.000000
H1    H     H_    0.029774 0.169053 0.417234 0.000000
H2    H     H_    0.029127 0.111908 0.422422 0.000000
H3    H     H_    0.986586 0.251261 0.520930 0.000000
H4    H     H_    0.027606 0.301450 0.595998 0.000000
H5    H     H_    0.132953 0.162678 0.539126 0.000000
H6    H     H_    0.095846 0.114869 0.460137 0.000000
H7    H     H_    0.053116 0.399721 0.760013 0.000000
H8    H     H_    0.992905 0.391345 0.884160 0.000000
H9    H     H_    0.992756 0.431104 0.852877 0.000000
H10   H     H_    0.008305 0.295422 0.827567 0.000000
H11   H     H_    0.058673 0.220262 0.738411 0.000000
N5    N     N_2   0.901119 0.777435 0.704723 0.000000
C14   C     C_R   0.950787 0.756252 0.664081 0.000000
C15   C     C_R   0.953229 0.734078 0.608946 0.000000
C16   C     C_R   0.002161 0.717841 0.569954 0.000000
C17   C     C_R   0.048439 0.719376 0.585470 0.000000
C18   C     C_R   0.044457 0.730787 0.638432 0.000000
C19   C     C_R   0.996535 0.753776 0.678748 0.000000
C20   C     C_R   0.099686 0.704311 0.543444 0.000000
N6    N     N_R   0.107478 0.731063 0.512020 0.000000
C21   C     C_R   0.113443 0.688884 0.461154 0.000000
C22   C     C_R   0.106432 0.690039 0.415787 0.000000
C23   C     C_R   0.111233 0.642627 0.367521 0.000000
N7    N     N_2   0.104409 0.643037 0.320549 0.000000
C24   C     C_R   0.123017 0.594802 0.365247 0.000000
C25   C     C_R   0.127179 0.593877 0.411751 0.000000
C26   C     C_R   0.120114 0.641152 0.460688 0.000000
N8    N     N_R   0.114857 0.648786 0.512458 0.000000
H12   H     H_    0.868815 0.761217 0.690537 0.000000
H13   H     H_    0.901058 0.782311 0.742642 0.000000
H14   H     H_    0.917055 0.731103 0.596251 0.000000
H15   H     H_    0.003867 0.703983 0.527302 0.000000
H16   H     H_    0.079974 0.730034 0.650171 0.000000
H17   H     H_    0.994969 0.768268 0.721382 0.000000
H18   H     H_    0.095944 0.726788 0.417559 0.000000
H19   H     H_    0.122836 0.609660 0.283802 0.000000
H20   H     H_    0.109136 0.679091 0.321109 0.000000
H21   H     H_    0.127534 0.557508 0.327362 0.000000
H22   H     H_    0.135117 0.555972 0.407906 0.000000
N9    N     N_2   0.390146 0.885279 0.858897 0.000000
C27   C     C_R   0.353376 0.847676 0.853335 0.000000
C28   C     C_R   0.300671 0.862363 0.885584 0.000000
C29   C     C_R   0.266719 0.823922 0.883222 0.000000
C30   C     C_R   0.286616 0.771063 0.851120 0.000000
C31   C     C_R   0.338981 0.757626 0.818251 0.000000
C32   C     C_R   0.371702 0.795290 0.818314 0.000000
C33   C     C_R   0.259348 0.729599 0.860386 0.000000
N10   N     N_R   0.206846 0.737277 0.894851 0.000000
C34   C     C_R   0.208043 0.691385 0.897962 0.000000
C35   C     C_R   0.170327 0.678443 0.931234 0.000000
C36   C     C_R   0.185673 0.642809 0.946036 0.000000
N11   N     N_2   0.150188 0.636655 0.988528 0.000000
C37   C     C_R   0.237631 0.617684 0.923485 0.000000
C38   C     C_R   0.272842 0.624720 0.882831 0.000000
C39   C     C_R   0.256661 0.660428 0.869429 0.000000
N12   N     N_R   0.289887 0.680750 0.841641 0.000000
H23   H     H_    0.423413 0.871259 0.825357 0.000000
H24   H     H_    0.401279 0.896451 0.894256 0.000000
H25   H     H_    0.286116 0.903597 0.914034 0.000000
H26   H     H_    0.227547 0.835298 0.911849 0.000000
H27   H     H_    0.357728 0.717601 0.795596 0.000000
H28   H     H_    0.413391 0.783107 0.794900 0.000000
H29   H     H_    0.133809 0.703324 0.953643 0.000000
H30   H     H_    0.164271 0.610038 0.998062 0.000000
H31   H     H_    0.110766 0.636980 0.988470 0.000000
H32   H     H_    0.250891 0.593349 0.938394 0.000000
H33   H     H_    0.314417 0.609278 0.867913 0.000000
N13   N     N_2   0.205899 0.643027 0.657202 0.000000
C40   C     C_R   0.169253 0.667333 0.709256 0.000000
C41   C     C_R   0.120976 0.690322 0.715709 0.000000
C42   C     C_R   0.083189 0.710983 0.765488 0.000000
C43   C     C_R   0.095255 0.708282 0.807838 0.000000
C44   C     C_R   0.141502 0.681314 0.799811 0.000000
C45   C     C_R   0.178680 0.661596 0.751086 0.000000
C46   C     C_R   0.055866 0.716562 0.855398 0.000000
N14   N     N_R   0.023630 0.675700 0.847545 0.000000
C47   C     C_R   0.017735 0.672505 0.893525 0.000000
C48   C     C_R   0.999114 0.630900 0.901743 0.000000
C49   C     C_R   0.003015 0.630604 0.948739 0.000000
N15   N     N_2   0.987778 0.587121 0.957467 0.000000
C50   C     C_R   0.019250 0.674526 0.988771 0.000000
C51   C     C_R   0.037321 0.716080 0.979689 0.000000
C52   C     C_R   0.041022 0.712191 0.929249 0.000000
N16   N     N_R   0.068356 0.740681 0.905862 0.000000
H34   H     H_    0.239006 0.622856 0.655005 0.000000
H35   H     H_    0.214659 0.670264 0.644012 0.000000
H36   H     H_    0.112424 0.688784 0.680670 0.000000
H37   H     H_    0.043955 0.726034 0.769872 0.000000
H38   H     H_    0.146716 0.671571 0.830245 0.000000
H39   H     H_    0.211540 0.636011 0.744797 0.000000
H40   H     H_    0.983428 0.598677 0.871630 0.000000
H41   H     H_    0.981792 0.594051 0.997178 0.000000
H42   H     H_    0.962163 0.564169 0.935753 0.000000
H43   H     H_    0.019001 0.676108 0.027205 0.000000
H44   H     H_    0.051671 0.747797 0.010529 0.000000
N17   N     N_2   0.137395 0.528108 0.916888 0.000000
C53   C     C_R   0.118298 0.526512 0.874682 0.000000
C54   C     C_R   0.072127 0.504325 0.867086 0.000000
C55   C     C_R   0.052427 0.502515 0.826680 0.000000
C56   C     C_R   0.079624 0.519828 0.790744 0.000000
C57   C     C_R   0.123724 0.546620 0.801595 0.000000
C58   C     C_R   0.143962 0.548364 0.842285 0.000000
C59   C     C_R   0.057120 0.509589 0.744973 0.000000
N18   N     N_R   0.054316 0.454601 0.711590 0.000000
C60   C     C_R   0.000444 0.453123 0.727856 0.000000
C61   C     C_R   0.972997 0.409004 0.718040 0.000000
C62   C     C_R   0.917884 0.417216 0.741134 0.000000
N19   N     N_2   0.888665 0.372976 0.733123 0.000000
C63   C     C_R   0.891156 0.468697 0.771214 0.000000
C64   C     C_R   0.919115 0.512528 0.778966 0.000000
C65   C     C_R   0.973597 0.503742 0.756911 0.000000
N20   N     N_R   0.008226 0.540833 0.763741 0.000000
H45   H     H_    0.124125 0.499999 0.928492 0.000000
H46   H     H_    0.176906 0.534010 0.913277 0.000000
H47   H     H_    0.050512 0.489364 0.893827 0.000000
H48   H     H_    0.014321 0.487712 0.824080 0.000000
H49   H     H_    0.142724 0.566683 0.779553 0.000000
H50   H     H_    0.180384 0.566375 0.847620 0.000000
H51   H     H_    0.993557 0.369154 0.693142 0.000000
H52   H     H_    0.852202 0.382044 0.762148 0.000000
H53   H     H_    0.911469 0.339158 0.723419 0.000000
H54   H     H_    0.848173 0.474827 0.788974 0.000000
H55   H     H_    0.899056 0.552454 0.804080 0.000000
N21   N     N_2   0.927669 0.404730 0.625151 0.000000
C66   C     C_R   0.958898 0.447614 0.632330 0.000000
C67   C     C_R   0.013068 0.441660 0.624921 0.000000
C68   C     C_R   0.045590 0.482222 0.627949 0.000000
C69   C     C_R   0.022865 0.530531 0.640292 0.000000
C70   C     C_R   0.968001 0.534644 0.645891 0.000000
C71   C     C_R   0.936465 0.494541 0.642362 0.000000
C72   C     C_R   0.051410 0.579520 0.654484 0.000000
N22   N     N_R   0.063522 0.595115 0.613413 0.000000
C73   C     C_R   0.020392 0.631027 0.633902 0.000000
C74   C     C_R   0.985951 0.625462 0.602698 0.000000
C75   C     C_R   0.931431 0.640745 0.628104 0.000000
N23   N     N_2   0.895295 0.629406 0.595795 0.000000
C76   C     C_R   0.912394 0.666686 0.685217 0.000000
C77   C     C_R   0.947250 0.674088 0.716666 0.000000
C78   C     C_R   0.998788 0.649746 0.690045 0.000000
N24   N     N_R   0.021570 0.620289 0.705860 0.000000
H56   H     H_    0.945961 0.371214 0.621252 0.000000
H57   H     H_    0.887508 0.415473 0.645758 0.000000
H58   H     H_    0.029235 0.404219 0.618025 0.000000
H59   H     H_    0.088125 0.475928 0.620064 0.000000
H60   H     H_    0.946698 0.569622 0.654065 0.000000
H61   H     H_    0.894331 0.499925 0.646013 0.000000
H62   H     H_    0.999764 0.601925 0.558927 0.000000
H63   H     H_    0.859563 0.653767 0.616159 0.000000
H64   H     H_    0.912727 0.622478 0.556229 0.000000
H65   H     H_    0.870192 0.679821 0.705302 0.000000
H66   H     H_    0.932644 0.692495 0.760686 0.000000
N25   N     N_2   0.248621 0.849358 0.009450 0.000000
C79   C     C_R   0.298589 0.820822 0.977057 0.000000
C80   C     C_R   0.302921 0.766721 0.954566 0.000000
C81   C     C_R   0.349411 0.737364 0.917473 0.000000
C82   C     C_R   0.390541 0.762526 0.901947 0.000000
C83   C     C_R   0.388587 0.816415 0.928798 0.000000
C84   C     C_R   0.342050 0.845998 0.965273 0.000000
C85   C     C_R   0.439027 0.730904 0.864793 0.000000
N26   N     N_R   0.433764 0.677563 0.831219 0.000000
C86   C     C_R   0.468799 0.654561 0.844344 0.000000
C87   C     C_R   0.464909 0.607556 0.845952 0.000000
C88   C     C_R   0.501111 0.591983 0.865154 0.000000
N27   N     N_2   0.499780 0.541959 0.863449 0.000000
C89   C     C_R   0.537625 0.626138 0.887458 0.000000
C90   C     C_R   0.535608 0.676981 0.893673 0.000000
C91   C     C_R   0.500097 0.690539 0.872852 0.000000
N28   N     N_R   0.482640 0.740201 0.886801 0.000000
H67   H     H_    0.219171 0.824999 0.009720 0.000000
H68   H     H_    0.249131 0.878096 0.047854 0.000000
H69   H     H_    0.270712 0.746885 0.966920 0.000000
H70   H     H_    0.353352 0.695016 0.903212 0.000000
H71   H     H_    0.421425 0.835066 0.916872 0.000000
H72   H     H_    0.339715 0.888022 0.979381 0.000000
H73   H     H_    0.433522 0.584185 0.833253 0.000000
H74   H     H_    0.534951 0.527954 0.865063 0.000000
H75   H     H_    0.482621 0.514443 0.834339 0.000000
H76   H     H_    0.565130 0.614647 0.903697 0.000000
H77   H     H_    0.559680 0.705564 0.916446 0.000000
N29   N     N_2   0.799677 0.268208 0.459299 0.000000
C92   C     C_R   0.816415 0.238076 0.401199 0.000000
C93   C     C_R   0.779687 0.219529 0.371643 0.000000
C94   C     C_R   0.796147 0.194091 0.314694 0.000000
C95   C     C_R   0.849773 0.182425 0.285939 0.000000
C96   C     C_R   0.885775 0.199188 0.316379 0.000000
C97   C     C_R   0.869406 0.230034 0.373000 0.000000
C98   C     C_R   0.866680 0.174636 0.229429 0.000000
N30   N     N_R   0.827911 0.193481 0.215609 0.000000
C99   C     C_R   0.852238 0.230650 0.204544 0.000000
C100  C     C_R   0.827393 0.275245 0.209892 0.000000
C101  C     C_R   0.857579 0.316979 0.213066 0.000000
N31   N     N_2   0.832639 0.364988 0.222733 0.000000
C102  C     C_R   0.911859 0.312749 0.209288 0.000000
C103  C     C_R   0.936475 0.267058 0.202661 0.000000
C104  C     C_R   0.905178 0.227415 0.202398 0.000000
N32   N     N_R   0.917332 0.188776 0.212958 0.000000
H78   H     H_    0.760396 0.284994 0.475290 0.000000
H79   H     H_    0.827027 0.292753 0.476407 0.000000
H80   H     H_    0.737446 0.227662 0.392827 0.000000
H81   H     H_    0.765562 0.185814 0.293697 0.000000
H82   H     H_    0.926958 0.195853 0.295556 0.000000
H83   H     H_    0.898288 0.250357 0.394717 0.000000
H84   H     H_    0.784614 0.280321 0.218172 0.000000
H85   H     H_    0.854990 0.396753 0.235704 0.000000
H86   H     H_    0.793186 0.373071 0.245487 0.000000
H87   H     H_    0.935181 0.345481 0.212225 0.000000
H88   H     H_    0.977874 0.264703 0.202516 0.000000
N33   N     N_2   0.818488 0.109038 0.425616 0.000000
C105  C     C_R   0.805051 0.101167 0.378161 0.000000
C106  C     C_R   0.840210 0.070662 0.326890 0.000000
C107  C     C_R   0.829475 0.064864 0.280320 0.000000
C108  C     C_R   0.779800 0.083026 0.284125 0.000000
C109  C     C_R   0.741896 0.108561 0.334970 0.000000
C110  C     C_R   0.755436 0.120604 0.382352 0.000000
C111  C     C_R   0.760538 0.064313 0.236056 0.000000
N34   N     N_R   0.740844 0.102865 0.225733 0.000000
C112  C     C_R   0.691519 0.089977 0.227237 0.000000
C113  C     C_R   0.652627 0.120368 0.229734 0.000000
C114  C     C_R   0.604704 0.101597 0.231242 0.000000
N35   N     N_2   0.567193 0.127667 0.223302 0.000000
C115  C     C_R   0.595226 0.055662 0.235274 0.000000
C116  C     C_R   0.634198 0.028164 0.239339 0.000000
C117  C     C_R   0.683241 0.044763 0.231321 0.000000
N36   N     N_R   0.727792 0.023423 0.230873 0.000000
H89   H     H_    0.840407 0.076004 0.418877 0.000000
H90   H     H_    0.787006 0.125618 0.460983 0.000000
H91   H     H_    0.875450 0.049402 0.322534 0.000000
H92   H     H_    0.858811 0.043798 0.240933 0.000000
H93   H     H_    0.701663 0.120771 0.337988 0.000000
H94   H     H_    0.726146 0.142720 0.422021 0.000000
H95   H     H_    0.660493 0.154953 0.225289 0.000000
H96   H     H_    0.537357 0.105594 0.211284 0.000000
H97   H     H_    0.557703 0.166347 0.254761 0.000000
H98   H     H_    0.561339 0.035699 0.225621 0.000000
H99   H     H_    0.627718 0.991893 0.241780 0.000000
N37   N     N_2   0.659927 0.399350 0.170617 0.000000
C118  C     C_R   0.653836 0.367422 0.196408 0.000000
C119  C     C_R   0.685261 0.371893 0.229853 0.000000
C120  C     C_R   0.680039 0.339634 0.253903 0.000000
C121  C     C_R   0.642555 0.303022 0.245799 0.000000
C122  C     C_R   0.609445 0.301193 0.214623 0.000000
C123  C     C_R   0.617028 0.330810 0.187557 0.000000
C124  C     C_R   0.635192 0.273481 0.277154 0.000000
N38   N     N_R   0.683576 0.246581 0.272087 0.000000
C125  C     C_R   0.686131 0.276940 0.324749 0.000000
C126  C     C_R   0.732644 0.292726 0.339239 0.000000
C127  C     C_R   0.729721 0.333725 0.391834 0.000000
N39   N     N_2   0.777163 0.351325 0.406792 0.000000
C128  C     C_R   0.680609 0.359963 0.428684 0.000000
C129  C     C_R   0.634451 0.348633 0.411745 0.000000
C130  C     C_R   0.638387 0.308680 0.359427 0.000000
N40   N     N_R   0.602182 0.304336 0.331965 0.000000
H100  H     H_    0.677139 0.433834 0.189838 0.000000
H101  H     H_    0.627002 0.403493 0.158666 0.000000
H102  H     H_    0.714171 0.400681 0.237224 0.000000
H103  H     H_    0.704601 0.344766 0.280767 0.000000
H104  H     H_    0.577266 0.276649 0.211087 0.000000
H105  H     H_    0.593362 0.325826 0.159952 0.000000
H106  H     H_    0.770830 0.277137 0.308797 0.000000
H107  H     H_    0.772825 0.369972 0.448585 0.000000
H108  H     H_    0.810435 0.324046 0.382145 0.000000
H109  H     H_    0.679443 0.392868 0.468731 0.000000
H110  H     H_    0.597090 0.373480 0.436302 0.000000
N41   N     N_2   0.964305 0.017573 0.913888 0.000000
C131  C     C_R   0.928896 0.035492 0.965970 0.000000
C132  C     C_R   0.914065 0.088607 0.999436 0.000000
C133  C     C_R   0.869774 0.105828 0.044261 0.000000
C134  C     C_R   0.836767 0.070311 0.050788 0.000000
C135  C     C_R   0.854497 0.016640 0.017589 0.000000
C136  C     C_R   0.903627 0.000055 0.980335 0.000000
C137  C     C_R   0.780526 0.089403 0.067925 0.000000
N42   N     N_R   0.763608 0.083571 0.022996 0.000000
C138  C     C_R   0.742997 0.134077 0.042569 0.000000
C139  C     C_R   0.728729 0.154267 0.012625 0.000000
C140  C     C_R   0.717881 0.209048 0.036491 0.000000
N43   N     N_2   0.705621 0.231437 0.005785 0.000000
C141  C     C_R   0.721398 0.242070 0.089770 0.000000
C142  C     C_R   0.733319 0.220845 0.120621 0.000000
C143  C     C_R   0.744142 0.166519 0.096179 0.000000
N44   N     N_R   0.760609 0.138273 0.117283 0.000000
H111  H     H_    0.954832 0.039277 0.896919 0.000000
H112  H     H_    0.963931 0.977690 0.889300 0.000000
H113  H     H_    0.934269 0.116512 0.987737 0.000000
H114  H     H_    0.853900 0.146932 0.065670 0.000000
H115  H     H_    0.830638 0.986284 0.018819 0.000000
H116  H     H_    0.918006 0.958178 0.957498 0.000000
H117  H     H_    0.728551 0.128091 0.970984 0.000000
H118  H     H_    0.713120 0.270677 0.019558 0.000000
H119  H     H_    0.718329 0.206778 0.963721 0.000000
H120  H     H_    0.715898 0.284760 0.106855 0.000000
H121  H     H_    0.735556 0.246192 0.161857 0.000000
N45   N     N_2   0.929249 0.300854 0.088083 0.000000
C144  C     C_R   0.957939 0.257014 0.083329 0.000000
C145  C     C_R   0.932727 0.214662 0.083935 0.000000
C146  C     C_R   0.961065 0.172891 0.081691 0.000000
C147  C     C_R   0.015989 0.166136 0.065423 0.000000
C148  C     C_R   0.039925 0.211203 0.067852 0.000000
C149  C     C_R   0.010858 0.257498 0.081838 0.000000
C150  C     C_R   0.047008 0.123791 0.066908 0.000000
N46   N     N_R   0.098145 0.103571 0.027143 0.000000
C151  C     C_R   0.128088 0.134097 0.061384 0.000000
C152  C     C_R   0.172682 0.155226 0.045627 0.000000
C153  C     C_R   0.177337 0.208620 0.077987 0.000000
N47   N     N_2   0.220390 0.232522 0.060706 0.000000
C154  C     C_R   0.138706 0.239384 0.126519 0.000000
C155  C     C_R   0.100051 0.215001 0.146945 0.000000
C156  C     C_R   0.097088 0.161268 0.116028 0.000000
N48   N     N_R   0.049216 0.143495 0.121415 0.000000
H122  H     H_    0.888204 0.302760 0.101422 0.000000
H123  H     H_    0.945632 0.336386 0.104797 0.000000
H124  H     H_    0.889726 0.218520 0.093990 0.000000
H125  H     H_    0.939752 0.146917 0.094992 0.000000
H126  H     H_    0.082472 0.211035 0.056803 0.000000
H127  H     H_    0.031407 0.291743 0.084587 0.000000
H128  H     H_    0.200139 0.133122 0.006529 0.000000
H129  H     H_    0.248488 0.207606 0.024574 0.000000
H130  H     H_    0.211451 0.271479 0.070598 0.000000
H131  H     H_    0.140239 0.281970 0.150057 0.000000
H132  H     H_    0.068173 0.239448 0.183302 0.000000
N49   N     N_2   0.246054 0.137487 0.105545 0.000000
C157  C     C_R   0.211555 0.165894 0.158852 0.000000
C158  C     C_R   0.204760 0.220623 0.185292 0.000000
C159  C     C_R   0.160453 0.247506 0.228809 0.000000
C160  C     C_R   0.123274 0.219651 0.244676 0.000000
C161  C     C_R   0.131104 0.165235 0.220029 0.000000
C162  C     C_R   0.177999 0.138720 0.180023 0.000000
C163  C     C_R   0.074565 0.248709 0.285969 0.000000
N50   N     N_R   0.074522 0.297139 0.333465 0.000000
C164  C     C_R   0.022592 0.317174 0.349207 0.000000
C165  C     C_R   0.999512 0.367466 0.389196 0.000000
C166  C     C_R   0.950193 0.385786 0.390011 0.000000
N51   N     N_2   0.930480 0.440435 0.421034 0.000000
C167  C     C_R   0.921404 0.350886 0.356882 0.000000
C168  C     C_R   0.942630 0.298986 0.320654 0.000000
C169  C     C_R   0.994383 0.283020 0.314498 0.000000
N52   N     N_R   0.025535 0.237680 0.273646 0.000000
H133  H     H_    0.257552 0.159900 0.086342 0.000000
H134  H     H_    0.231592 0.102671 0.082035 0.000000
H135  H     H_    0.229786 0.242574 0.168524 0.000000
H136  H     H_    0.150885 0.289799 0.245867 0.000000
H137  H     H_    0.101554 0.144914 0.235018 0.000000
H138  H     H_    0.186963 0.096351 0.162632 0.000000
H139  H     H_    0.021548 0.392946 0.416080 0.000000
H140  H     H_    0.889550 0.448884 0.431601 0.000000
H141  H     H_    0.951045 0.465403 0.447694 0.000000
H142  H     H_    0.883037 0.364794 0.357294 0.000000
H143  H     H_    0.918672 0.273850 0.296530 0.000000
N53   N     N_2   0.017316 0.974536 0.970311 0.000000
C170  C     C_R   0.012999 0.994344 0.026466 0.000000
C171  C     C_R   0.982810 0.041403 0.065723 0.000000
C172  C     C_R   0.978317 0.060010 0.120549 0.000000
C173  C     C_R   0.004060 0.031057 0.136140 0.000000
C174  C     C_R   0.032917 0.983850 0.097064 0.000000
C175  C     C_R   0.035286 0.964834 0.043187 0.000000
C176  C     C_R   0.998983 0.050206 0.193786 0.000000
N54   N     N_R   0.997360 0.104640 0.227355 0.000000
C177  C     C_R   0.990625 0.107524 0.277018 0.000000
C178  C     C_R   0.980966 0.152462 0.328014 0.000000
C179  C     C_R   0.954234 0.147271 0.373421 0.000000
N55   N     N_2   0.932216 0.192951 0.425186 0.000000
C180  C     C_R   0.950985 0.097139 0.368859 0.000000
C181  C     C_R   0.971092 0.052095 0.318742 0.000000
C182  C     C_R   0.987588 0.057801 0.272771 0.000000
N56   N     N_R   0.995022 0.018798 0.220194 0.000000
H144  H     H_    0.034917 0.999619 0.956039 0.000000
H145  H     H_    0.031944 0.934869 0.945703 0.000000
H146  H     H_    0.961591 0.062899 0.053833 0.000000
H147  H     H_    0.952402 0.095579 0.150871 0.000000
H148  H     H_    0.051020 0.960246 0.109412 0.000000
H149  H     H_    0.055996 0.926998 0.014374 0.000000
H150  H     H_    0.987723 0.191464 0.332543 0.000000
H151  H     H_    0.918379 0.185616 0.457781 0.000000
H152  H     H_    0.953241 0.225651 0.432425 0.000000
H153  H     H_    0.932456 0.093033 0.404647 0.000000
H154  H     H_    0.966434 0.013856 0.315676 0.000000
N57   N     N_2   0.652039 0.058096 0.106448 0.000000
C183  C     C_R   0.675470 0.011278 0.100156 0.000000
C184  C     C_R   0.726033 0.990035 0.066911 0.000000
C185  C     C_R   0.746368 0.941562 0.055200 0.000000
C186  C     C_R   0.719329 0.918729 0.084267 0.000000
C187  C     C_R   0.670353 0.940628 0.119404 0.000000
C188  C     C_R   0.645352 0.981703 0.119691 0.000000
C189  C     C_R   0.742796 0.874303 0.082834 0.000000
N58   N     N_R   0.760572 0.825225 0.034500 0.000000
C190  C     C_R   0.771685 0.795470 0.056789 0.000000
C191  C     C_R   0.775364 0.740774 0.033259 0.000000
C192  C     C_R   0.771636 0.718620 0.067623 0.000000
N59   N     N_2   0.759718 0.665357 0.049725 0.000000
C193  C     C_R   0.775886 0.749551 0.121055 0.000000
C194  C     C_R   0.771744 0.804541 0.144629 0.000000
C195  C     C_R   0.764247 0.826166 0.113114 0.000000
N60   N     N_R   0.744546 0.876784 0.132059 0.000000
H155  H     H_    0.672040 0.068470 0.077616 0.000000
H156  H     H_    0.611096 0.060561 0.114046 0.000000
H157  H     H_    0.746731 0.006321 0.042801 0.000000
H158  H     H_    0.783663 0.923056 0.024893 0.000000
H159  H     H_    0.651861 0.923978 0.145016 0.000000
H160  H     H_    0.603312 0.992080 0.136962 0.000000
H161  H     H_    0.773180 0.716679 0.991354 0.000000
H162  H     H_    0.772622 0.646339 0.067983 0.000000
H163  H     H_    0.760270 0.643245 0.008895 0.000000
H164  H     H_    0.775185 0.731459 0.146706 0.000000
H165  H     H_    0.767414 0.829362 0.188159 0.000000
N61   N     N_2   0.792189 0.924257 0.447109 0.000000
C196  C     C_R   0.808089 0.923681 0.395998 0.000000
C197  C     C_R   0.852819 0.947170 0.383486 0.000000
C198  C     C_R   0.867726 0.947188 0.333823 0.000000
C199  C     C_R   0.838893 0.923006 0.295851 0.000000
C200  C     C_R   0.794163 0.899449 0.308488 0.000000
C201  C     C_R   0.778768 0.899934 0.358382 0.000000
C202  C     C_R   0.852467 0.925802 0.244464 0.000000
N62   N     N_R   0.812189 0.932473 0.223297 0.000000
C203  C     C_R   0.840938 0.939788 0.182275 0.000000
C204  C     C_R   0.821566 0.955922 0.152008 0.000000
C205  C     C_R   0.855130 0.977428 0.125110 0.000000
N63   N     N_2   0.835338 0.015047 0.114696 0.000000
C206  C     C_R   0.908427 0.967702 0.114795 0.000000
C207  C     C_R   0.928031 0.950505 0.144447 0.000000
C208  C     C_R   0.893102 0.939186 0.179656 0.000000
N64   N     N_R   0.904401 0.929596 0.216948 0.000000
H166  H     H_    0.806943 0.953585 0.477296 0.000000
H167  H     H_    0.752339 0.919560 0.459166 0.000000
H168  H     H_    0.876097 0.966049 0.412640 0.000000
H169  H     H_    0.901673 0.966853 0.325163 0.000000
H170  H     H_    0.770283 0.881270 0.279889 0.000000
H171  H     H_    0.743225 0.882186 0.368004 0.000000
H172  H     H_    0.781156 0.957862 0.152377 0.000000
H173  H     H_    0.856359 0.047967 0.125957 0.000000
H174  H     H_    0.794526 0.023962 0.128850 0.000000
H175  H     H_    0.932985 0.971595 0.081703 0.000000
H176  H     H_    0.969061 0.942346 0.138918 0.000000
N65   N     N_2   0.645942 0.692085 0.174964 0.000000
C209  C     C_R   0.635845 0.748320 0.204238 0.000000
C210  C     C_R   0.651027 0.777835 0.177673 0.000000
C211  C     C_R   0.645503 0.833120 0.207457 0.000000
C212  C     C_R   0.618916 0.858992 0.262171 0.000000
C213  C     C_R   0.600866 0.829096 0.287739 0.000000
C214  C     C_R   0.611023 0.774337 0.259808 0.000000
C215  C     C_R   0.620742 0.916233 0.296061 0.000000
N66   N     N_R   0.590023 0.941206 0.351538 0.000000
C216  C     C_R   0.624004 0.974804 0.375837 0.000000
C217  C     C_R   0.618143 0.005273 0.431396 0.000000
C218  C     C_R   0.659955 0.033932 0.447824 0.000000
N67   N     N_2   0.655269 0.067803 0.504237 0.000000
C219  C     C_R   0.706714 0.029640 0.408855 0.000000
C220  C     C_R   0.710725 0.001612 0.353104 0.000000
C221  C     C_R   0.668957 0.973965 0.337428 0.000000
N68   N     N_R   0.668301 0.939147 0.285375 0.000000
H177  H     H_    0.646830 0.675011 0.199205 0.000000
H178  H     H_    0.675721 0.677133 0.138340 0.000000
H179  H     H_    0.668771 0.757606 0.133666 0.000000
H180  H     H_    0.661846 0.856876 0.188608 0.000000
H181  H     H_    0.580093 0.848339 0.330509 0.000000
H182  H     H_    0.599025 0.752200 0.281815 0.000000
H183  H     H_    0.582907 0.005277 0.461022 0.000000
H184  H     H_    0.685491 0.092201 0.511400 0.000000
H185  H     H_    0.617480 0.087789 0.525888 0.000000
H186  H     H_    0.740405 0.048388 0.422358 0.000000
H187  H     H_    0.746843 0.999140 0.322930 0.000000
N69   N     N_2   0.295832 0.289582 0.483538 0.000000
C222  C     C_R   0.336528 0.259417 0.435645 0.000000
C223  C     C_R   0.325040 0.231560 0.385662 0.000000
C224  C     C_R   0.361803 0.224441 0.339227 0.000000
C225  C     C_R   0.409500 0.244980 0.343533 0.000000
C226  C     C_R   0.424833 0.260516 0.389660 0.000000
C227  C     C_R   0.387718 0.269593 0.437140 0.000000
C228  C     C_R   0.440185 0.258307 0.303286 0.000000
N70   N     N_R   0.429235 0.239697 0.252827 0.000000
C229  C     C_R   0.453794 0.274576 0.236960 0.000000
C230  C     C_R   0.462141 0.274349 0.187395 0.000000
C231  C     C_R   0.479862 0.319051 0.184237 0.000000
N71   N     N_2   0.484277 0.322034 0.135766 0.000000
C232  C     C_R   0.492853 0.361115 0.228788 0.000000
C233  C     C_R   0.494068 0.356089 0.274016 0.000000
C234  C     C_R   0.475591 0.311692 0.276527 0.000000
N72   N     N_R   0.471838 0.300590 0.317702 0.000000
H188  H     H_    0.268608 0.305469 0.473691 0.000000
H189  H     H_    0.310970 0.320454 0.511742 0.000000
H190  H     H_    0.286600 0.219437 0.381715 0.000000
H191  H     H_    0.350281 0.208147 0.301920 0.000000
H192  H     H_    0.464810 0.269944 0.387548 0.000000
H193  H     H_    0.396609 0.288204 0.475897 0.000000
H194  H     H_    0.453029 0.241454 0.152302 0.000000
H195  H     H_    0.509963 0.348487 0.130986 0.000000
H196  H     H_    0.487587 0.285498 0.101075 0.000000
H197  H     H_    0.506354 0.396220 0.226459 0.000000
H198  H     H_    0.509298 0.386332 0.305842 0.000000
N73   N     N_2   0.254743 0.376291 0.428182 0.000000
C235  C     C_R   0.304156 0.397324 0.424377 0.000000
C236  C     C_R   0.348213 0.366670 0.413106 0.000000
C237  C     C_R   0.394787 0.388269 0.419622 0.000000
C238  C     C_R   0.398682 0.439850 0.431078 0.000000
C239  C     C_R   0.357012 0.468406 0.432833 0.000000
C240  C     C_R   0.308719 0.448789 0.435553 0.000000
C241  C     C_R   0.447791 0.462701 0.435451 0.000000
N74   N     N_R   0.496650 0.430569 0.406632 0.000000
C242  C     C_R   0.529885 0.467157 0.405504 0.000000
C243  C     C_R   0.584367 0.457955 0.382444 0.000000
C244  C     C_R   0.611937 0.501429 0.386949 0.000000
N75   N     N_2   0.668231 0.494422 0.365918 0.000000
C245  C     C_R   0.584482 0.552341 0.413454 0.000000
C246  C     C_R   0.529637 0.561169 0.437735 0.000000
C247  C     C_R   0.502536 0.518152 0.434419 0.000000
N76   N     N_R   0.449950 0.517996 0.458849 0.000000
H199  H     H_    0.256452 0.337904 0.397195 0.000000
H200  H     H_    0.221499 0.401933 0.440112 0.000000
H201  H     H_    0.343428 0.327411 0.404391 0.000000
H202  H     H_    0.427522 0.364657 0.415931 0.000000
H203  H     H_    0.360106 0.508229 0.438329 0.000000
H204  H     H_    0.274573 0.475354 0.449143 0.000000
H205  H     H_    0.604854 0.418099 0.362100 0.000000
H206  H     H_    0.683654 0.522532 0.355142 0.000000
H207  H     H_    0.684453 0.455438 0.339142 0.000000
H208  H     H_    0.606290 0.585988 0.416493 0.000000
H209  H     H_    0.509613 0.600814 0.457722 0.000000
N77   N     N_2   0.616044 0.517689 0.519551 0.000000
C248  C     C_R   0.572557 0.488420 0.525659 0.000000
C249  C     C_R   0.577102 0.449853 0.540019 0.000000
C250  C     C_R   0.535398 0.419957 0.543193 0.000000
C251  C     C_R   0.487076 0.430170 0.535624 0.000000
C252  C     C_R   0.479875 0.475001 0.531814 0.000000
C253  C     C_R   0.522886 0.503230 0.525322 0.000000
C254  C     C_R   0.455242 0.385264 0.513963 0.000000
N78   N     N_R   0.483935 0.347234 0.460058 0.000000
C255  C     C_R   0.498576 0.308426 0.468976 0.000000
C256  C     C_R   0.544984 0.274386 0.438768 0.000000
C257  C     C_R   0.572096 0.260689 0.466688 0.000000
N79   N     N_2   0.624727 0.234640 0.440778 0.000000
C258  C     C_R   0.547836 0.274713 0.521192 0.000000
C259  C     C_R   0.496115 0.300263 0.546462 0.000000
C260  C     C_R   0.471735 0.318157 0.521090 0.000000
N80   N     N_R   0.436762 0.363243 0.549029 0.000000
H210  H     H_    0.653113 0.496908 0.506748 0.000000
H211  H     H_    0.611926 0.539789 0.500901 0.000000
H212  H     H_    0.613891 0.441311 0.546739 0.000000
H213  H     H_    0.543228 0.386253 0.548153 0.000000
H214  H     H_    0.440661 0.487905 0.534067 0.000000
H215  H     H_    0.516449 0.540523 0.526029 0.000000
H216  H     H_    0.562932 0.264646 0.396692 0.000000
H217  H     H_    0.643381 0.236241 0.405423 0.000000
H218  H     H_    0.647454 0.241171 0.467445 0.000000
H219  H     H_    0.569370 0.266072 0.544167 0.000000
H220  H     H_    0.479803 0.318080 0.588898 0.000000
N81   N     N_2   0.719002 0.071875 0.723809 0.000000
C261  C     C_R   0.700722 0.067165 0.771929 0.000000
C262  C     C_R   0.656566 0.040776 0.778734 0.000000
C263  C     C_R   0.639152 0.035345 0.825297 0.000000
C264  C     C_R   0.665532 0.056204 0.865723 0.000000
C265  C     C_R   0.710629 0.081522 0.857960 0.000000
C266  C     C_R   0.727754 0.087611 0.811782 0.000000
C267  C     C_R   0.648621 0.047037 0.913504 0.000000
N82   N     N_R   0.686284 0.032822 0.933185 0.000000
C268  C     C_R   0.653536 0.019558 0.967921 0.000000
C269  C     C_R   0.668370 0.988780 0.986170 0.000000
C270  C     C_R   0.630244 0.964166 0.006229 0.000000
N83   N     N_2   0.642587 0.917387 0.006671 0.000000
C271  C     C_R   0.578138 0.981897 0.020923 0.000000
C272  C     C_R   0.563099 0.015975 0.005200 0.000000
C273  C     C_R   0.601808 0.027587 0.971982 0.000000
N84   N     N_R   0.594776 0.043598 0.937529 0.000000
H221  H     H_    0.706447 0.044045 0.690855 0.000000
H222  H     H_    0.758767 0.078150 0.715016 0.000000
H223  H     H_    0.636203 0.022948 0.747013 0.000000
H224  H     H_    0.605791 0.012995 0.828956 0.000000
H225  H     H_    0.734097 0.095657 0.886784 0.000000
H226  H     H_    0.763231 0.107376 0.806542 0.000000
H227  H     H_    0.708599 0.982319 0.981237 0.000000
H228  H     H_    0.620122 0.889823 0.985213 0.000000
H229  H     H_    0.682183 0.903362 0.992059 0.000000
H230  H     H_    0.550750 0.965139 0.041089 0.000000
H231  H     H_    0.522319 0.029025 0.014253 0.000000
N85   N     N_2   0.696149 0.824288 0.718236 0.000000
C274  C     C_R   0.710424 0.843057 0.767870 0.000000
C275  C     C_R   0.671792 0.865259 0.817852 0.000000
C276  C     C_R   0.685271 0.880556 0.866098 0.000000
C277  C     C_R   0.738018 0.873565 0.864980 0.000000
C278  C     C_R   0.776661 0.852344 0.814312 0.000000
C279  C     C_R   0.763081 0.837719 0.766406 0.000000
C280  C     C_R   0.757166 0.895607 0.914791 0.000000
N86   N     N_R   0.782628 0.858156 0.922391 0.000000
C281  C     C_R   0.833585 0.868915 0.910738 0.000000
C282  C     C_R   0.877633 0.833069 0.890753 0.000000
C283  C     C_R   0.924476 0.841378 0.861467 0.000000
N87   N     N_2   0.971072 0.806405 0.842143 0.000000
C284  C     C_R   0.925194 0.883002 0.849744 0.000000
C285  C     C_R   0.881119 0.920490 0.872694 0.000000
C286  C     C_R   0.836350 0.914827 0.906498 0.000000
N88   N     N_R   0.786998 0.938107 0.918843 0.000000
H232  H     H_    0.660941 0.843110 0.722645 0.000000
H233  H     H_    0.727349 0.818467 0.684811 0.000000
H234  H     H_    0.630435 0.869290 0.819485 0.000000
H235  H     H_    0.653506 0.895915 0.903463 0.000000
H236  H     H_    0.818451 0.846591 0.811081 0.000000
H237  H     H_    0.793782 0.821252 0.727603 0.000000
H238  H     H_    0.875349 0.798609 0.896222 0.000000
H239  H     H_    0.001661 0.809618 0.813345 0.000000
H240  H     H_    0.964155 0.768914 0.837028 0.000000
H241  H     H_    0.960164 0.886463 0.822401 0.000000
H242  H     H_    0.881611 0.951698 0.862050 0.000000
N89   N     N_2   0.843891 0.279822 0.998040 0.000000
C287  C     C_R   0.851291 0.223863 0.963687 0.000000
C288  C     C_R   0.846820 0.190418 0.986085 0.000000
C289  C     C_R   0.851953 0.135805 0.952175 0.000000
C290  C     C_R   0.868256 0.113504 0.896335 0.000000
C291  C     C_R   0.867453 0.147143 0.874554 0.000000
C292  C     C_R   0.859848 0.201933 0.907629 0.000000
C293  C     C_R   0.873352 0.054887 0.861616 0.000000
N90   N     N_R   0.828060 0.029445 0.871770 0.000000
C294  C     C_R   0.824378 0.997901 0.820330 0.000000
C295  C     C_R   0.781333 0.970814 0.806543 0.000000
C296  C     C_R   0.777798 0.951557 0.753284 0.000000
N91   N     N_2   0.731322 0.930017 0.738800 0.000000
C297  C     C_R   0.818530 0.956613 0.714801 0.000000
C298  C     C_R   0.863031 0.980656 0.728720 0.000000
C299  C     C_R   0.866402 0.000913 0.781863 0.000000
N92   N     N_R   0.903043 0.031758 0.805662 0.000000
H243  H     H_    0.823050 0.292182 0.038450 0.000000
H244  H     H_    0.832749 0.300754 0.980756 0.000000
H245  H     H_    0.836444 0.206803 0.030275 0.000000
H246  H     H_    0.841266 0.109483 0.968509 0.000000
H247  H     H_    0.870592 0.131178 0.832019 0.000000
H248  H     H_    0.860488 0.227307 0.889248 0.000000
H249  H     H_    0.749172 0.968421 0.837414 0.000000
H250  H     H_    0.725105 0.931838 0.705710 0.000000
H251  H     H_    0.698187 0.940108 0.771828 0.000000
H252  H     H_    0.815604 0.942110 0.673318 0.000000
H253  H     H_    0.891973 0.984321 0.697972 0.000000
N93   N     N_2   0.229454 0.961475 0.167718 0.000000
C300  C     C_R   0.186767 0.958247 0.205819 0.000000
C301  C     C_R   0.179427 0.911258 0.205524 0.000000
C302  C     C_R   0.133932 0.907379 0.238262 0.000000
C303  C     C_R   0.097230 0.950871 0.271751 0.000000
C304  C     C_R   0.103266 0.997149 0.271156 0.000000
C305  C     C_R   0.149557 0.000679 0.238725 0.000000
C306  C     C_R   0.049612 0.942272 0.300637 0.000000
N94   N     N_R   0.056061 0.917282 0.330312 0.000000
C307  C     C_R   0.022432 0.878820 0.314399 0.000000
C308  C     C_R   0.027501 0.829080 0.310174 0.000000
C309  C     C_R   0.992909 0.792477 0.287789 0.000000
N95   N     N_2   0.995250 0.742748 0.286499 0.000000
C310  C     C_R   0.957714 0.803556 0.264425 0.000000
C311  C     C_R   0.959160 0.849832 0.260560 0.000000
C312  C     C_R   0.992097 0.886804 0.285354 0.000000
N96   N     N_R   0.009931 0.925424 0.273027 0.000000
H254  H     H_    0.240254 0.925014 0.133162 0.000000
H255  H     H_    0.222789 0.992546 0.160845 0.000000
H256  H     H_    0.209307 0.878279 0.181775 0.000000
H257  H     H_    0.126433 0.869718 0.236883 0.000000
H258  H     H_    0.072769 0.030334 0.296299 0.000000
H259  H     H_    0.155404 0.036042 0.236042 0.000000
H260  H     H_    0.058900 0.817834 0.322307 0.000000
H261  H     H_    0.960897 0.724112 0.282455 0.000000
H262  H     H_    0.011452 0.742854 0.315702 0.000000
H263  H     H_    0.932318 0.774003 0.244879 0.000000
H264  H     H_    0.937989 0.854632 0.235154 0.000000
N97   N     N_2   0.869867 0.871734 0.007522 0.000000
C313  C     C_R   0.916092 0.855427 0.013934 0.000000
C314  C     C_R   0.964781 0.853546 0.980182 0.000000
C315  C     C_R   0.009774 0.846248 0.992744 0.000000
C316  C     C_R   0.004936 0.849656 0.042967 0.000000
C317  C     C_R   0.957970 0.838458 0.068999 0.000000
C318  C     C_R   0.912543 0.842363 0.054849 0.000000
C319  C     C_R   0.050353 0.858238 0.065485 0.000000
N98   N     N_R   0.098323 0.826384 0.030119 0.000000
C320  C     C_R   0.114760 0.814971 0.065107 0.000000
C321  C     C_R   0.151118 0.773475 0.051373 0.000000
C322  C     C_R   0.148512 0.754704 0.088375 0.000000
N99   N     N_2   0.184127 0.711048 0.074921 0.000000
C323  C     C_R   0.111722 0.779605 0.139404 0.000000
C324  C     C_R   0.078493 0.823507 0.153892 0.000000
C325  C     C_R   0.080921 0.841951 0.117726 0.000000
N100  N     N_R   0.041941 0.874854 0.121951 0.000000
H265  H     H_    0.876445 0.901719 0.997427 0.000000
H266  H     H_    0.839280 0.882190 0.042225 0.000000
H267  H     H_    0.967975 0.861016 0.946286 0.000000
H268  H     H_    0.047947 0.845027 0.966460 0.000000
H269  H     H_    0.955025 0.832791 0.104173 0.000000
H270  H     H_    0.874278 0.839533 0.078861 0.000000
H271  H     H_    0.181676 0.756489 0.013297 0.000000
H272  H     H_    0.187592 0.707653 0.108067 0.000000
H273  H     H_    0.218943 0.703474 0.044239 0.000000
H274  H     H_    0.108369 0.764683 0.168138 0.000000
H275  H     H_    0.047434 0.839020 0.190447 0.000000
N101  N     N_2   0.388644 0.162289 0.429252 0.000000
C326  C     C_R   0.384074 0.107968 0.409064 0.000000
C327  C     C_R   0.395822 0.082042 0.433884 0.000000
C328  C     C_R   0.409174 0.028436 0.404652 0.000000
C329  C     C_R   0.406437 0.002099 0.352605 0.000000
C330  C     C_R   0.373325 0.025246 0.338276 0.000000
C331  C     C_R   0.368689 0.079782 0.362930 0.000000
C332  C     C_R   0.431260 0.948550 0.316664 0.000000
N102  N     N_R   0.461557 0.922251 0.333134 0.000000
C333  C     C_R   0.460469 0.871001 0.295268 0.000000
C334  C     C_R   0.477336 0.825456 0.294326 0.000000
C335  C     C_R   0.464986 0.776647 0.256839 0.000000
N103  N     N_2   0.482331 0.728986 0.253729 0.000000
C336  C     C_R   0.434459 0.774408 0.222981 0.000000
C337  C     C_R   0.418966 0.820376 0.223771 0.000000
C338  C     C_R   0.433042 0.868021 0.259014 0.000000
N104  N     N_R   0.416925 0.916765 0.268089 0.000000
H276  H     H_    0.417407 0.174941 0.449838 0.000000
H277  H     H_    0.395763 0.169898 0.397039 0.000000
H278  H     H_    0.394181 0.103643 0.475277 0.000000
H279  H     H_    0.416984 0.006053 0.422690 0.000000
H280  H     H_    0.360435 0.001649 0.302301 0.000000
H281  H     H_    0.359147 0.100665 0.343560 0.000000
H282  H     H_    0.496100 0.827680 0.324437 0.000000
H283  H     H_    0.483392 0.695106 0.217125 0.000000
H284  H     H_    0.514981 0.731523 0.268387 0.000000
H285  H     H_    0.424400 0.736453 0.194163 0.000000
H286  H     H_    0.399459 0.818753 0.194949 0.000000
N105  N     N_2   0.598690 0.944860 0.559188 0.000000
C339  C     C_R   0.553535 0.975323 0.565236 0.000000
C340  C     C_R   0.557843 0.025945 0.573252 0.000000
C341  C     C_R   0.516986 0.052143 0.569796 0.000000
C342  C     C_R   0.470645 0.028970 0.560304 0.000000
C343  C     C_R   0.464244 0.980481 0.557782 0.000000
C344  C     C_R   0.506107 0.953566 0.559243 0.000000
C345  C     C_R   0.445518 0.044078 0.529462 0.000000
N106  N     N_R   0.475237 0.019990 0.473523 0.000000
C346  C     C_R   0.489470 0.062625 0.468736 0.000000
C347  C     C_R   0.522189 0.060644 0.422281 0.000000
C348  C     C_R   0.536262 0.107389 0.424309 0.000000
N107  N     N_2   0.579494 0.106589 0.382572 0.000000
C349  C     C_R   0.507020 0.154391 0.467079 0.000000
C350  C     C_R   0.469797 0.155405 0.511947 0.000000
C351  C     C_R   0.464058 0.109064 0.514845 0.000000
N108  N     N_R   0.430263 0.099310 0.553931 0.000000
H287  H     H_    0.600201 0.904875 0.532135 0.000000
H288  H     H_    0.634151 0.960974 0.553186 0.000000
H289  H     H_    0.594457 0.043942 0.578746 0.000000
H290  H     H_    0.524170 0.089138 0.569161 0.000000
H291  H     H_    0.429281 0.960995 0.548388 0.000000
H292  H     H_    0.502724 0.913536 0.551010 0.000000
H293  H     H_    0.536290 0.023651 0.384959 0.000000
H294  H     H_    0.597221 0.141403 0.394283 0.000000
H295  H     H_    0.605549 0.072100 0.361421 0.000000
H296  H     H_    0.509967 0.189573 0.463200 0.000000
H297  H     H_    0.446273 0.191518 0.543059 0.000000
N109  N     N_2   0.319159 0.867067 0.325486 0.000000
C352  C     C_R   0.341925 0.867407 0.364703 0.000000
C353  C     C_R   0.356505 0.914501 0.400542 0.000000
C354  C     C_R   0.389246 0.914981 0.430332 0.000000
C355  C     C_R   0.404595 0.869372 0.427731 0.000000
C356  C     C_R   0.391690 0.821459 0.391304 0.000000
C357  C     C_R   0.358446 0.820235 0.360776 0.000000
C358  C     C_R   0.447726 0.870792 0.449721 0.000000
N110  N     N_R   0.495352 0.885843 0.428476 0.000000
C359  C     C_R   0.531270 0.858048 0.435244 0.000000
C360  C     C_R   0.586206 0.856732 0.421484 0.000000
C361  C     C_R   0.615458 0.819742 0.425463 0.000000
N111  N     N_2   0.671903 0.814105 0.407629 0.000000
C362  C     C_R   0.589493 0.787431 0.445899 0.000000
C363  C     C_R   0.534152 0.792647 0.464227 0.000000
C364  C     C_R   0.505651 0.828976 0.459478 0.000000
N112  N     N_R   0.451723 0.839395 0.473481 0.000000
H298  H     H_    0.328945 0.831856 0.289412 0.000000
H299  H     H_    0.325862 0.899946 0.320297 0.000000
H300  H     H_    0.347799 0.950833 0.401284 0.000000
H301  H     H_    0.404908 0.950835 0.454835 0.000000
H302  H     H_    0.413603 0.785017 0.381017 0.000000
H303  H     H_    0.351384 0.782178 0.329540 0.000000
H304  H     H_    0.606215 0.882859 0.406977 0.000000
H305  H     H_    0.689603 0.779281 0.401627 0.000000
H306  H     H_    0.686319 0.822538 0.375929 0.000000
H307  H     H_    0.612534 0.758364 0.448473 0.000000
H308  H     H_    0.514393 0.767629 0.480340 0.000000
N113  N     N_2   0.095316 0.823967 0.657705 0.000000
C365  C     C_R   0.095113 0.870201 0.705422 0.000000
C366  C     C_R   0.118999 0.911410 0.701526 0.000000
C367  C     C_R   0.111016 0.959690 0.747405 0.000000
C368  C     C_R   0.083945 0.965335 0.797556 0.000000
C369  C     C_R   0.058457 0.924170 0.801359 0.000000
C370  C     C_R   0.063961 0.876161 0.754683 0.000000
C371  C     C_R   0.064401 0.018522 0.838050 0.000000
N114  N     N_R   0.079400 0.050319 0.886775 0.000000
C372  C     C_R   0.052381 0.098488 0.901956 0.000000
C373  C     C_R   0.053508 0.149707 0.942232 0.000000
C374  C     C_R   0.025397 0.192356 0.945535 0.000000
N115  N     N_2   0.035692 0.245197 0.977495 0.000000
C375  C     C_R   0.990944 0.183711 0.913741 0.000000
C376  C     C_R   0.992007 0.133432 0.871646 0.000000
C377  C     C_R   0.024114 0.093303 0.865854 0.000000
N116  N     N_R   0.031387 0.044079 0.824567 0.000000
H309  H     H_    0.114890 0.823880 0.621749 0.000000
H310  H     H_    0.056230 0.818876 0.660830 0.000000
H311  H     H_    0.139279 0.907134 0.661754 0.000000
H312  H     H_    0.122364 0.994477 0.743783 0.000000
H313  H     H_    0.036919 0.928368 0.840695 0.000000
H314  H     H_    0.045091 0.842923 0.756606 0.000000
H315  H     H_    0.077096 0.158094 0.969098 0.000000
H316  H     H_    0.022832 0.272689 0.968400 0.000000
H317  H     H_    0.072689 0.248543 0.984896 0.000000
H318  H     H_    0.968704 0.216911 0.916993 0.000000
H319  H     H_    0.971214 0.126216 0.841370 0.000000
N117  N     N_2   0.118325 0.025564 0.167716 0.000000
C378  C     C_R   0.143308 0.001614 0.111709 0.000000
C379  C     C_R   0.141776 0.030238 0.085320 0.000000
C380  C     C_R   0.148386 0.004110 0.030262 0.000000
C381  C     C_R   0.153870 0.950010 0.002751 0.000000
C382  C     C_R   0.159722 0.921361 0.027858 0.000000
C383  C     C_R   0.155669 0.947246 0.082858 0.000000
C384  C     C_R   0.141365 0.923803 0.951303 0.000000
N118  N     N_R   0.135759 0.951516 0.923055 0.000000
C385  C     C_R   0.134490 0.908972 0.875225 0.000000
C386  C     C_R   0.152568 0.907858 0.826558 0.000000
C387  C     C_R   0.164506 0.859143 0.780185 0.000000
N119  N     N_2   0.188621 0.856842 0.730380 0.000000
C388  C     C_R   0.158398 0.812216 0.781849 0.000000
C389  C     C_R   0.146368 0.813561 0.831514 0.000000
C390  C     C_R   0.133505 0.861619 0.877256 0.000000
N120  N     N_R   0.134993 0.868629 0.925999 0.000000
H320  H     H_    0.099010 0.062486 0.183154 0.000000
H321  H     H_    0.095305 0.999884 0.177141 0.000000
H322  H     H_    0.128745 0.072044 0.108240 0.000000
H323  H     H_    0.143382 0.025326 0.009711 0.000000
H324  H     H_    0.162772 0.878808 0.005381 0.000000
H325  H     H_    0.154504 0.924514 0.104094 0.000000
H326  H     H_    0.163038 0.943844 0.824937 0.000000
H327  H     H_    0.189868 0.818719 0.699530 0.000000
H328  H     H_    0.224243 0.873185 0.731112 0.000000
H329  H     H_    0.171582 0.774796 0.744489 0.000000
H330  H     H_    0.156220 0.779795 0.835173 0.000000
N121  N     N_2   0.367735 0.807980 0.724813 0.000000
C391  C     C_R   0.342957 0.860747 0.757313 0.000000
C392  C     C_R   0.373590 0.901462 0.763001 0.000000
C393  C     C_R   0.350548 0.952891 0.796698 0.000000
C394  C     C_R   0.296783 0.964875 0.824919 0.000000
C395  C     C_R   0.269444 0.924615 0.827071 0.000000
C396  C     C_R   0.290968 0.872276 0.790730 0.000000
C397  C     C_R   0.272144 0.019842 0.849652 0.000000
N122  N     N_R   0.304467 0.054550 0.837138 0.000000
C398  C     C_R   0.272103 0.100557 0.868028 0.000000
C399  C     C_R   0.287452 0.150968 0.886318 0.000000
C400  C     C_R   0.249542 0.193656 0.926003 0.000000
N123  N     N_2   0.265265 0.245291 0.952917 0.000000
C401  C     C_R   0.197129 0.184834 0.943856 0.000000
C402  C     C_R   0.184204 0.133434 0.926631 0.000000
C403  C     C_R   0.222601 0.092749 0.892590 0.000000
N124  N     N_R   0.219017 0.042715 0.884690 0.000000
H331  H     H_    0.368225 0.794095 0.684709 0.000000
H332  H     H_    0.406849 0.805994 0.725913 0.000000
H333  H     H_    0.415762 0.893416 0.741111 0.000000
H334  H     H_    0.376303 0.983100 0.800176 0.000000
H335  H     H_    0.232992 0.934618 0.858842 0.000000
H336  H     H_    0.268584 0.840481 0.792065 0.000000
H337  H     H_    0.329263 0.156084 0.875296 0.000000
H338  H     H_    0.236100 0.273175 0.986141 0.000000
H339  H     H_    0.303067 0.245558 0.958109 0.000000
H340  H     H_    0.167876 0.217662 0.976226 0.000000
H341  H     H_    0.149678 0.123744 0.947581 0.000000
N125  N     N_2   0.884493 0.657853 0.050794 0.000000
C404  C     C_R   0.884730 0.667657 0.007035 0.000000
C405  C     C_R   0.867811 0.630908 0.962732 0.000000
C406  C     C_R   0.864369 0.642722 0.922405 0.000000
C407  C     C_R   0.880897 0.689731 0.924161 0.000000
C408  C     C_R   0.901177 0.724145 0.965913 0.000000
C409  C     C_R   0.901285 0.714438 0.008632 0.000000
C410  C     C_R   0.875777 0.701011 0.881042 0.000000
N126  N     N_R   0.823616 0.720781 0.887596 0.000000
C411  C     C_R   0.814055 0.681781 0.841105 0.000000
C412  C     C_R   0.764627 0.667127 0.833881 0.000000
C413  C     C_R   0.762159 0.622275 0.785554 0.000000
N127  N     N_2   0.711960 0.607575 0.776077 0.000000
C414  C     C_R   0.808889 0.590494 0.747634 0.000000
C415  C     C_R   0.857710 0.602545 0.758941 0.000000
C416  C     C_R   0.859647 0.647825 0.805579 0.000000
N128  N     N_R   0.901529 0.660232 0.827527 0.000000
H342  H     H_    0.882919 0.618481 0.041422 0.000000
H343  H     H_    0.910146 0.678664 0.073710 0.000000
H344  H     H_    0.854745 0.593965 0.960754 0.000000
H345  H     H_    0.847476 0.615337 0.890041 0.000000
H346  H     H_    0.918785 0.756853 0.962710 0.000000
H347  H     H_    0.916200 0.742193 0.042394 0.000000
H348  H     H_    0.728497 0.688619 0.866110 0.000000
H349  H     H_    0.713628 0.583609 0.735130 0.000000
H350  H     H_    0.681471 0.638478 0.798432 0.000000
H351  H     H_    0.806884 0.554161 0.711069 0.000000
H352  H     H_    0.892930 0.575364 0.734997 0.000000
N129  N     N_2   0.719173 0.705783 0.683781 0.000000
C417  C     C_R   0.700468 0.725258 0.741209 0.000000
C418  C     C_R   0.646672 0.740719 0.768372 0.000000
C419  C     C_R   0.628245 0.757045 0.823976 0.000000
C420  C     C_R   0.664009 0.765907 0.854222 0.000000
C421  C     C_R   0.718187 0.756013 0.827791 0.000000
C422  C     C_R   0.736318 0.732642 0.771241 0.000000
C423  C     C_R   0.645542 0.782575 0.913074 0.000000
N130  N     N_R   0.591543 0.797543 0.945152 0.000000
C424  C     C_R   0.597375 0.806137 0.993731 0.000000
C425  C     C_R   0.572337 0.847984 0.044122 0.000000
C426  C     C_R   0.588950 0.856321 0.088961 0.000000
N131  N     N_2   0.562651 0.897783 0.142286 0.000000
C427  C     C_R   0.627069 0.819625 0.081945 0.000000
C428  C     C_R   0.658438 0.786343 0.030158 0.000000
C429  C     C_R   0.647291 0.789368 0.988523 0.000000
N132  N     N_R   0.681433 0.781215 0.941273 0.000000
H353  H     H_    0.690282 0.693036 0.663016 0.000000
H354  H     H_    0.755367 0.682221 0.665185 0.000000
H355  H     H_    0.618722 0.738376 0.745692 0.000000
H356  H     H_    0.586087 0.763243 0.844079 0.000000
H357  H     H_    0.747249 0.765595 0.851000 0.000000
H358  H     H_    0.778884 0.723477 0.751172 0.000000
H359  H     H_    0.545357 0.876935 0.047936 0.000000
H360  H     H_    0.574985 0.900190 0.174611 0.000000
H361  H     H_    0.548949 0.932277 0.145011 0.000000
H362  H     H_    0.635403 0.819996 0.116142 0.000000
H363  H     H_    0.688737 0.757303 0.021766 0.000000
N133  N     N_2   0.630951 0.185673 0.155160 0.000000
C430  C     C_R   0.586390 0.174989 0.135192 0.000000
C431  C     C_R   0.538552 0.178726 0.170429 0.000000
C432  C     C_R   0.499284 0.151396 0.150244 0.000000
C433  C     C_R   0.502955 0.132873 0.096432 0.000000
C434  C     C_R   0.546794 0.140300 0.062580 0.000000
C435  C     C_R   0.590997 0.156551 0.080696 0.000000
C436  C     C_R   0.454914 0.120980 0.080408 0.000000
N134  N     N_R   0.406522 0.150122 0.119181 0.000000
C437  C     C_R   0.384570 0.159249 0.085693 0.000000
C438  C     C_R   0.345489 0.198941 0.101914 0.000000
C439  C     C_R   0.346391 0.221557 0.068437 0.000000
N135  N     N_2   0.315763 0.270512 0.089061 0.000000
C440  C     C_R   0.382341 0.199795 0.016814 0.000000
C441  C     C_R   0.416988 0.155463 0.998263 0.000000
C442  C     C_R   0.416459 0.133962 0.031844 0.000000
N136  N     N_R   0.458006 0.102906 0.025619 0.000000
H364  H     H_    0.619476 0.196655 0.195918 0.000000
H365  H     H_    0.656235 0.151738 0.135674 0.000000
H366  H     H_    0.532351 0.200756 0.214125 0.000000
H367  H     H_    0.464442 0.147578 0.177327 0.000000
H368  H     H_    0.547897 0.132250 0.021614 0.000000
H369  H     H_    0.627448 0.156835 0.052993 0.000000
H370  H     H_    0.316572 0.213235 0.140805 0.000000
H371  H     H_    0.313026 0.280544 0.059765 0.000000
H372  H     H_    0.281867 0.278686 0.120671 0.000000
H373  H     H_    0.384962 0.218487 0.991411 0.000000
H374  H     H_    0.447757 0.142535 0.960818 0.000000
N137  N     N_2   0.496683 0.034521 0.150139 0.000000
C443  C     C_R   0.461864 0.007222 0.119077 0.000000
C444  C     C_R   0.437450 0.031532 0.099282 0.000000
C445  C     C_R   0.431684 0.003841 0.047176 0.000000
C446  C     C_R   0.454901 0.952882 0.017318 0.000000
C447  C     C_R   0.463172 0.926789 0.043653 0.000000
C448  C     C_R   0.463525 0.954135 0.097341 0.000000
C449  C     C_R   0.484133 0.929830 0.960281 0.000000
N138  N     N_R   0.499242 0.959322 0.932640 0.000000
C450  C     C_R   0.519627 0.919487 0.881083 0.000000
C451  C     C_R   0.536342 0.925119 0.835445 0.000000
C452  C     C_R   0.546850 0.880003 0.785063 0.000000
N139  N     N_2   0.566204 0.885422 0.737906 0.000000
C453  C     C_R   0.539273 0.830269 0.781212 0.000000
C454  C     C_R   0.525548 0.824848 0.828210 0.000000
C455  C     C_R   0.518509 0.870313 0.878278 0.000000
N140  N     N_R   0.500939 0.875250 0.929136 0.000000
H375  H     H_    0.520093 0.054598 0.132682 0.000000
H376  H     H_    0.518363 0.010300 0.156757 0.000000
H377  H     H_    0.424089 0.072310 0.126487 0.000000
H378  H     H_    0.417648 0.023225 0.027877 0.000000
H379  H     H_    0.486978 0.890315 0.018506 0.000000
H380  H     H_    0.480453 0.935692 0.115445 0.000000
H381  H     H_    0.539979 0.963587 0.838415 0.000000
H382  H     H_    0.590315 0.915891 0.744893 0.000000
H383  H     H_    0.582631 0.850412 0.702668 0.000000
H384  H     H_    0.544440 0.795655 0.741393 0.000000
H385  H     H_    0.517419 0.786605 0.825219 0.000000
N141  N     N_2   0.250251 0.027624 0.976270 0.000000
C456  C     C_R   0.303158 0.037859 0.961191 0.000000
C457  C     C_R   0.344494 0.999990 0.945056 0.000000
C458  C     C_R   0.393318 0.001768 0.914427 0.000000
C459  C     C_R   0.398450 0.037684 0.896437 0.000000
C460  C     C_R   0.360784 0.080595 0.920162 0.000000
C461  C     C_R   0.313506 0.082068 0.955190 0.000000
C462  C     C_R   0.447587 0.037152 0.860367 0.000000
N142  N     N_R   0.490362 0.050832 0.882822 0.000000
C463  C     C_R   0.511338 0.085496 0.866029 0.000000
C464  C     C_R   0.545063 0.122164 0.889311 0.000000
C465  C     C_R   0.552243 0.164075 0.878028 0.000000
N143  N     N_2   0.587786 0.201479 0.899890 0.000000
C466  C     C_R   0.521409 0.171498 0.848731 0.000000
C467  C     C_R   0.484705 0.136313 0.829298 0.000000
C468  C     C_R   0.483127 0.090770 0.834084 0.000000
N144  N     N_R   0.444978 0.056408 0.824950 0.000000
H386  H     H_    0.246075 0.987623 0.955551 0.000000
H387  H     H_    0.222886 0.050816 0.974208 0.000000
H388  H     H_    0.338565 0.966900 0.952570 0.000000
H389  H     H_    0.426157 0.972279 0.899166 0.000000
H390  H     H_    0.368204 0.113211 0.911430 0.000000
H391  H     H_    0.283627 0.114907 0.971581 0.000000
H392  H     H_    0.563338 0.119735 0.917922 0.000000
H393  H     H_    0.579344 0.238383 0.904085 0.000000
H394  H     H_    0.597381 0.201656 0.932579 0.000000
H395  H     H_    0.523913 0.206404 0.843284 0.000000
H396  H     H_    0.456276 0.146294 0.813481 0.000000
N145  N     N_2   0.883890 0.423232 0.524049 0.000000
C469  C     C_R   0.938634 0.409546 0.515129 0.000000
C470  C     C_R   0.956422 0.358461 0.501241 0.000000
C471  C     C_R   0.008461 0.347066 0.498989 0.000000
C472  C     C_R   0.042709 0.386277 0.510507 0.000000
C473  C     C_R   0.027426 0.434673 0.515994 0.000000
C474  C     C_R   0.974718 0.447239 0.520873 0.000000
C475  C     C_R   0.096807 0.372751 0.509623 0.000000
N146  N     N_R   0.131599 0.343925 0.456791 0.000000
C476  C     C_R   0.163292 0.316536 0.467244 0.000000
C477  C     C_R   0.195017 0.272695 0.430812 0.000000
C478  C     C_R   0.194112 0.234165 0.445645 0.000000
N147  N     N_2   0.167091 0.191163 0.419793 0.000000
C479  C     C_R   0.191301 0.249027 0.499031 0.000000
C480  C     C_R   0.171788 0.299755 0.537616 0.000000
C481  C     C_R   0.150557 0.328869 0.520781 0.000000
N148  N     N_R   0.111200 0.367656 0.552645 0.000000
H397  H     H_    0.864270 0.391768 0.502320 0.000000
H398  H     H_    0.875241 0.458997 0.525932 0.000000
H399  H     H_    0.929184 0.328052 0.494644 0.000000
H400  H     H_    0.022565 0.307527 0.488906 0.000000
H401  H     H_    0.055239 0.464352 0.521562 0.000000
H402  H     H_    0.961656 0.487341 0.531214 0.000000
H403  H     H_    0.210690 0.266562 0.391168 0.000000
H404  H     H_    0.164407 0.166855 0.436505 0.000000
H405  H     H_    0.128731 0.206235 0.427090 0.000000
H406  H     H_    0.191314 0.220170 0.512444 0.000000
H407  H     H_    0.160918 0.310402 0.579299 0.000000
N149  N     N_2   0.357525 0.503623 0.329776 0.000000
C482  C     C_R   0.305470 0.495664 0.353005 0.000000
C483  C     C_R   0.270471 0.537696 0.396442 0.000000
C484  C     C_R   0.220514 0.529494 0.421235 0.000000
C485  C     C_R   0.206772 0.478278 0.406564 0.000000
C486  C     C_R   0.242569 0.437240 0.363945 0.000000
C487  C     C_R   0.291291 0.445107 0.336663 0.000000
C488  C     C_R   0.155661 0.465709 0.433502 0.000000
N150  N     N_R   0.117956 0.509742 0.467786 0.000000
C489  C     C_R   0.079679 0.497195 0.440642 0.000000
C490  C     C_R   0.041742 0.532112 0.444140 0.000000
C491  C     C_R   0.019024 0.515702 0.400790 0.000000
N151  N     N_2   0.982193 0.551639 0.401921 0.000000
C492  C     C_R   0.035011 0.465374 0.354639 0.000000
C493  C     C_R   0.072439 0.430376 0.352196 0.000000
C494  C     C_R   0.091897 0.446166 0.397141 0.000000
N152  N     N_R   0.134965 0.421781 0.397479 0.000000
H408  H     H_    0.361720 0.542149 0.337260 0.000000
H409  H     H_    0.375293 0.473857 0.290169 0.000000
H410  H     H_    0.283356 0.576957 0.413157 0.000000
H411  H     H_    0.194225 0.563868 0.454104 0.000000
H412  H     H_    0.235736 0.398885 0.359095 0.000000
H413  H     H_    0.321127 0.411607 0.307895 0.000000
H414  H     H_    0.035782 0.573546 0.474853 0.000000
H415  H     H_    0.957928 0.533433 0.376392 0.000000
H416  H     H_    0.963246 0.581759 0.440959 0.000000
H417  H     H_    0.018848 0.453568 0.319929 0.000000
H418  H     H_    0.086772 0.392090 0.315507 0.000000
N153  N     N_2   0.133864 0.097760 0.334681 0.000000
C495  C     C_R   0.157974 0.127993 0.310540 0.000000
C496  C     C_R   0.132932 0.176597 0.328732 0.000000
C497  C     C_R   0.163554 0.214014 0.324602 0.000000
C498  C     C_R   0.217472 0.201987 0.297120 0.000000
C499  C     C_R   0.240711 0.151351 0.272849 0.000000
C500  C     C_R   0.210154 0.113471 0.277491 0.000000
C501  C     C_R   0.246910 0.243830 0.292405 0.000000
N154  N     N_R   0.217690 0.293010 0.311962 0.000000
C502  C     C_R   0.248728 0.309946 0.278927 0.000000
C503  C     C_R   0.232795 0.345532 0.264316 0.000000
C504  C     C_R   0.270531 0.357114 0.228563 0.000000
N155  N     N_2   0.256663 0.395304 0.214892 0.000000
C505  C     C_R   0.322512 0.332192 0.207610 0.000000
C506  C     C_R   0.334821 0.291923 0.217688 0.000000
C507  C     C_R   0.296810 0.278906 0.250478 0.000000
N156  N     N_R   0.298362 0.234356 0.255673 0.000000
H419  H     H_    0.106914 0.119601 0.372043 0.000000
H420  H     H_    0.161035 0.072636 0.334163 0.000000
H421  H     H_    0.091566 0.188108 0.353228 0.000000
H422  H     H_    0.144547 0.253740 0.346669 0.000000
H423  H     H_    0.282829 0.142551 0.253921 0.000000
H424  H     H_    0.228792 0.073344 0.258199 0.000000
H425  H     H_    0.192547 0.365831 0.282476 0.000000
H426  H     H_    0.288844 0.412030 0.201598 0.000000
H427  H     H_    0.223495 0.421644 0.242878 0.000000
H428  H     H_    0.352343 0.340745 0.179430 0.000000
H429  H     H_    0.369613 0.265013 0.193404 0.000000
N157  N     N_2   0.275467 0.975795 0.033596 0.000000
C508  C     C_R   0.304048 0.992991 0.072595 0.000000
C509  C     C_R   0.309780 0.045759 0.099274 0.000000
C510  C     C_R   0.320214 0.067818 0.149003 0.000000
C511  C     C_R   0.330906 0.034789 0.168644 0.000000
C512  C     C_R   0.334219 0.980698 0.136627 0.000000
C513  C     C_R   0.321032 0.959548 0.088333 0.000000
C514  C     C_R   0.358060 0.053317 0.210666 0.000000
N158  N     N_R   0.380006 0.103106 0.226644 0.000000
C515  C     C_R   0.415175 0.094812 0.250226 0.000000
C516  C     C_R   0.448461 0.128789 0.275796 0.000000
C517  C     C_R   0.475149 0.116291 0.304952 0.000000
N159  N     N_2   0.502366 0.154691 0.339874 0.000000
C518  C     C_R   0.479423 0.064418 0.295514 0.000000
C519  C     C_R   0.457070 0.026040 0.256914 0.000000
C520  C     C_R   0.417340 0.044048 0.244115 0.000000
N160  N     N_R   0.379024 0.016033 0.222888 0.000000
H430  H     H_    0.245232 0.004895 0.046929 0.000000
H431  H     H_    0.262839 0.939075 0.022733 0.000000
H432  H     H_    0.310082 0.068401 0.078659 0.000000
H433  H     H_    0.326275 0.109460 0.167833 0.000000
H434  H     H_    0.345624 0.954210 0.149586 0.000000
H435  H     H_    0.319702 0.917511 0.067260 0.000000
H436  H     H_    0.457512 0.161318 0.268582 0.000000
H437  H     H_    0.538056 0.138920 0.337780 0.000000
H438  H     H_    0.506090 0.188110 0.335562 0.000000
H439  H     H_    0.503633 0.052950 0.314656 0.000000
H440  H     H_    0.464297 0.984399 0.244305 0.000000
N161  N     N_2   0.930948 0.997697 0.538457 0.000000
C521  C     C_R   0.966947 0.990528 0.564313 0.000000
C522  C     C_R   0.019518 0.970765 0.536618 0.000000
C523  C     C_R   0.053060 0.956863 0.559306 0.000000
C524  C     C_R   0.034852 0.966250 0.612626 0.000000
C525  C     C_R   0.983750 0.992292 0.641571 0.000000
C526  C     C_R   0.949643 0.003050 0.617775 0.000000
C527  C     C_R   0.057596 0.936810 0.634651 0.000000
N162  N     N_R   0.064999 0.880797 0.600424 0.000000
C528  C     C_R   0.020286 0.869619 0.628659 0.000000
C529  C     C_R   0.982477 0.838883 0.606797 0.000000
C530  C     C_R   0.930716 0.847984 0.640732 0.000000
N163  N     N_2   0.887903 0.827502 0.617541 0.000000
C531  C     C_R   0.921014 0.876805 0.697483 0.000000
C532  C     C_R   0.958699 0.908264 0.719158 0.000000
C533  C     C_R   0.003257 0.909412 0.682396 0.000000
N164  N     N_R   0.027797 0.952776 0.689281 0.000000
H441  H     H_    0.891151 0.001143 0.558833 0.000000
H442  H     H_    0.940857 0.972954 0.496531 0.000000
H443  H     H_    0.033944 0.963943 0.495575 0.000000
H444  H     H_    0.092054 0.937304 0.533883 0.000000
H445  H     H_    0.967752 0.003697 0.683864 0.000000
H446  H     H_    0.908870 0.020551 0.641003 0.000000
H447  H     H_    0.990368 0.812505 0.564152 0.000000
H448  H     H_    0.898823 0.799416 0.576314 0.000000
H449  H     H_    0.855331 0.821836 0.642904 0.000000
H450  H     H_    0.882084 0.879645 0.724450 0.000000
H451  H     H_    0.950243 0.936195 0.762641 0.000000
N165  N     N_2   0.135908 0.244487 0.898897 0.000000
C534  C     C_R   0.118163 0.207142 0.853937 0.000000
C535  C     C_R   0.072991 0.221619 0.845848 0.000000
C536  C     C_R   0.053713 0.185460 0.803866 0.000000
C537  C     C_R   0.081680 0.136055 0.765820 0.000000
C538  C     C_R   0.125703 0.120135 0.775339 0.000000
C539  C     C_R   0.143812 0.155758 0.819706 0.000000
C540  C     C_R   0.059425 0.103417 0.719528 0.000000
N166  N     N_R   0.056813 0.126727 0.686934 0.000000
C541  C     C_R   0.003342 0.133227 0.694703 0.000000
C542  C     C_R   0.975128 0.169341 0.689180 0.000000
C543  C     C_R   0.919514 0.174129 0.706102 0.000000
N167  N     N_2   0.889198 0.213346 0.704911 0.000000
C544  C     C_R   0.893476 0.140866 0.724933 0.000000
C545  C     C_R   0.922584 0.107075 0.732805 0.000000
C546  C     C_R   0.977070 0.107347 0.721446 0.000000
N168  N     N_R   0.011475 0.084641 0.734736 0.000000
H452  H     H_    0.174115 0.235577 0.897745 0.000000
H453  H     H_    0.124977 0.283805 0.911353 0.000000
H454  H     H_    0.051062 0.260720 0.873911 0.000000
H455  H     H_    0.015908 0.196671 0.800804 0.000000
H456  H     H_    0.145477 0.080227 0.749213 0.000000
H457  H     H_    0.178394 0.143558 0.827167 0.000000
H458  H     H_    0.995309 0.195981 0.675706 0.000000
H459  H     H_    0.850897 0.223763 0.731004 0.000000
H460  H     H_    0.909940 0.244636 0.705245 0.000000
H461  H     H_    0.850209 0.142657 0.735581 0.000000
H462  H     H_    0.903026 0.080735 0.746807 0.000000
N169  N     N_2   0.234438 0.810338 0.608602 0.000000
C547  C     C_R   0.237494 0.755223 0.581398 0.000000
C548  C     C_R   0.285344 0.726091 0.546647 0.000000
C549  C     C_R   0.288311 0.672115 0.519262 0.000000
C550  C     C_R   0.246073 0.648976 0.533343 0.000000
C551  C     C_R   0.197994 0.677783 0.567858 0.000000
C552  C     C_R   0.194386 0.731273 0.592974 0.000000
C553  C     C_R   0.255460 0.598824 0.528460 0.000000
N170  N     N_R   0.210485 0.574053 0.538354 0.000000
C554  C     C_R   0.231830 0.539383 0.548815 0.000000
C555  C     C_R   0.209275 0.497128 0.550379 0.000000
C556  C     C_R   0.241515 0.461117 0.551907 0.000000
N171  N     N_2   0.220089 0.415728 0.549449 0.000000
C557  C     C_R   0.294535 0.467309 0.552572 0.000000
C558  C     C_R   0.315869 0.512162 0.554182 0.000000
C559  C     C_R   0.285104 0.545037 0.547680 0.000000
N172  N     N_R   0.303721 0.580771 0.531923 0.000000
H463  H     H_    0.196527 0.828907 0.623379 0.000000
H464  H     H_    0.254086 0.821647 0.638044 0.000000
H465  H     H_    0.319206 0.746391 0.539770 0.000000
H466  H     H_    0.323067 0.646938 0.488927 0.000000
H467  H     H_    0.164889 0.660755 0.583358 0.000000
H468  H     H_    0.160149 0.753424 0.626222 0.000000
H469  H     H_    0.168434 0.491263 0.548157 0.000000
H470  H     H_    0.248395 0.386158 0.539384 0.000000
H471  H     H_    0.193835 0.407143 0.526456 0.000000
H472  H     H_    0.319584 0.436822 0.551002 0.000000
H473  H     H_    0.357195 0.517321 0.552940 0.000000
N173  N     N_2   0.618878 0.633663 0.689264 0.000000
C560  C     C_R   0.570243 0.629272 0.675306 0.000000
C561  C     C_R   0.556301 0.579789 0.644875 0.000000
C562  C     C_R   0.505275 0.574371 0.639159 0.000000
C563  C     C_R   0.471693 0.617259 0.653246 0.000000
C564  C     C_R   0.484706 0.667432 0.685728 0.000000
C565  C     C_R   0.533206 0.673156 0.698106 0.000000
C566  C     C_R   0.416220 0.611214 0.652076 0.000000
N174  N     N_R   0.396269 0.609914 0.609772 0.000000
C567  C     C_R   0.349732 0.639540 0.640680 0.000000
C568  C     C_R   0.326712 0.673438 0.629421 0.000000
C569  C     C_R   0.294651 0.717428 0.672786 0.000000
N175  N     N_2   0.281278 0.759447 0.665506 0.000000
C570  C     C_R   0.276262 0.720309 0.723217 0.000000
C571  C     C_R   0.295156 0.681111 0.730161 0.000000
C572  C     C_R   0.338066 0.648355 0.692820 0.000000
N176  N     N_R   0.378850 0.631660 0.703521 0.000000
H474  H     H_    0.644536 0.598847 0.666008 0.000000
H475  H     H_    0.612081 0.647319 0.730796 0.000000
H476  H     H_    0.582768 0.544898 0.631793 0.000000
H477  H     H_    0.490004 0.536366 0.627423 0.000000
H478  H     H_    0.456076 0.702165 0.703321 0.000000
H479  H     H_    0.541762 0.711956 0.725728 0.000000
H480  H     H_    0.338638 0.670736 0.590076 0.000000
H481  H     H_    0.311646 0.763112 0.636850 0.000000
H482  H     H_    0.269823 0.793831 0.702245 0.000000
H483  H     H_    0.247601 0.752086 0.757037 0.000000
H484  H     H_    0.278666 0.676768 0.764265 0.000000
N177  N     N_2   0.593784 0.730497 0.621185 0.000000
C573  C     C_R   0.542886 0.727222 0.611460 0.000000
C574  C     C_R   0.508161 0.772319 0.631148 0.000000
C575  C     C_R   0.463277 0.768490 0.612258 0.000000
C576  C     C_R   0.449931 0.719245 0.578756 0.000000
C577  C     C_R   0.479973 0.674267 0.568347 0.000000
C578  C     C_R   0.527771 0.678109 0.581015 0.000000
C579  C     C_R   0.413483 0.711250 0.544366 0.000000
N178  N     N_R   0.416108 0.741111 0.516530 0.000000
C580  C     C_R   0.424895 0.700926 0.463802 0.000000
C581  C     C_R   0.443226 0.703745 0.416112 0.000000
C582  C     C_R   0.456193 0.656390 0.366271 0.000000
N179  N     N_2   0.478117 0.657949 0.316960 0.000000
C583  C     C_R   0.446998 0.607674 0.364436 0.000000
C584  C     C_R   0.427452 0.605533 0.412687 0.000000
C585  C     C_R   0.419785 0.652409 0.461466 0.000000
N180  N     N_R   0.408536 0.657536 0.511982 0.000000
H485  H     H_    0.598599 0.765011 0.654043 0.000000
H486  H     H_    0.610953 0.695671 0.615658 0.000000
H487  H     H_    0.517672 0.811111 0.658352 0.000000
H488  H     H_    0.438665 0.803936 0.623599 0.000000
H489  H     H_    0.469941 0.634349 0.546327 0.000000
H490  H     H_    0.552958 0.642035 0.567279 0.000000
H491  H     H_    0.449903 0.741197 0.417106 0.000000
H492  H     H_    0.472720 0.625141 0.282416 0.000000
H493  H     H_    0.468550 0.694348 0.320930 0.000000
H494  H     H_    0.456091 0.571079 0.325315 0.000000
H495  H     H_    0.421013 0.567831 0.411844 0.000000
N181  N     N_2   0.315530 0.149181 0.544694 0.000000
C586  C     C_R   0.297433 0.199918 0.556649 0.000000
C587  C     C_R   0.243787 0.217569 0.577130 0.000000
C588  C     C_R   0.228538 0.271231 0.604356 0.000000
C589  C     C_R   0.265364 0.305500 0.602842 0.000000
C590  C     C_R   0.318520 0.286669 0.577440 0.000000
C591  C     C_R   0.334291 0.234267 0.555429 0.000000
C592  C     C_R   0.250738 0.362011 0.629655 0.000000
N182  N     N_R   0.199031 0.387405 0.642749 0.000000
C593  C     C_R   0.210903 0.437359 0.660387 0.000000
C594  C     C_R   0.176761 0.476572 0.669913 0.000000
C595  C     C_R   0.194675 0.523840 0.678044 0.000000
N183  N     N_2   0.157964 0.562140 0.683654 0.000000
C596  C     C_R   0.248230 0.531382 0.676951 0.000000
C597  C     C_R   0.283975 0.489694 0.664742 0.000000
C598  C     C_R   0.264296 0.442225 0.656242 0.000000
N184  N     N_R   0.291831 0.394965 0.638032 0.000000
H496  H     H_    0.286111 0.127659 0.552958 0.000000
H497  H     H_    0.347017 0.150517 0.560542 0.000000
H498  H     H_    0.213801 0.190958 0.577641 0.000000
H499  H     H_    0.189067 0.287007 0.630865 0.000000
H500  H     H_    0.348953 0.311856 0.573725 0.000000
H501  H     H_    0.375957 0.220927 0.538442 0.000000
H502  H     H_    0.138936 0.467447 0.662791 0.000000
H503  H     H_    0.158653 0.560162 0.647071 0.000000
H504  H     H_    0.119523 0.560540 0.703333 0.000000
H505  H     H_    0.264427 0.567072 0.679365 0.000000
H506  H     H_    0.326379 0.492762 0.654696 0.000000
N185  N     N_2   0.251902 0.460998 0.904171 0.000000
C599  C     C_R   0.275011 0.478328 0.865705 0.000000
C600  C     C_R   0.321621 0.501902 0.867848 0.000000
C601  C     C_R   0.348036 0.510873 0.825296 0.000000
C602  C     C_R   0.324882 0.504278 0.784500 0.000000
C603  C     C_R   0.275647 0.485237 0.785675 0.000000
C604  C     C_R   0.252312 0.470239 0.824482 0.000000
C605  C     C_R   0.358299 0.509030 0.737411 0.000000
N186  N     N_R   0.387713 0.552911 0.750802 0.000000
C606  C     C_R   0.438293 0.528385 0.721903 0.000000
C607  C     C_R   0.485982 0.548955 0.727425 0.000000
C608  C     C_R   0.531883 0.514133 0.708009 0.000000
N187  N     N_2   0.579147 0.533677 0.722370 0.000000
C609  C     C_R   0.531160 0.459954 0.675152 0.000000
C610  C     C_R   0.484061 0.440660 0.664072 0.000000
C611  C     C_R   0.438270 0.475229 0.689407 0.000000
N188  N     N_R   0.388415 0.461662 0.693413 0.000000
H507  H     H_    0.260350 0.482025 0.941565 0.000000
H508  H     H_    0.213350 0.451183 0.905236 0.000000
H509  H     H_    0.340349 0.508505 0.899725 0.000000
H510  H     H_    0.388484 0.520178 0.822739 0.000000
H511  H     H_    0.254972 0.480728 0.756454 0.000000
H512  H     H_    0.215166 0.453379 0.823020 0.000000
H513  H     H_    0.488071 0.591039 0.745706 0.000000
H514  H     H_    0.614189 0.511723 0.693401 0.000000
H515  H     H_    0.578332 0.574591 0.741976 0.000000
H516  H     H_    0.567025 0.432583 0.658781 0.000000
H517  H     H_    0.482442 0.399003 0.640329 0.000000
N189  N     N_2   0.628276 0.273457 0.654041 0.000000
C612  C     C_R   0.575276 0.272830 0.649937 0.000000
C613  C     C_R   0.541730 0.319579 0.676287 0.000000
C614  C     C_R   0.489940 0.318848 0.672187 0.000000
C615  C     C_R   0.470599 0.271341 0.640008 0.000000
C616  C     C_R   0.503961 0.224761 0.617550 0.000000
C617  C     C_R   0.555910 0.225276 0.621251 0.000000
C618  C     C_R   0.414067 0.271057 0.635060 0.000000
N190  N     N_R   0.388393 0.322398 0.656599 0.000000
C619  C     C_R   0.361394 0.330713 0.707045 0.000000
C620  C     C_R   0.365153 0.376309 0.753139 0.000000
C621  C     C_R   0.370275 0.372210 0.797821 0.000000
N191  N     N_2   0.393927 0.411570 0.836331 0.000000
C622  C     C_R   0.361469 0.325584 0.799843 0.000000
C623  C     C_R   0.354387 0.280449 0.754596 0.000000
C624  C     C_R   0.359116 0.282682 0.707515 0.000000
N192  N     N_R   0.384533 0.242004 0.657760 0.000000
H518  H     H_    0.643301 0.309610 0.663544 0.000000
H519  H     H_    0.653681 0.240176 0.623101 0.000000
H520  H     H_    0.555733 0.357296 0.700373 0.000000
H521  H     H_    0.466067 0.356837 0.693453 0.000000
H522  H     H_    0.488832 0.186883 0.600827 0.000000
H523  H     H_    0.580715 0.187843 0.602859 0.000000
H524  H     H_    0.379094 0.409751 0.748348 0.000000
H525  H     H_    0.408098 0.399348 0.859513 0.000000
H526  H     H_    0.420196 0.431141 0.820092 0.000000
H527  H     H_    0.368603 0.322660 0.833616 0.000000
H528  H     H_    0.358496 0.242170 0.751684 0.000000
N193  N     N_2   0.150039 0.387829 0.828310 0.000000
C625  C     C_R   0.175792 0.336417 0.788561 0.000000
C626  C     C_R   0.154357 0.292570 0.789522 0.000000
C627  C     C_R   0.173457 0.242311 0.745728 0.000000
C628  C     C_R   0.217516 0.235035 0.703304 0.000000
C629  C     C_R   0.242896 0.278482 0.706107 0.000000
C630  C     C_R   0.220766 0.329432 0.746932 0.000000
C631  C     C_R   0.234877 0.180677 0.657289 0.000000
N194  N     N_R   0.194188 0.147573 0.642990 0.000000
C632  C     C_R   0.215367 0.103483 0.638178 0.000000
C633  C     C_R   0.186796 0.064166 0.640126 0.000000
C634  C     C_R   0.211004 0.027986 0.647901 0.000000
N195  N     N_2   0.181585 0.988075 0.652820 0.000000
C635  C     C_R   0.264952 0.028365 0.646158 0.000000
C636  C     C_R   0.293865 0.068281 0.643429 0.000000
C637  C     C_R   0.267384 0.106677 0.640976 0.000000
N196  N     N_R   0.284362 0.153490 0.647546 0.000000
H529  H     H_    0.115734 0.387697 0.855866 0.000000
H530  H     H_    0.144095 0.409829 0.810116 0.000000
H531  H     H_    0.120684 0.297586 0.823242 0.000000
H532  H     H_    0.154532 0.208383 0.745915 0.000000
H533  H     H_    0.277586 0.272796 0.673518 0.000000
H534  H     H_    0.238633 0.363476 0.745678 0.000000
H535  H     H_    0.146350 0.062557 0.637022 0.000000
H536  H     H_    0.203919 0.951828 0.632870 0.000000
H537  H     H_    0.145349 0.987238 0.644472 0.000000
H538  H     H_    0.286772 0.994251 0.640015 0.000000
H539  H     H_    0.336079 0.067102 0.640153 0.000000
N197  N     N_2   0.247226 0.320766 0.898137 0.000000
C638  C     C_R   0.274146 0.269362 0.859387 0.000000
C639  C     C_R   0.323666 0.254897 0.860231 0.000000
C640  C     C_R   0.350334 0.205705 0.820602 0.000000
C641  C     C_R   0.326590 0.168821 0.782124 0.000000
C642  C     C_R   0.276717 0.182992 0.781931 0.000000
C643  C     C_R   0.251392 0.233426 0.819888 0.000000
C644  C     C_R   0.362236 0.125296 0.733552 0.000000
N198  N     N_R   0.394447 0.093678 0.741959 0.000000
C645  C     C_R   0.443554 0.094488 0.711777 0.000000
C646  C     C_R   0.492221 0.075773 0.710244 0.000000
C647  C     C_R   0.536742 0.099994 0.697904 0.000000
N199  N     N_2   0.586566 0.085826 0.701339 0.000000
C648  C     C_R   0.531012 0.141588 0.687193 0.000000
C649  C     C_R   0.482325 0.154528 0.682796 0.000000
C650  C     C_R   0.440893 0.125702 0.688857 0.000000
N200  N     N_R   0.390034 0.139855 0.695148 0.000000
H540  H     H_    0.271962 0.348720 0.915783 0.000000
H541  H     H_    0.219103 0.333157 0.885679 0.000000
H542  H     H_    0.342789 0.282685 0.890406 0.000000
H543  H     H_    0.391166 0.197256 0.818498 0.000000
H544  H     H_    0.258231 0.155870 0.751071 0.000000
H545  H     H_    0.212906 0.244681 0.819414 0.000000
H546  H     H_    0.494786 0.048877 0.725527 0.000000
H547  H     H_    0.612133 0.115114 0.708168 0.000000
H548  H     H_    0.583340 0.067735 0.725243 0.000000
H549  H     H_    0.564162 0.164333 0.682902 0.000000
H550  H     H_    0.474161 0.190752 0.682838 0.000000
N201  N     N_2   0.306504 0.592220 0.302747 0.000000
C651  C     C_R   0.299000 0.638972 0.354185 0.000000
C652  C     C_R   0.335373 0.675762 0.361394 0.000000
C653  C     C_R   0.325886 0.722662 0.410702 0.000000
C654  C     C_R   0.278956 0.735325 0.451515 0.000000
C655  C     C_R   0.242890 0.698398 0.444454 0.000000
C656  C     C_R   0.253348 0.649995 0.396519 0.000000
C657  C     C_R   0.266478 0.789717 0.498897 0.000000
N202  N     N_R   0.308664 0.821068 0.515161 0.000000
C658  C     C_R   0.285216 0.868365 0.528656 0.000000
C659  C     C_R   0.311662 0.911074 0.532958 0.000000
C660  C     C_R   0.285858 0.949742 0.529333 0.000000
N203  N     N_2   0.313736 0.991864 0.527223 0.000000
C661  C     C_R   0.232295 0.948100 0.529908 0.000000
C662  C     C_R   0.204845 0.906637 0.530099 0.000000
C663  C     C_R   0.232133 0.866765 0.528785 0.000000
N204  N     N_R   0.215543 0.818641 0.516007 0.000000
H551  H     H_    0.345721 0.580473 0.278919 0.000000
H552  H     H_    0.283619 0.562519 0.303559 0.000000
H553  H     H_    0.370579 0.668643 0.328128 0.000000
H554  H     H_    0.354376 0.750780 0.416905 0.000000
H555  H     H_    0.207406 0.707193 0.477325 0.000000
H556  H     H_    0.224450 0.621612 0.390799 0.000000
H557  H     H_    0.352590 0.912164 0.534826 0.000000
H558  H     H_    0.290273 0.025974 0.539893 0.000000
H559  H     H_    0.347411 0.997043 0.540929 0.000000
H560  H     H_    0.209985 0.981247 0.534926 0.000000
H561  H     H_    0.163928 0.904464 0.529903 0.000000
N205  N     N_2   0.648410 0.878410 0.613990 0.000000
C664  C     C_R   0.592595 0.887967 0.624277 0.000000
C665  C     C_R   0.564067 0.933664 0.669847 0.000000
C666  C     C_R   0.509164 0.940964 0.681882 0.000000
C667  C     C_R   0.483139 0.907569 0.644224 0.000000
C668  C     C_R   0.511774 0.862396 0.598295 0.000000
C669  C     C_R   0.565975 0.851493 0.589183 0.000000
C670  C     C_R   0.426218 0.921693 0.652961 0.000000
N206  N     N_R   0.398007 0.968913 0.700338 0.000000
C671  C     C_R   0.350515 0.965838 0.691149 0.000000
C672  C     C_R   0.306807 0.001539 0.725059 0.000000
C673  C     C_R   0.258255 0.982334 0.724803 0.000000
N207  N     N_2   0.211516 0.015642 0.762831 0.000000
C674  C     C_R   0.256184 0.931092 0.684463 0.000000
C675  C     C_R   0.301389 0.902047 0.642152 0.000000
C676  C     C_R   0.348305 0.919995 0.646075 0.000000
N208  N     N_R   0.395742 0.890746 0.616071 0.000000
H562  H     H_    0.666512 0.912293 0.633036 0.000000
H563  H     H_    0.668027 0.852274 0.573443 0.000000
H564  H     H_    0.584053 0.962386 0.698222 0.000000
H565  H     H_    0.486906 0.973194 0.720958 0.000000
H566  H     H_    0.491330 0.835520 0.569548 0.000000
H567  H     H_    0.587629 0.814991 0.553906 0.000000
H568  H     H_    0.310212 0.042914 0.750331 0.000000
H569  H     H_    0.191903 0.001128 0.788294 0.000000
H570  H     H_    0.218212 0.054868 0.784083 0.000000
H571  H     H_    0.218691 0.915576 0.683140 0.000000
H572  H     H_    0.303916 0.863458 0.609279 0.000000
N209  N     N_2   0.279949 0.669053 0.250197 0.000000
C677  C     C_R   0.251523 0.715635 0.297788 0.000000
C678  C     C_R   0.257209 0.764724 0.301718 0.000000
C679  C     C_R   0.224880 0.809707 0.345676 0.000000
C680  C     C_R   0.190724 0.806600 0.388588 0.000000
C681  C     C_R   0.194697 0.758974 0.389070 0.000000
C682  C     C_R   0.219076 0.712849 0.341624 0.000000
C683  C     C_R   0.142030 0.844247 0.425647 0.000000
N210  N     N_R   0.111540 0.868849 0.407235 0.000000
C684  C     C_R   0.061129 0.860488 0.428429 0.000000
C685  C     C_R   0.012712 0.877519 0.427286 0.000000
C686  C     C_R   0.966766 0.857646 0.444715 0.000000
N211  N     N_2   0.917324 0.871357 0.440090 0.000000
C687  C     C_R   0.969867 0.822528 0.464504 0.000000
C688  C     C_R   0.017785 0.811122 0.471228 0.000000
C689  C     C_R   0.061498 0.834302 0.457128 0.000000
N212  N     N_R   0.110661 0.828642 0.461606 0.000000
H573  H     H_    0.293241 0.673237 0.215543 0.000000
H574  H     H_    0.262751 0.634562 0.244540 0.000000
H575  H     H_    0.284636 0.766446 0.267873 0.000000
H576  H     H_    0.226043 0.847099 0.346567 0.000000
H577  H     H_    0.175476 0.755822 0.424984 0.000000
H578  H     H_    0.212858 0.674519 0.338852 0.000000
H579  H     H_    0.010135 0.907119 0.415006 0.000000
H580  H     H_    0.889629 0.844677 0.439177 0.000000
H581  H     H_    0.921029 0.884007 0.411457 0.000000
H582  H     H_    0.934959 0.804277 0.475146 0.000000
H583  H     H_    0.022301 0.780294 0.481425 0.000000
N213  N     N_2   0.871111 0.128729 0.536734 0.000000
C690  C     C_R   0.924226 0.109683 0.527163 0.000000
C691  C     C_R   0.948951 0.063154 0.479850 0.000000
C692  C     C_R   0.000424 0.044071 0.471935 0.000000
C693  C     C_R   0.026346 0.070335 0.512492 0.000000
C694  C     C_R   0.001858 0.117162 0.558667 0.000000
C695  C     C_R   0.951590 0.137523 0.565514 0.000000
C696  C     C_R   0.080688 0.050536 0.505563 0.000000
N214  N     N_R   0.110221 0.077870 0.544722 0.000000
C697  C     C_R   0.155085 0.044048 0.518826 0.000000
C698  C     C_R   0.204443 0.060652 0.517548 0.000000
C699  C     C_R   0.245736 0.027280 0.472724 0.000000
N215  N     N_2   0.291555 0.047801 0.456985 0.000000
C700  C     C_R   0.239339 0.976182 0.436400 0.000000
C701  C     C_R   0.190609 0.959794 0.439433 0.000000
C702  C     C_R   0.149841 0.997952 0.474007 0.000000
N216  N     N_R   0.106636 0.001590 0.459064 0.000000
H584  H     H_    0.857098 0.111562 0.502574 0.000000
H585  H     H_    0.862117 0.169468 0.561433 0.000000
H586  H     H_    0.928080 0.040973 0.449118 0.000000
H587  H     H_    0.019236 0.007718 0.434623 0.000000
H588  H     H_    0.024077 0.139768 0.587436 0.000000
H589  H     H_    0.933870 0.175536 0.600817 0.000000
H590  H     H_    0.207781 0.102184 0.541728 0.000000
H591  H     H_    0.305198 0.025885 0.415278 0.000000
H592  H     H_    0.283434 0.086767 0.468277 0.000000
H593  H     H_    0.268222 0.953142 0.398346 0.000000
H594  H     H_    0.185558 0.924247 0.405557 0.000000
N217  N     N_2   0.260988 0.148389 0.427754 0.000000
C703  C     C_R   0.246100 0.100243 0.390852 0.000000
C704  C     C_R   0.267636 0.078661 0.335084 0.000000
C705  C     C_R   0.265113 0.025501 0.302132 0.000000
C706  C     C_R   0.235305 0.998518 0.325423 0.000000
C707  C     C_R   0.198789 0.025940 0.375045 0.000000
C708  C     C_R   0.207121 0.076062 0.410372 0.000000
C709  C     C_R   0.240616 0.941677 0.297456 0.000000
N218  N     N_R   0.285934 0.911391 0.252913 0.000000
C710  C     C_R   0.269111 0.861620 0.237444 0.000000
C711  C     C_R   0.294797 0.812787 0.194799 0.000000
C712  C     C_R   0.268143 0.767450 0.182985 0.000000
N219  N     N_2   0.293536 0.717755 0.138015 0.000000
C713  C     C_R   0.215718 0.771144 0.213188 0.000000
C714  C     C_R   0.191042 0.819354 0.258002 0.000000
C715  C     C_R   0.218727 0.863536 0.270345 0.000000
N220  N     N_R   0.199724 0.913364 0.311821 0.000000
H595  H     H_    0.255072 0.154017 0.466749 0.000000
H596  H     H_    0.294775 0.160860 0.412112 0.000000
H597  H     H_    0.290542 0.101584 0.317982 0.000000
H598  H     H_    0.285858 0.004970 0.258927 0.000000
H599  H     H_    0.166181 0.006956 0.386234 0.000000
H600  H     H_    0.183963 0.096085 0.452793 0.000000
H601  H     H_    0.333146 0.809235 0.167886 0.000000
H602  H     H_    0.276688 0.685146 0.138993 0.000000
H603  H     H_    0.334778 0.714966 0.127456 0.000000
H604  H     H_    0.194638 0.735965 0.203204 0.000000
H605  H     H_    0.151055 0.822250 0.283028 0.000000
N221  N     N_2   0.570328 0.681846 0.097138 0.000000
C716  C     C_R   0.543588 0.721725 0.093809 0.000000
C717  C     C_R   0.532511 0.773181 0.136989 0.000000
C718  C     C_R   0.503191 0.811351 0.135130 0.000000
C719  C     C_R   0.486364 0.799942 0.089941 0.000000
C720  C     C_R   0.500259 0.748274 0.045285 0.000000
C721  C     C_R   0.527908 0.709539 0.047545 0.000000
C722  C     C_R   0.457652 0.841357 0.085763 0.000000
N222  N     N_R   0.408603 0.869060 0.126206 0.000000
C723  C     C_R   0.375813 0.850948 0.093001 0.000000
C724  C     C_R   0.322312 0.849954 0.109710 0.000000
C725  C     C_R   0.302815 0.803446 0.078600 0.000000
N223  N     N_2   0.248075 0.799225 0.089533 0.000000
C726  C     C_R   0.337715 0.759770 0.037462 0.000000
C727  C     C_R   0.387821 0.768122 0.014344 0.000000
C728  C     C_R   0.403540 0.818276 0.038839 0.000000
N224  N     N_R   0.455469 0.823212 0.031800 0.000000
H606  H     H_    0.567282 0.643525 0.068166 0.000000
H607  H     H_    0.562335 0.688044 0.136764 0.000000
H608  H     H_    0.545765 0.783886 0.173121 0.000000
H609  H     H_    0.494748 0.851384 0.168791 0.000000
H610  H     H_    0.490091 0.736101 0.007469 0.000000
H611  H     H_    0.537123 0.669579 0.012628 0.000000
H612  H     H_    0.298535 0.880206 0.149133 0.000000
H613  H     H_    0.234074 0.793513 0.122858 0.000000
H614  H     H_    0.227079 0.831703 0.094472 0.000000
H615  H     H_    0.323428 0.721059 0.017905 0.000000
H616  H     H_    0.414991 0.735102 0.979543 0.000000

loop_
_geom_bond_atom_site_label_1
_geom_bond_atom_site_label_2
_geom_bond_distance
_geom_bond_site_symmetry_2
_ccdc_geom_bond_type
Zn1   N2    2.206 .      S
Zn1   N18   2.301 .      S
Zn1   N148  2.359 .      S
Zn1   N182  2.285 .      S
Zn2   N8    2.292 .      S
Zn2   N22   2.294 .      S
Zn2   N150  2.122 .      S
Zn2   N170  2.254 .      S
Zn3   N6    2.283 .      S
Zn3   N162  2.312 .      S
Zn3   N204  2.309 .      S
Zn3   N212  2.128 .      S
Zn4   N4    2.189 .      S
Zn4   N166  2.174 .      S
Zn4   N194  2.222 .      S
Zn4   N214  2.303 .      S
Zn5   N10   2.292 .      S
Zn5   N16   2.233 .      S
Zn5   N98   2.236 1_556  S
Zn5   N120  2.321 .      S
Zn6   N14   2.117 1_655  S
Zn6   N20   2.177 1_655  S
Zn6   N24   2.195 1_655  S
Zn6   N128  2.261 .      S
Zn7   N28   2.153 .      S
Zn7   N130  2.194 .      S
Zn7   N140  2.226 .      S
Zn7   N224  2.269 1_556  S
Zn8   N122  2.255 .      S
Zn8   N144  2.197 .      S
Zn8   N198  2.114 .      S
Zn8   N206  2.199 1_545  S
Zn9   N12   2.273 .      S
Zn9   N26   2.269 .      S
Zn9   N176  2.214 .      S
Zn9   N186  2.158 .      S
Zn10  N30   2.092 .      S
Zn10  N34   2.248 .      S
Zn10  N38   2.409 .      S
Zn10  N44   2.276 .      S
Zn11  N32   2.142 .      S
Zn11  N48   2.261 1_655  S
Zn11  N52   2.222 1_655  S
Zn11  N54   2.168 .      S
Zn12  N36   2.208 1_565  S
Zn12  N60   2.243 .      S
Zn12  N62   2.076 .      S
Zn12  N68   2.240 .      S
Zn13  N40   2.317 .      S
Zn13  N72   2.189 .      S
Zn13  N74   2.189 .      S
Zn13  N78   2.243 .      S
Zn14  N42   2.244 1_556  S
Zn14  N82   2.178 .      S
Zn14  N88   2.242 1_545  S
Zn14  N90   2.186 .      S
Zn15  N56   2.232 1_565  S
Zn15  N64   2.156 .      S
Zn15  N96   2.238 1_655  S
Zn15  N100  2.292 1_655  S
Zn16  N66   2.237 .      S
Zn16  N102  2.238 .      S
Zn16  N106  2.232 1_565  S
Zn16  N110  2.172 .      S
Zn17  N46   2.412 1_556  S
Zn17  N114  2.287 .      S
Zn17  N118  2.334 1_545  S
Zn17  N124  2.327 .      S
Zn18  N58   2.258 1_556  S
Zn18  N86   2.216 .      S
Zn18  N126  2.278 .      S
Zn18  N132  2.167 .      S
Zn19  N84   2.163 .      S
Zn19  N136  2.209 1_556  S
Zn19  N138  2.207 1_545  S
Zn19  N142  2.130 .      S
Zn20  N50   2.266 .      S
Zn20  N146  2.252 .      S
Zn20  N152  2.171 .      S
Zn20  N154  2.243 .      S
Zn21  N70   2.219 .      S
Zn21  N134  2.305 .      S
Zn21  N156  2.287 .      S
Zn21  N158  2.403 .      S
Zn22  N92   2.291 .      S
Zn22  N116  2.111 1_655  S
Zn22  N164  2.187 1_645  S
Zn22  N168  2.136 1_655  S
Zn23  N76   2.282 .      S
Zn23  N172  2.266 .      S
Zn23  N174  2.216 .      S
Zn23  N180  2.157 .      S
Zn24  N80   2.295 .      S
Zn24  N184  2.216 .      S
Zn24  N188  2.128 .      S
Zn24  N190  2.231 .      S
Zn25  N108  2.311 .      S
Zn25  N192  2.185 .      S
Zn25  N196  2.248 .      S
Zn25  N200  2.119 .      S
Zn26  N112  2.179 .      S
Zn26  N178  2.225 .      S
Zn26  N202  2.337 .      S
Zn26  N208  2.311 .      S
Zn27  N94   2.259 .      S
Zn27  N210  2.214 .      S
Zn27  N216  2.284 1_565  S
Zn27  N220  2.311 .      S
Zn28  N104  2.253 .      S
Zn28  N160  2.409 1_565  S
Zn28  N218  2.347 .      S
Zn28  N222  2.289 .      S
N1    C1    1.383 .      S
N1    H1    1.025 .      S
N1    H2    1.028 .      S
C2    H3    1.079 1_455  S
C3    H4    1.079 .      S
C4    C7    1.423 .      S
C5    H5    1.077 .      S
C6    H6    1.077 .      S
C9    H7    1.064 .      S
C10   N3    1.408 1_455  S
N3    C10   1.408 1_655  S
N3    H8    1.029 .      S
N3    H9    1.020 .      S
C11   H10   1.080 .      S
C12   H11   1.050 .      S
H3    C2    1.079 1_655  S
N5    C14   1.409 .      S
N5    H12   1.028 .      S
N5    H13   1.029 .      S
C15   H14   1.079 .      S
C16   H15   1.080 .      S
C17   C20   1.456 .      S
C18   H16   1.064 .      S
C19   H17   1.078 .      S
C22   H18   1.069 .      S
C23   N7    1.410 .      S
N7    H19   1.029 .      S
N7    H20   1.029 .      S
C24   H21   1.081 .      S
C25   H22   1.058 .      S
N9    C27   1.396 .      S
N9    H23   1.028 .      S
N9    H24   1.025 .      S
C28   H25   1.072 .      S
C29   H26   1.071 .      S
C30   C33   1.461 .      S
C31   H27   1.064 .      S
C32   H28   1.081 .      S
C35   H29   1.053 .      S
C36   N11   1.408 .      S
N11   H30   1.029 .      S
N11   H31   1.024 .      S
C37   H32   1.079 .      S
C38   H33   1.074 .      S
N13   C40   1.391 .      S
N13   H34   1.022 .      S
N13   H35   1.015 .      S
C41   H36   1.066 .      S
C42   H37   1.071 .      S
C43   C46   1.396 .      S
C44   H38   1.075 .      S
C45   H39   1.063 .      S
N14   Zn6   2.117 1_455  S
C48   H40   1.077 .      S
C49   N15   1.410 1_455  S
N15   C49   1.410 1_655  S
N15   H41   1.028 .      S
N15   H42   1.029 .      S
C50   H43   1.081 1_556  S
C51   H44   1.062 1_556  S
H43   C50   1.081 1_554  S
H44   C51   1.062 1_554  S
N17   C53   1.404 .      S
N17   H45   1.029 .      S
N17   H46   1.021 .      S
C54   H47   1.079 .      S
C55   H48   1.070 .      S
C56   C59   1.473 .      S
C57   H49   1.069 .      S
C58   H50   1.074 .      S
C61   H51   1.076 .      S
C62   N19   1.409 .      S
N19   H52   1.029 .      S
N19   H53   1.029 .      S
C63   H54   1.081 .      S
C64   H55   1.074 .      S
N20   Zn6   2.177 1_455  S
N21   C66   1.411 .      S
N21   H56   1.028 .      S
N21   H57   1.029 .      S
C67   H58   1.071 .      S
C68   H59   1.071 .      S
C69   C72   1.493 .      S
C70   H60   1.052 .      S
C71   H61   1.080 .      S
C74   H62   1.065 .      S
C75   N23   1.410 .      S
N23   H63   1.029 .      S
N23   H64   1.029 .      S
C76   H65   1.080 .      S
C77   H66   1.071 .      S
N24   Zn6   2.195 1_455  S
N25   C79   1.389 1_554  S
N25   H67   1.020 .      S
N25   H68   1.016 .      S
C79   N25   1.389 1_556  S
C80   H69   1.076 .      S
C81   H70   1.077 .      S
C82   C85   1.412 .      S
C83   H71   1.061 .      S
C84   H72   1.069 .      S
C87   H73   1.064 .      S
C88   N27   1.410 .      S
N27   H74   1.029 .      S
N27   H75   1.029 .      S
C89   H76   1.081 .      S
C90   H77   1.075 .      S
N29   C92   1.410 .      S
N29   H78   1.029 .      S
N29   H79   1.029 .      S
C93   H80   1.078 .      S
C94   H81   1.072 .      S
C95   C98   1.472 .      S
C96   H82   1.063 .      S
C97   H83   1.076 .      S
C100  H84   1.073 .      S
C101  N31   1.408 .      S
N31   H85   1.029 .      S
N31   H86   1.026 .      S
C102  H87   1.081 .      S
C103  H88   1.078 .      S
N33   C105  1.405 .      S
N33   H89   1.028 .      S
N33   H90   1.029 .      S
C106  H91   1.061 .      S
C107  H92   1.074 .      S
C108  C111  1.440 .      S
C109  H93   1.080 .      S
C110  H94   1.081 .      S
C113  H95   1.065 .      S
C114  N35   1.371 .      S
N35   H96   1.009 .      S
N35   H97   1.024 .      S
C115  H98   1.059 .      S
C116  H99   1.079 1_545  S
N36   Zn12  2.208 1_545  S
H99   C116  1.079 1_565  S
N37   C118  1.410 .      S
N37   H100  1.029 .      S
N37   H101  1.029 .      S
C119  H102  1.079 .      S
C120  H103  1.078 .      S
C121  C124  1.481 .      S
C122  H104  1.068 .      S
C123  H105  1.079 .      S
C126  H106  1.073 .      S
C127  N39   1.408 .      S
N39   H107  1.029 .      S
N39   H108  1.027 .      S
C128  H109  1.076 .      S
C129  H110  1.074 .      S
N41   C131  1.389 .      S
N41   H111  1.022 .      S
N41   H112  1.017 1_545  S
C132  H113  1.080 .      S
C133  H114  1.068 .      S
C134  C137  1.447 .      S
C135  H115  1.061 1_545  S
C136  H116  1.075 1_545  S
N42   Zn14  2.244 1_554  S
C139  H117  1.066 1_554  S
C140  N43   1.410 .      S
N43   H118  1.029 .      S
N43   H119  1.029 1_554  S
C141  H120  1.076 .      S
C142  H121  1.069 .      S
H112  N41   1.017 1_565  S
H115  C135  1.061 1_565  S
H116  C136  1.075 1_565  S
H117  C139  1.066 1_556  S
H119  N43   1.029 1_556  S
N45   C144  1.411 .      S
N45   H122  1.028 .      S
N45   H123  1.029 .      S
C145  H124  1.073 .      S
C146  H125  1.069 .      S
C147  C150  1.499 .      S
C148  H126  1.067 .      S
C149  H127  1.081 .      S
N46   Zn17  2.412 1_554  S
C152  H128  1.051 .      S
C153  N47   1.398 .      S
N47   H129  1.025 .      S
N47   H130  1.029 .      S
C154  H131  1.081 .      S
C155  H132  1.075 .      S
N48   Zn11  2.261 1_455  S
N49   C157  1.397 .      S
N49   H133  1.023 .      S
N49   H134  1.027 .      S
C158  H135  1.073 .      S
C159  H136  1.076 .      S
C160  C163  1.429 .      S
C161  H137  1.074 .      S
C162  H138  1.074 .      S
C165  H139  1.058 1_655  S
C166  N51   1.409 .      S
N51   H140  1.029 .      S
N51   H141  1.023 .      S
C167  H142  1.079 .      S
C168  H143  1.050 .      S
N52   Zn11  2.222 1_455  S
H139  C165  1.058 1_455  S
N53   C170  1.403 1_556  S
N53   H144  1.028 .      S
N53   H145  1.027 .      S
C170  N53   1.403 1_554  S
C171  H146  1.057 .      S
C172  H147  1.067 .      S
C173  C176  1.442 1_455  S
C174  H148  1.067 .      S
C175  H149  1.047 .      S
C176  C173  1.442 1_655  S
C178  H150  1.075 .      S
C179  N55   1.412 .      S
N55   H151  1.029 .      S
N55   H152  1.029 .      S
C180  H153  1.076 .      S
C181  H154  1.062 .      S
N56   Zn15  2.232 1_545  S
N57   C183  1.401 .      S
N57   H155  1.023 .      S
N57   H156  1.026 .      S
C184  H157  1.042 1_565  S
C185  H158  1.063 .      S
C186  C189  1.406 .      S
C187  H159  1.067 .      S
C188  H160  1.060 .      S
N58   Zn18  2.258 1_554  S
C191  H161  1.080 1_554  S
C192  N59   1.411 .      S
N59   H162  1.029 .      S
N59   H163  1.028 .      S
C193  H164  1.081 .      S
C194  H165  1.078 .      S
H157  C184  1.042 1_545  S
H161  C191  1.080 1_556  S
N61   C196  1.410 .      S
N61   H166  1.029 .      S
N61   H167  1.029 .      S
C197  H168  1.080 .      S
C198  H169  1.070 .      S
C199  C202  1.466 .      S
C200  H170  1.079 .      S
C201  H171  1.077 .      S
C204  H172  1.049 .      S
C205  N63   1.391 1_565  S
N63   C205  1.391 1_545  S
N63   H173  1.029 .      S
N63   H174  1.024 .      S
C206  H175  1.051 .      S
C207  H176  1.052 .      S
N65   C209  1.409 .      S
N65   H177  1.029 .      S
N65   H178  1.028 .      S
C210  H179  1.077 .      S
C211  H180  1.073 .      S
C212  C215  1.459 .      S
C213  H181  1.064 .      S
C214  H182  1.080 .      S
C217  H183  1.076 .      S
C218  N67   1.408 .      S
N67   H184  1.029 .      S
N67   H185  1.027 .      S
C219  H186  1.073 .      S
C220  H187  1.077 1_545  S
H187  C220  1.077 1_565  S
N69   C222  1.387 .      S
N69   H188  1.016 .      S
N69   H189  1.025 .      S
C223  H190  1.062 .      S
C224  H191  1.065 .      S
C225  C228  1.429 .      S
C226  H192  1.058 .      S
C227  H193  1.065 .      S
C230  H194  1.077 .      S
C231  N71   1.410 .      S
N71   H195  1.029 .      S
N71   H196  1.029 .      S
C232  H197  1.081 .      S
C233  H198  1.072 .      S
N73   C235  1.401 .      S
N73   H199  1.024 .      S
N73   H200  1.023 .      S
C236  H201  1.040 .      S
C237  H202  1.054 .      S
C238  C241  1.422 .      S
C239  H203  1.077 .      S
C240  H204  1.047 .      S
C243  H205  1.080 .      S
C244  N75   1.409 .      S
N75   H206  1.029 .      S
N75   H207  1.027 .      S
C245  H208  1.081 .      S
C246  H209  1.071 .      S
N77   C248  1.410 .      S
N77   H210  1.029 .      S
N77   H211  1.028 .      S
C249  H212  1.079 .      S
C250  H213  1.073 .      S
C251  C254  1.469 .      S
C252  H214  1.069 .      S
C253  H215  1.076 .      S
C256  H216  1.072 .      S
C257  N79   1.408 .      S
N79   H217  1.028 .      S
N79   H218  1.029 .      S
C258  H219  1.079 .      S
C259  H220  1.037 .      S
N81   C261  1.410 .      S
N81   H221  1.029 .      S
N81   H222  1.029 .      S
C262  H223  1.076 .      S
C263  H224  1.074 .      S
C264  C267  1.473 .      S
C265  H225  1.070 .      S
C266  H226  1.081 .      S
C269  H227  1.027 .      S
C270  N83   1.394 .      S
N83   H228  1.017 1_554  S
N83   H229  1.017 1_554  S
C271  H230  1.050 .      S
C272  H231  1.057 .      S
H228  N83   1.017 1_556  S
H229  N83   1.017 1_556  S
N85   C274  1.409 .      S
N85   H232  1.023 .      S
N85   H233  1.029 .      S
C275  H234  1.070 .      S
C276  H235  1.067 .      S
C277  C280  1.475 .      S
C278  H236  1.076 .      S
C279  H237  1.077 .      S
C282  H238  1.069 .      S
C283  N87   1.404 .      S
N87   H239  1.026 1_655  S
N87   H240  1.028 .      S
C284  H241  1.073 .      S
C285  H242  1.073 .      S
N88   Zn14  2.242 1_565  S
H239  N87   1.026 1_455  S
N89   C287  1.410 .      S
N89   H243  1.029 1_556  S
N89   H244  1.029 .      S
C288  H245  1.079 1_556  S
C289  H246  1.060 .      S
C290  C293  1.475 .      S
C291  H247  1.060 .      S
C292  H248  1.081 .      S
C295  H249  1.077 .      S
C296  N91   1.406 .      S
N91   H250  1.029 .      S
N91   H251  1.027 .      S
C297  H252  1.081 .      S
C298  H253  1.047 .      S
H243  N89   1.029 1_554  S
H245  C288  1.079 1_554  S
N93   C300  1.377 .      S
N93   H254  1.018 .      S
N93   H255  1.027 .      S
C301  H256  1.056 .      S
C302  H257  1.074 .      S
C303  C306  1.387 .      S
C304  H258  1.070 1_565  S
C305  H259  1.055 .      S
C308  H260  1.077 .      S
C309  N95   1.410 .      S
N95   H261  1.029 .      S
N95   H262  1.029 1_655  S
C310  H263  1.081 .      S
C311  H264  1.077 .      S
N96   Zn15  2.238 1_455  S
H258  C304  1.070 1_545  S
H262  N95   1.029 1_455  S
N97   C313  1.386 .      S
N97   H265  1.027 1_554  S
N97   H266  1.017 .      S
C314  H267  1.075 .      S
C315  H268  1.069 .      S
C316  C319  1.446 .      S
C317  H269  1.081 .      S
C318  H270  1.079 .      S
N98   Zn5   2.236 1_554  S
C321  H271  1.062 .      S
C322  N99   1.411 .      S
N99   H272  1.028 .      S
N99   H273  1.029 .      S
C323  H274  1.081 .      S
C324  H275  1.043 .      S
N100  Zn15  2.292 1_455  S
H265  N97   1.027 1_556  S
N101  C326  1.390 .      S
N101  H276  1.022 .      S
N101  H277  1.019 .      S
C327  H278  1.034 .      S
C328  H279  1.049 .      S
C329  C332  1.427 1_545  S
C330  H280  1.064 .      S
C331  H281  1.061 .      S
C332  C329  1.427 1_565  S
C334  H282  1.073 .      S
C335  N103  1.405 .      S
N103  H283  1.029 .      S
N103  H284  1.026 .      S
C336  H285  1.081 .      S
C337  H286  1.059 .      S
N105  C339  1.406 .      S
N105  H287  1.026 .      S
N105  H288  1.029 .      S
C340  H289  1.079 .      S
C341  H290  1.078 .      S
C342  C345  1.442 .      S
C343  H291  1.077 .      S
C344  H292  1.060 .      S
N106  Zn16  2.232 1_545  S
C347  H293  1.068 .      S
C348  N107  1.406 .      S
N107  H294  1.025 .      S
N107  H295  1.028 .      S
C349  H296  1.064 .      S
C350  H297  1.055 .      S
N109  C352  1.396 .      S
N109  H298  1.017 .      S
N109  H299  1.025 .      S
C353  H300  1.061 .      S
C354  H301  1.070 .      S
C355  C358  1.411 .      S
C356  H302  1.075 .      S
C357  H303  1.079 .      S
C360  H304  1.080 .      S
C361  N111  1.408 .      S
N111  H305  1.029 .      S
N111  H306  1.027 .      S
C362  H307  1.081 .      S
C363  H308  1.078 .      S
N113  C365  1.375 .      S
N113  H309  1.025 .      S
N113  H310  1.007 .      S
C366  H311  1.075 .      S
C367  H312  1.075 .      S
C368  C371  1.407 1_565  S
C369  H313  1.073 .      S
C370  H314  1.076 .      S
C371  C368  1.407 1_545  S
C373  H315  1.042 .      S
C374  N115  1.406 .      S
N115  H316  1.028 .      S
N115  H317  1.028 .      S
C375  H318  1.080 .      S
C376  H319  1.074 .      S
N116  Zn22  2.111 1_455  S
N117  C378  1.382 .      S
N117  H320  1.018 .      S
N117  H321  1.025 1_545  S
C379  H322  1.066 .      S
C380  H323  1.059 .      S
C381  C384  1.422 1_554  S
C382  H324  1.066 .      S
C383  H325  1.079 .      S
C384  C381  1.422 1_556  S
N118  Zn17  2.334 1_565  S
C386  H326  1.077 .      S
C387  N119  1.375 .      S
N119  H327  1.020 .      S
N119  H328  1.024 .      S
C388  H329  1.072 .      S
C389  H330  1.067 .      S
H321  N117  1.025 1_565  S
N121  C391  1.403 .      S
N121  H331  1.019 .      S
N121  H332  1.028 .      S
C392  H333  1.081 .      S
C393  H334  1.059 .      S
C394  C397  1.466 1_565  S
C395  H335  1.063 .      S
C396  H336  1.076 .      S
C397  C394  1.466 1_545  S
C399  H337  1.075 .      S
C400  N123  1.408 .      S
N123  H338  1.028 .      S
N123  H339  1.029 .      S
C401  H340  1.081 .      S
C402  H341  1.053 .      S
N125  C404  1.411 .      S
N125  H342  1.029 .      S
N125  H343  1.029 .      S
C405  H344  1.081 .      S
C406  H345  1.078 .      S
C407  C410  1.458 .      S
C408  H346  1.063 .      S
C409  H347  1.077 .      S
C412  H348  1.076 .      S
C413  N127  1.410 .      S
N127  H349  1.029 .      S
N127  H350  1.029 .      S
C414  H351  1.081 .      S
C415  H352  1.059 .      S
N129  C417  1.410 .      S
N129  H353  1.028 .      S
N129  H354  1.029 .      S
C418  H355  1.074 .      S
C419  H356  1.072 .      S
C420  C423  1.462 .      S
C421  H357  1.077 .      S
C422  H358  1.080 .      S
C425  H359  1.048 .      S
C426  N131  1.411 .      S
N131  H360  1.029 .      S
N131  H361  1.021 .      S
C427  H362  1.054 .      S
C428  H363  1.058 .      S
N133  C430  1.383 .      S
N133  H364  1.015 .      S
N133  H365  1.009 .      S
C431  H366  1.069 .      S
C432  H367  1.071 .      S
C433  C436  1.415 .      S
C434  H368  1.077 .      S
C435  H369  1.070 .      S
C438  H370  1.061 .      S
C439  N135  1.407 .      S
N135  H371  1.029 .      S
N135  H372  1.024 .      S
C440  H373  1.081 1_554  S
C441  H374  1.060 .      S
N136  Zn19  2.209 1_554  S
H373  C440  1.081 1_556  S
N137  C443  1.389 .      S
N137  H375  1.024 .      S
N137  H376  1.019 .      S
C444  H377  1.052 .      S
C445  H378  1.076 .      S
C446  C449  1.431 1_554  S
C447  H379  1.040 .      S
C448  H380  1.066 .      S
C449  C446  1.431 1_556  S
N138  Zn19  2.207 1_565  S
C451  H381  1.067 .      S
C452  N139  1.398 .      S
N139  H382  1.028 .      S
N139  H383  1.022 .      S
C453  H384  1.074 .      S
C454  H385  1.076 .      S
N141  C456  1.396 .      S
N141  H386  1.026 1_545  S
N141  H387  1.019 .      S
C457  H388  1.067 .      S
C458  H389  1.063 1_545  S
C459  C462  1.415 .      S
C460  H390  1.077 .      S
C461  H391  1.068 .      S
C464  H392  1.078 .      S
C465  N143  1.410 .      S
N143  H393  1.029 .      S
N143  H394  1.029 .      S
C466  H395  1.081 .      S
C467  H396  1.069 .      S
H386  N141  1.026 1_565  S
H389  C458  1.063 1_565  S
N145  C469  1.410 .      S
N145  H397  1.029 .      S
N145  H398  1.028 .      S
C470  H399  1.081 .      S
C471  H400  1.076 .      S
C472  C475  1.459 .      S
C473  H401  1.078 .      S
C474  H402  1.081 .      S
C477  H403  1.032 .      S
C478  N147  1.379 .      S
N147  H404  1.009 .      S
N147  H405  1.027 .      S
C479  H406  1.066 .      S
C480  H407  1.042 .      S
N149  C482  1.408 .      S
N149  H408  1.026 .      S
N149  H409  1.029 .      S
C483  H410  1.073 .      S
C484  H411  1.070 .      S
C485  C488  1.482 .      S
C486  H412  1.055 .      S
C487  H413  1.077 .      S
C490  H414  1.072 .      S
C491  N151  1.409 1_455  S
N151  C491  1.409 1_655  S
N151  H415  1.029 .      S
N151  H416  1.029 .      S
C492  H417  1.081 .      S
C493  H418  1.081 .      S
N153  C495  1.392 .      S
N153  H419  1.014 .      S
N153  H420  1.015 .      S
C496  H421  1.080 .      S
C497  H422  1.060 .      S
C498  C501  1.444 .      S
C499  H423  1.064 .      S
C500  H424  1.072 .      S
C503  H425  1.080 .      S
C504  N155  1.410 .      S
N155  H426  1.029 .      S
N155  H427  1.029 .      S
C505  H428  1.081 .      S
C506  H429  1.048 .      S
N157  C508  1.388 .      S
N157  H430  1.018 1_565  S
N157  H431  1.014 .      S
C509  H432  1.065 .      S
C510  H433  1.075 .      S
C511  C514  1.427 .      S
C512  H434  1.069 .      S
C513  H435  1.062 .      S
C516  H436  1.054 .      S
C517  N159  1.406 .      S
N159  H437  1.018 .      S
N159  H438  1.021 .      S
C518  H439  1.081 .      S
C519  H440  1.074 1_545  S
N160  Zn28  2.409 1_545  S
H430  N157  1.018 1_545  S
H440  C519  1.074 1_565  S
N161  C521  1.408 .      S
N161  H441  1.029 1_565  S
N161  H442  1.026 .      S
C522  H443  1.060 .      S
C523  H444  1.064 .      S
C524  C527  1.481 .      S
C525  H445  1.059 1_565  S
C526  H446  1.079 .      S
C529  H447  1.052 .      S
C530  N163  1.411 .      S
N163  H448  1.029 .      S
N163  H449  1.029 .      S
C531  H450  1.081 .      S
C532  H451  1.077 .      S
N164  Zn22  2.187 1_465  S
H441  N161  1.029 1_545  S
H445  C525  1.059 1_545  S
N165  C534  1.407 .      S
N165  H452  1.020 .      S
N165  H453  1.029 .      S
C535  H454  1.080 .      S
C536  H455  1.079 .      S
C537  C540  1.466 .      S
C538  H456  1.072 .      S
C539  H457  1.079 .      S
C542  H458  1.077 .      S
C543  N167  1.409 .      S
N167  H459  1.029 .      S
N167  H460  1.029 .      S
C544  H461  1.081 .      S
C545  H462  1.072 .      S
N168  Zn22  2.136 1_455  S
N169  C547  1.380 .      S
N169  H463  1.016 .      S
N169  H464  1.015 .      S
C548  H465  1.067 .      S
C549  H466  1.061 .      S
C550  C553  1.398 .      S
C551  H467  1.076 .      S
C552  H468  1.059 .      S
C555  H469  1.082 .      S
C556  N171  1.376 .      S
N171  H470  1.017 .      S
N171  H471  1.014 .      S
C557  H472  1.081 .      S
C558  H473  1.072 .      S
N173  C560  1.405 .      S
N173  H474  1.029 .      S
N173  H475  1.027 .      S
C561  H476  1.078 .      S
C562  H477  1.071 .      S
C563  C566  1.452 .      S
C564  H478  1.081 .      S
C565  H479  1.071 .      S
C568  H480  1.056 .      S
C569  N175  1.384 .      S
N175  H481  1.026 .      S
N175  H482  1.016 .      S
C570  H483  1.071 .      S
C571  H484  1.027 .      S
N177  C573  1.411 .      S
N177  H485  1.022 .      S
N177  H486  1.029 .      S
C574  H487  1.076 .      S
C575  H488  1.077 .      S
C576  C579  1.475 .      S
C577  H489  1.072 .      S
C578  H490  1.081 .      S
C581  H491  1.069 .      S
C582  N179  1.405 .      S
N179  H492  1.029 .      S
N179  H493  1.024 .      S
C583  H494  1.081 .      S
C584  H495  1.077 .      S
N181  C586  1.390 .      S
N181  H496  1.018 .      S
N181  H497  1.025 .      S
C587  H498  1.075 .      S
C588  H499  1.063 .      S
C589  C592  1.432 .      S
C590  H500  1.073 .      S
C591  H501  1.062 .      S
C594  H502  1.054 .      S
C595  N183  1.397 .      S
N183  H503  1.020 .      S
N183  H504  1.024 .      S
C596  H505  1.071 .      S
C597  H506  1.076 .      S
N185  C599  1.410 .      S
N185  H507  1.029 .      S
N185  H508  1.028 .      S
C600  H509  1.081 .      S
C601  H510  1.068 .      S
C602  C605  1.470 .      S
C603  H511  1.064 .      S
C604  H512  1.067 .      S
C607  H513  1.066 .      S
C608  N187  1.410 .      S
N187  H514  1.029 .      S
N187  H515  1.027 .      S
C609  H516  1.081 .      S
C610  H517  1.060 .      S
N189  C612  1.410 .      S
N189  H518  1.029 .      S
N189  H519  1.029 .      S
C613  H520  1.081 .      S
C614  H521  1.073 .      S
C615  C618  1.510 .      S
C616  H522  1.065 .      S
C617  H523  1.081 .      S
C620  H524  1.071 .      S
C621  N191  1.409 .      S
N191  H525  1.028 .      S
N191  H526  1.029 .      S
C622  H527  1.074 .      S
C623  H528  1.065 .      S
N193  C625  1.406 .      S
N193  H529  1.028 .      S
N193  H530  1.028 .      S
C626  H531  1.077 .      S
C627  H532  1.077 .      S
C628  C631  1.463 .      S
C629  H533  1.068 .      S
C630  H534  1.079 .      S
C633  H535  1.074 .      S
C634  N195  1.398 1_545  S
N195  C634  1.398 1_565  S
N195  H536  1.019 .      S
N195  H537  1.026 .      S
C635  H538  1.060 1_545  S
C636  H539  1.075 .      S
H538  C635  1.060 1_565  S
N197  C638  1.410 .      S
N197  H540  1.029 .      S
N197  H541  1.029 .      S
C639  H542  1.081 .      S
C640  H543  1.074 .      S
C641  C644  1.448 .      S
C642  H544  1.076 .      S
C643  H545  1.064 .      S
C646  H546  1.064 .      S
C647  N199  1.408 .      S
N199  H547  1.029 .      S
N199  H548  1.027 .      S
C648  H549  1.081 .      S
C649  H550  1.065 .      S
N201  C651  1.410 .      S
N201  H551  1.029 .      S
N201  H552  1.028 .      S
C652  H553  1.079 .      S
C653  H554  1.059 .      S
C654  C657  1.469 .      S
C655  H555  1.068 .      S
C656  H556  1.072 .      S
C659  H557  1.076 .      S
C660  N203  1.406 .      S
N203  H558  1.020 1_565  S
N203  H559  1.027 .      S
C661  H560  1.057 .      S
C662  H561  1.063 .      S
H558  N203  1.020 1_545  S
N205  C664  1.410 .      S
N205  H562  1.029 .      S
N205  H563  1.029 .      S
C665  H564  1.077 .      S
C666  H565  1.073 .      S
C667  C670  1.469 .      S
C668  H566  1.072 .      S
C669  H567  1.079 .      S
N206  Zn8   2.199 1_565  S
C672  H568  1.069 .      S
C673  N207  1.402 1_565  S
N207  C673  1.402 1_545  S
N207  H569  1.026 .      S
N207  H570  1.026 .      S
C674  H571  1.059 .      S
C675  H572  1.045 .      S
N209  C677  1.410 .      S
N209  H573  1.028 .      S
N209  H574  1.029 .      S
C678  H575  1.068 .      S
C679  H576  1.059 .      S
C680  C683  1.478 .      S
C681  H577  1.068 .      S
C682  H578  1.072 .      S
C685  H579  1.072 .      S
C686  N211  1.410 .      S
N211  H580  1.029 .      S
N211  H581  1.029 .      S
C687  H582  1.081 .      S
C688  H583  1.072 .      S
N213  C690  1.407 .      S
N213  H584  1.024 .      S
N213  H585  1.029 .      S
C691  H586  1.079 .      S
C692  H587  1.079 .      S
C693  C696  1.465 .      S
C694  H588  1.070 .      S
C695  H589  1.076 .      S
C698  H590  1.067 .      S
C699  N215  1.378 .      S
N215  H591  1.014 .      S
N215  H592  1.014 .      S
C700  H593  1.053 .      S
C701  H594  1.054 .      S
N216  Zn27  2.284 1_545  S
N217  C703  1.398 .      S
N217  H595  1.021 .      S
N217  H596  1.014 .      S
C704  H597  1.077 .      S
C705  H598  1.073 .      S
C706  C709  1.421 .      S
C707  H599  1.055 .      S
C708  H600  1.072 .      S
C711  H601  1.064 .      S
C712  N219  1.410 .      S
N219  H602  1.029 .      S
N219  H603  1.029 .      S
C713  H604  1.081 .      S
C714  H605  1.079 .      S
N221  C716  1.408 .      S
N221  H606  1.029 .      S
N221  H607  1.028 .      S
C717  H608  1.078 .      S
C718  H609  1.069 .      S
C719  C722  1.488 .      S
C720  H610  1.072 .      S
C721  H611  1.081 .      S
C724  H612  1.071 .      S
C725  N223  1.388 .      S
N223  H613  1.020 .      S
N223  H614  1.023 .      S
C726  H615  1.081 .      S
C727  H616  1.079 1_554  S
N224  Zn7   2.269 1_554  S
H616  C727  1.079 1_556  S
C1    C2    1.369 .      A
C1    C6    1.360 .      A
C2    C3    1.366 .      A
C3    C4    1.377 .      A
C4    C5    1.361 .      A
C5    C6    1.359 .      A
C7    N2    1.396 .      A
C7    N4    1.389 .      A
N2    C8    1.354 .      A
C8    C9    1.377 .      A
C8    C13   1.366 .      A
C9    C10   1.394 .      A
C10   C11   1.377 .      A
C11   C12   1.371 .      A
C12   C13   1.351 .      A
C13   N4    1.341 .      A
C14   C15   1.379 .      A
C14   C19   1.373 .      A
C15   C16   1.374 1_655  A
C16   C15   1.374 1_455  A
C16   C17   1.378 .      A
C17   C18   1.369 .      A
C18   C19   1.378 1_455  A
C19   C18   1.378 1_655  A
C20   N6    1.414 .      A
C20   N8    1.407 .      A
N6    C21   1.350 .      A
C21   C22   1.376 .      A
C21   C26   1.376 .      A
C22   C23   1.379 .      A
C23   C24   1.380 .      A
C24   C25   1.380 .      A
C25   C26   1.380 .      A
C26   N8    1.364 .      A
C27   C28   1.384 .      A
C27   C32   1.357 .      A
C28   C29   1.376 .      A
C29   C30   1.370 .      A
C30   C31   1.381 .      A
C31   C32   1.352 .      A
C33   N10   1.414 .      A
C33   N12   1.415 .      A
N10   C34   1.361 .      A
C34   C35   1.357 .      A
C34   C39   1.375 .      A
C35   C36   1.381 .      A
C36   C37   1.385 .      A
C37   C38   1.379 .      A
C38   C39   1.362 .      A
C39   N12   1.333 .      A
C40   C41   1.361 .      A
C40   C45   1.368 .      A
C41   C42   1.363 .      A
C42   C43   1.368 .      A
C43   C44   1.354 .      A
C44   C45   1.337 .      A
C46   N14   1.380 .      A
C46   N16   1.397 .      A
N14   C47   1.336 .      A
C47   C48   1.372 1_455  A
C47   C52   1.368 .      A
C48   C47   1.372 1_655  A
C48   C49   1.383 1_655  A
C49   C48   1.383 1_455  A
C49   C50   1.384 .      A
C50   C51   1.380 .      A
C51   C52   1.376 .      A
C52   N16   1.365 .      A
C53   C54   1.358 .      A
C53   C58   1.383 .      A
C54   C55   1.363 .      A
C55   C56   1.378 .      A
C56   C57   1.378 .      A
C57   C58   1.379 .      A
C59   N18   1.410 .      A
C59   N20   1.399 .      A
N18   C60   1.361 .      A
C60   C61   1.375 1_455  A
C60   C65   1.374 1_455  A
C61   C60   1.375 1_655  A
C61   C62   1.387 .      A
C62   C63   1.392 .      A
C63   C64   1.383 .      A
C64   C65   1.368 .      A
C65   C60   1.374 1_655  A
C65   N20   1.345 1_655  A
N20   C65   1.345 1_455  A
C66   C67   1.370 1_655  A
C66   C71   1.349 .      A
C67   C66   1.370 1_455  A
C67   C68   1.397 .      A
C68   C69   1.364 .      A
C69   C70   1.393 1_455  A
C70   C69   1.393 1_655  A
C70   C71   1.369 .      A
C72   N22   1.411 .      A
C72   N24   1.399 .      A
N22   C73   1.345 .      A
C73   C74   1.377 1_455  A
C73   C78   1.387 1_455  A
C74   C73   1.377 1_655  A
C74   C75   1.388 .      A
C75   C76   1.387 .      A
C76   C77   1.380 .      A
C77   C78   1.371 .      A
C78   C73   1.387 1_655  A
C78   N24   1.343 1_655  A
N24   C78   1.343 1_455  A
C79   C80   1.359 .      A
C79   C84   1.376 .      A
C80   C81   1.356 .      A
C81   C82   1.368 .      A
C82   C83   1.351 .      A
C83   C84   1.354 .      A
C85   N26   1.389 .      A
C85   N28   1.393 .      A
N26   C86   1.362 .      A
C86   C87   1.369 .      A
C86   C91   1.370 .      A
C87   C88   1.384 .      A
C88   C89   1.387 .      A
C89   C90   1.381 .      A
C90   C91   1.373 .      A
C91   N28   1.338 .      A
C92   C93   1.366 .      A
C92   C97   1.366 .      A
C93   C94   1.380 .      A
C94   C95   1.379 .      A
C95   C96   1.364 .      A
C96   C97   1.377 .      A
C98   N30   1.380 .      A
C98   N32   1.395 .      A
N30   C99   1.346 .      A
C99   C100  1.372 .      A
C99   C104  1.364 .      A
C100  C101  1.388 .      A
C101  C102  1.389 .      A
C102  C103  1.381 .      A
C103  C104  1.374 .      A
C104  N32   1.344 .      A
C105  C106  1.374 .      A
C105  C110  1.372 .      A
C106  C107  1.367 .      A
C107  C108  1.363 .      A
C108  C109  1.384 .      A
C109  C110  1.372 .      A
C111  N34   1.412 .      A
C111  N36   1.398 .      A
N34   C112  1.317 .      A
C112  C113  1.319 .      A
C112  C117  1.361 .      A
C113  C114  1.339 .      A
C114  C115  1.384 .      A
C115  C116  1.362 .      A
C116  C117  1.348 .      A
C117  N36   1.319 .      A
C118  C119  1.373 .      A
C118  C123  1.373 .      A
C119  C120  1.379 .      A
C120  C121  1.386 .      A
C121  C122  1.376 .      A
C122  C123  1.379 .      A
C124  N38   1.432 .      A
C124  N40   1.418 .      A
N38   C125  1.355 .      A
C125  C126  1.372 .      A
C125  C130  1.386 .      A
C126  C127  1.384 .      A
C127  C128  1.382 .      A
C128  C129  1.380 .      A
C129  C130  1.364 .      A
C130  N40   1.342 .      A
C131  C132  1.354 .      A
C131  C136  1.360 .      A
C132  C133  1.373 1_556  A
C133  C132  1.373 1_554  A
C133  C134  1.360 .      A
C134  C135  1.378 .      A
C135  C136  1.357 1_554  A
C136  C135  1.357 1_556  A
C137  N42   1.402 .      A
C137  N44   1.415 .      A
N42   C138  1.345 .      A
C138  C139  1.365 .      A
C138  C143  1.374 .      A
C139  C140  1.382 .      A
C140  C141  1.388 .      A
C141  C142  1.385 .      A
C142  C143  1.369 .      A
C143  N44   1.352 .      A
C144  C145  1.366 .      A
C144  C149  1.363 1_655  A
C145  C146  1.390 .      A
C146  C147  1.369 1_655  A
C147  C146  1.369 1_455  A
C147  C148  1.394 .      A
C148  C149  1.373 .      A
C149  C144  1.363 1_455  A
C150  N46   1.426 .      A
C150  N48   1.404 .      A
N46   C151  1.366 .      A
C151  C152  1.363 .      A
C151  C156  1.390 .      A
C152  C153  1.380 .      A
C153  C154  1.372 .      A
C154  C155  1.372 .      A
C155  C156  1.372 .      A
C156  N48   1.328 .      A
C157  C158  1.369 .      A
C157  C162  1.368 .      A
C158  C159  1.367 .      A
C159  C160  1.360 .      A
C160  C161  1.364 .      A
C161  C162  1.370 .      A
C163  N50   1.405 .      A
C163  N52   1.395 .      A
N50   C164  1.355 .      A
C164  C165  1.367 1_455  A
C164  C169  1.374 1_455  A
C165  C164  1.367 1_655  A
C165  C166  1.389 .      A
C166  C167  1.369 .      A
C167  C168  1.368 .      A
C168  C169  1.372 .      A
C169  C164  1.374 1_655  A
C169  N52   1.354 1_655  A
N52   C169  1.354 1_455  A
C170  C171  1.363 1_465  A
C170  C175  1.357 .      A
C171  C170  1.363 1_645  A
C171  C172  1.372 .      A
C172  C173  1.370 1_655  A
C173  C172  1.370 1_455  A
C173  C174  1.351 1_545  A
C174  C173  1.351 1_565  A
C174  C175  1.356 .      A
C176  N54   1.381 .      A
C176  N56   1.414 .      A
N54   C177  1.353 .      A
C177  C178  1.375 .      A
C177  C182  1.371 .      A
C178  C179  1.384 .      A
C179  C180  1.380 .      A
C180  C181  1.373 .      A
C181  C182  1.365 .      A
C182  N56   1.347 .      A
C183  C184  1.360 1_545  A
C183  C188  1.353 1_545  A
C184  C183  1.360 1_565  A
C184  C185  1.351 .      A
C185  C186  1.345 .      A
C186  C187  1.345 .      A
C187  C188  1.356 .      A
C188  C183  1.353 1_565  A
C189  N58   1.399 .      A
C189  N60   1.393 .      A
N58   C190  1.360 .      A
C190  C191  1.372 .      A
C190  C195  1.384 .      A
C191  C192  1.389 .      A
C192  C193  1.390 .      A
C193  C194  1.380 .      A
C194  C195  1.369 .      A
C195  N60   1.344 .      A
C196  C197  1.377 .      A
C196  C201  1.378 .      A
C197  C198  1.378 .      A
C198  C199  1.377 .      A
C199  C200  1.380 .      A
C200  C201  1.377 .      A
C202  N62   1.396 .      A
C202  N64   1.406 .      A
N62   C203  1.327 .      A
C203  C204  1.358 .      A
C203  C208  1.337 .      A
C204  C205  1.345 .      A
C205  C206  1.346 .      A
C206  C207  1.366 .      A
C207  C208  1.331 .      A
C208  N64   1.325 .      A
C209  C210  1.376 .      A
C209  C214  1.370 .      A
C210  C211  1.384 .      A
C211  C212  1.361 .      A
C212  C213  1.375 .      A
C213  C214  1.373 .      A
C215  N66   1.405 .      A
C215  N68   1.413 .      A
N66   C216  1.347 .      A
C216  C217  1.371 1_565  A
C216  C221  1.375 .      A
C217  C216  1.371 1_545  A
C217  C218  1.383 .      A
C218  C219  1.384 .      A
C219  C220  1.381 .      A
C220  C221  1.365 1_545  A
C221  C220  1.365 1_565  A
C221  N68   1.347 .      A
C222  C223  1.377 .      A
C222  C227  1.359 .      A
C223  C224  1.351 .      A
C224  C225  1.363 .      A
C225  C226  1.345 .      A
C226  C227  1.361 .      A
C228  N70   1.389 .      A
C228  N72   1.396 .      A
N70   C229  1.363 .      A
C229  C230  1.380 .      A
C229  C234  1.371 .      A
C230  C231  1.383 .      A
C231  C232  1.387 .      A
C232  C233  1.381 .      A
C233  C234  1.373 .      A
C234  N72   1.344 .      A
C235  C236  1.335 .      A
C235  C240  1.359 .      A
C236  C237  1.356 .      A
C237  C238  1.358 .      A
C238  C239  1.352 .      A
C239  C240  1.357 .      A
C241  N74   1.393 .      A
C241  N76   1.400 .      A
N74   C242  1.344 .      A
C242  C243  1.371 .      A
C242  C247  1.388 .      A
C243  C244  1.385 .      A
C244  C245  1.391 .      A
C245  C246  1.385 .      A
C246  C247  1.375 .      A
C247  N76   1.365 .      A
C248  C249  1.368 .      A
C248  C253  1.373 .      A
C249  C250  1.371 .      A
C250  C251  1.389 .      A
C251  C252  1.362 .      A
C252  C253  1.384 .      A
C254  N78   1.407 .      A
C254  N80   1.407 .      A
N78   C255  1.339 .      A
C255  C256  1.370 .      A
C255  C260  1.370 .      A
C256  C257  1.379 .      A
C257  C258  1.383 .      A
C258  C259  1.383 .      A
C259  C260  1.345 .      A
C260  N80   1.356 .      A
C261  C262  1.377 .      A
C261  C266  1.376 .      A
C262  C263  1.378 .      A
C263  C264  1.377 .      A
C264  C265  1.383 .      A
C265  C266  1.378 .      A
C267  N82   1.404 .      A
C267  N84   1.413 .      A
N82   C268  1.329 .      A
C268  C269  1.329 1_545  A
C268  C273  1.335 .      A
C269  C268  1.329 1_565  A
C269  C270  1.363 1_556  A
C270  C269  1.363 1_554  A
C270  C271  1.344 .      A
C271  C272  1.358 1_565  A
C272  C271  1.358 1_545  A
C272  C273  1.348 1_554  A
C273  C272  1.348 1_556  A
C273  N84   1.324 .      A
C274  C275  1.376 .      A
C274  C279  1.368 .      A
C275  C276  1.376 .      A
C276  C277  1.380 .      A
C277  C278  1.389 .      A
C278  C279  1.372 .      A
C280  N86   1.406 .      A
C280  N88   1.396 .      A
N86   C281  1.342 .      A
C281  C282  1.364 .      A
C281  C286  1.375 .      A
C282  C283  1.374 .      A
C283  C284  1.383 .      A
C284  C285  1.380 .      A
C285  C286  1.369 .      A
C286  N88   1.343 .      A
C287  C288  1.374 .      A
C287  C292  1.375 .      A
C288  C289  1.379 .      A
C289  C290  1.358 .      A
C290  C291  1.380 .      A
C291  C292  1.378 .      A
C293  N90   1.404 .      A
C293  N92   1.410 .      A
N90   C294  1.341 1_545  A
C294  N90   1.341 1_565  A
C294  C295  1.374 .      A
C294  C299  1.371 1_565  A
C295  C296  1.383 .      A
C296  C297  1.378 .      A
C297  C298  1.376 .      A
C298  C299  1.375 1_565  A
C299  C294  1.371 1_545  A
C299  C298  1.375 1_545  A
C299  N92   1.363 .      A
C300  C301  1.350 .      A
C300  C305  1.343 1_565  A
C301  C302  1.345 .      A
C302  C303  1.356 .      A
C303  C304  1.338 .      A
C304  C305  1.351 1_565  A
C305  C300  1.343 1_545  A
C305  C304  1.351 1_545  A
C306  N94   1.389 .      A
C306  N96   1.395 .      A
N94   C307  1.360 .      A
C307  C308  1.378 .      A
C307  C312  1.378 1_455  A
C308  C309  1.384 1_455  A
C309  C308  1.384 1_655  A
C309  C310  1.387 .      A
C310  C311  1.380 .      A
C311  C312  1.377 .      A
C312  C307  1.378 1_655  A
C312  N96   1.350 1_655  A
N96   C312  1.350 1_455  A
C313  C314  1.364 1_554  A
C313  C318  1.375 .      A
C314  C313  1.364 1_556  A
C314  C315  1.357 1_655  A
C315  C314  1.357 1_455  A
C315  C316  1.370 1_556  A
C316  C315  1.370 1_554  A
C316  C317  1.372 1_455  A
C317  C316  1.372 1_655  A
C317  C318  1.366 .      A
C319  N98   1.394 .      A
C319  N100  1.410 .      A
N98   C320  1.357 .      A
C320  C321  1.374 .      A
C320  C325  1.375 .      A
C321  C322  1.389 .      A
C322  C323  1.374 .      A
C323  C324  1.371 .      A
C324  C325  1.360 .      A
C325  N100  1.346 .      A
C326  C327  1.336 .      A
C326  C331  1.340 .      A
C327  C328  1.353 .      A
C328  C329  1.334 .      A
C329  C330  1.351 .      A
C330  C331  1.366 .      A
C332  N102  1.406 .      A
C332  N104  1.395 .      A
N102  C333  1.351 .      A
C333  C334  1.374 .      A
C333  C338  1.375 .      A
C334  C335  1.388 .      A
C335  C336  1.383 .      A
C336  C337  1.376 .      A
C337  C338  1.364 .      A
C338  N104  1.350 .      A
C339  C340  1.361 1_565  A
C339  C344  1.376 .      A
C340  C339  1.361 1_545  A
C340  C341  1.368 .      A
C341  C342  1.382 .      A
C342  C343  1.363 1_545  A
C343  C342  1.363 1_565  A
C343  C344  1.372 .      A
C345  N106  1.408 .      A
C345  N108  1.409 .      A
N106  C346  1.324 .      A
C346  C347  1.360 .      A
C346  C351  1.369 .      A
C347  C348  1.355 .      A
C348  C349  1.377 .      A
C349  C350  1.384 .      A
C350  C351  1.370 .      A
C351  N108  1.372 .      A
C352  C353  1.365 .      A
C352  C357  1.374 .      A
C353  C354  1.348 .      A
C354  C355  1.339 .      A
C355  C356  1.367 .      A
C356  C357  1.369 .      A
C358  N110  1.384 .      A
C358  N112  1.383 .      A
N110  C359  1.352 .      A
C359  C360  1.374 .      A
C359  C364  1.379 .      A
C360  C361  1.386 .      A
C361  C362  1.390 .      A
C362  C363  1.382 .      A
C363  C364  1.372 .      A
C364  N112  1.353 .      A
C365  C366  1.355 .      A
C365  C370  1.367 .      A
C366  C367  1.351 .      A
C367  C368  1.362 .      A
C368  C369  1.370 .      A
C369  C370  1.363 .      A
C371  N114  1.407 .      A
C371  N116  1.379 .      A
N114  C372  1.382 .      A
C372  C373  1.372 .      A
C372  C377  1.369 .      A
C373  C374  1.393 .      A
C374  C375  1.373 1_455  A
C375  C374  1.373 1_655  A
C375  C376  1.362 .      A
C376  C377  1.359 1_655  A
C377  C376  1.359 1_455  A
C377  N116  1.316 .      A
C378  C379  1.363 .      A
C378  C383  1.369 1_545  A
C379  C380  1.351 .      A
C380  C381  1.353 1_545  A
C381  C380  1.353 1_565  A
C381  C382  1.358 .      A
C382  C383  1.361 .      A
C383  C378  1.369 1_565  A
C384  N118  1.411 .      A
C384  N120  1.414 .      A
N118  C385  1.339 .      A
C385  C386  1.339 .      A
C385  C390  1.384 .      A
C386  C387  1.361 .      A
C387  C388  1.370 .      A
C388  C389  1.360 .      A
C389  C390  1.343 .      A
C390  N120  1.326 .      A
C391  C392  1.359 .      A
C391  C396  1.381 .      A
C392  C393  1.362 .      A
C393  C394  1.379 .      A
C394  C395  1.354 .      A
C395  C396  1.379 .      A
C397  N122  1.398 .      A
C397  N124  1.432 .      A
N122  C398  1.339 .      A
C398  C399  1.366 .      A
C398  C403  1.365 .      A
C399  C400  1.387 .      A
C400  C401  1.386 .      A
C401  C402  1.372 .      A
C402  C403  1.336 .      A
C403  N124  1.344 .      A
C404  C405  1.378 1_554  A
C404  C409  1.378 .      A
C405  C404  1.378 1_556  A
C405  C406  1.376 .      A
C406  C407  1.382 .      A
C407  C408  1.360 .      A
C408  C409  1.382 1_556  A
C409  C408  1.382 1_554  A
C410  N126  1.415 .      A
C410  N128  1.405 .      A
N126  C411  1.349 .      A
C411  C412  1.373 .      A
C411  C416  1.373 .      A
C412  C413  1.384 .      A
C413  C414  1.387 .      A
C414  C415  1.382 .      A
C415  C416  1.359 .      A
C416  N128  1.349 .      A
C417  C418  1.378 .      A
C417  C422  1.372 .      A
C418  C419  1.379 .      A
C419  C420  1.368 .      A
C420  C421  1.379 .      A
C421  C422  1.375 .      A
C423  N130  1.410 .      A
C423  N132  1.395 .      A
N130  C424  1.344 .      A
C424  C425  1.362 1_556  A
C424  C429  1.342 .      A
C425  C424  1.362 1_554  A
C425  C426  1.373 .      A
C426  C427  1.372 .      A
C427  C428  1.360 .      A
C428  C429  1.341 1_554  A
C429  C428  1.341 1_556  A
C429  N132  1.330 .      A
C430  C431  1.354 .      A
C430  C435  1.363 .      A
C431  C432  1.345 .      A
C432  C433  1.349 .      A
C433  C434  1.377 .      A
C434  C435  1.359 .      A
C436  N134  1.403 .      A
C436  N136  1.381 .      A
N134  C437  1.360 .      A
C437  C438  1.363 .      A
C437  C442  1.380 .      A
C438  C439  1.388 .      A
C439  C440  1.376 .      A
C440  C441  1.371 1_554  A
C441  C440  1.371 1_556  A
C441  C442  1.367 1_556  A
C442  C441  1.367 1_554  A
C442  N136  1.339 .      A
C443  C444  1.342 .      A
C443  C448  1.336 1_545  A
C444  C445  1.365 .      A
C445  C446  1.349 1_545  A
C446  C445  1.349 1_565  A
C446  C447  1.345 .      A
C447  C448  1.357 .      A
C448  C443  1.336 1_565  A
C449  N138  1.399 .      A
C449  N140  1.392 .      A
N138  C450  1.338 .      A
C450  C451  1.355 .      A
C450  C455  1.371 .      A
C451  C452  1.366 .      A
C452  C453  1.387 .      A
C453  C454  1.386 .      A
C454  C455  1.373 .      A
C455  N140  1.350 .      A
C456  C457  1.370 1_545  A
C456  C461  1.367 .      A
C457  C456  1.370 1_565  A
C457  C458  1.358 1_565  A
C458  C457  1.358 1_545  A
C458  C459  1.344 .      A
C459  C460  1.364 .      A
C460  C461  1.358 .      A
C462  N142  1.380 .      A
C462  N144  1.384 .      A
N142  C463  1.343 .      A
C463  C464  1.375 .      A
C463  C468  1.373 .      A
C464  C465  1.381 .      A
C465  C466  1.386 .      A
C466  C467  1.383 .      A
C467  C468  1.374 .      A
C468  N144  1.358 .      A
C469  C470  1.379 .      A
C469  C474  1.385 .      A
C470  C471  1.377 1_655  A
C471  C470  1.377 1_455  A
C471  C472  1.377 .      A
C472  C473  1.377 .      A
C473  C474  1.380 1_455  A
C474  C473  1.380 1_655  A
C475  N146  1.392 .      A
C475  N148  1.449 .      A
N146  C476  1.332 .      A
C476  C477  1.308 .      A
C476  C481  1.350 .      A
C477  C478  1.357 .      A
C478  C479  1.362 .      A
C479  C480  1.346 .      A
C480  C481  1.335 .      A
C481  N148  1.315 .      A
C482  C483  1.370 .      A
C482  C487  1.363 .      A
C483  C484  1.381 .      A
C484  C485  1.382 .      A
C485  C486  1.359 .      A
C486  C487  1.380 .      A
C488  N150  1.381 .      A
C488  N152  1.394 .      A
N150  C489  1.354 .      A
C489  C490  1.376 .      A
C489  C494  1.369 .      A
C490  C491  1.386 .      A
C491  C492  1.390 .      A
C492  C493  1.382 .      A
C493  C494  1.374 .      A
C494  N152  1.341 .      A
C495  C496  1.348 .      A
C495  C500  1.379 .      A
C496  C497  1.347 .      A
C497  C498  1.378 .      A
C498  C499  1.350 .      A
C499  C500  1.362 .      A
C501  N154  1.401 .      A
C501  N156  1.411 .      A
N154  C502  1.344 .      A
C502  C503  1.382 .      A
C502  C507  1.365 .      A
C503  C504  1.382 .      A
C504  C505  1.386 .      A
C505  C506  1.380 .      A
C506  C507  1.354 .      A
C507  N156  1.356 .      A
C508  C509  1.353 1_565  A
C508  C513  1.363 .      A
C509  C508  1.353 1_545  A
C509  C510  1.355 .      A
C510  C511  1.377 .      A
C511  C512  1.363 1_545  A
C512  C511  1.363 1_565  A
C512  C513  1.355 .      A
C514  N158  1.424 .      A
C514  N160  1.432 .      A
N158  C515  1.354 .      A
C515  C516  1.351 .      A
C515  C520  1.380 .      A
C516  C517  1.382 .      A
C517  C518  1.379 .      A
C518  C519  1.379 .      A
C519  C520  1.369 .      A
C520  N160  1.342 .      A
C521  C522  1.368 1_655  A
C521  C526  1.347 1_565  A
C522  C521  1.368 1_455  A
C522  C523  1.379 .      A
C523  C524  1.371 .      A
C524  C525  1.380 1_455  A
C525  C524  1.380 1_655  A
C525  C526  1.370 1_565  A
C526  C521  1.347 1_545  A
C526  C525  1.370 1_545  A
C527  N162  1.411 .      A
C527  N164  1.406 .      A
N162  C528  1.359 .      A
C528  C529  1.367 1_455  A
C528  C533  1.368 .      A
C529  C528  1.367 1_655  A
C529  C530  1.387 .      A
C530  C531  1.383 .      A
C531  C532  1.371 .      A
C532  C533  1.361 1_655  A
C533  C532  1.361 1_455  A
C533  N164  1.330 .      A
C534  C535  1.365 .      A
C534  C539  1.383 .      A
C535  C536  1.364 .      A
C536  C537  1.377 .      A
C537  C538  1.379 .      A
C538  C539  1.386 .      A
C540  N166  1.400 .      A
C540  N168  1.390 .      A
N166  C541  1.352 .      A
C541  C542  1.376 1_455  A
C541  C546  1.359 1_455  A
C542  C541  1.376 1_655  A
C542  C543  1.387 .      A
C543  C544  1.386 .      A
C544  C545  1.379 .      A
C545  C546  1.368 .      A
C546  C541  1.359 1_655  A
C546  N168  1.347 1_655  A
N168  C546  1.347 1_455  A
C547  C548  1.364 .      A
C547  C552  1.346 .      A
C548  C549  1.352 .      A
C549  C550  1.337 .      A
C550  C551  1.365 .      A
C551  C552  1.339 .      A
C553  N170  1.385 .      A
C553  N172  1.414 .      A
N170  C554  1.337 .      A
C554  C555  1.343 .      A
C554  C559  1.381 .      A
C555  C556  1.371 .      A
C556  C557  1.386 .      A
C557  C558  1.368 .      A
C558  C559  1.360 .      A
C559  N172  1.336 .      A
C560  C561  1.360 .      A
C560  C565  1.376 .      A
C561  C562  1.371 .      A
C562  C563  1.357 .      A
C563  C564  1.378 .      A
C564  C565  1.379 .      A
C566  N174  1.423 .      A
C566  N176  1.390 .      A
N174  C567  1.325 .      A
C567  C568  1.356 .      A
C567  C572  1.344 .      A
C568  C569  1.363 .      A
C569  C570  1.365 .      A
C570  C571  1.356 .      A
C571  C572  1.325 .      A
C572  N176  1.335 .      A
C573  C574  1.382 .      A
C573  C578  1.365 .      A
C574  C575  1.387 .      A
C575  C576  1.371 .      A
C576  C577  1.389 .      A
C577  C578  1.367 .      A
C579  N178  1.413 .      A
C579  N180  1.389 .      A
N178  C580  1.356 .      A
C580  C581  1.369 .      A
C580  C585  1.363 .      A
C581  C582  1.387 .      A
C582  C583  1.386 .      A
C583  C584  1.377 .      A
C584  C585  1.370 .      A
C585  N180  1.338 .      A
C586  C587  1.370 .      A
C586  C591  1.357 .      A
C587  C588  1.363 .      A
C588  C589  1.357 .      A
C589  C590  1.370 .      A
C590  C591  1.348 .      A
C592  N182  1.418 .      A
C592  N184  1.393 .      A
N182  C593  1.326 .      A
C593  C594  1.328 .      A
C593  C598  1.369 .      A
C594  C595  1.349 .      A
C595  C596  1.395 .      A
C596  C597  1.382 .      A
C597  C598  1.369 .      A
C598  N184  1.344 .      A
C599  C600  1.368 .      A
C599  C604  1.375 .      A
C600  C601  1.373 .      A
C601  C602  1.383 .      A
C602  C603  1.373 .      A
C603  C604  1.373 .      A
C605  N186  1.393 .      A
C605  N188  1.401 .      A
N186  C606  1.357 .      A
C606  C607  1.368 .      A
C606  C611  1.353 .      A
C607  C608  1.387 .      A
C608  C609  1.380 .      A
C609  C610  1.376 .      A
C610  C611  1.363 .      A
C611  N188  1.332 .      A
C612  C613  1.373 .      A
C612  C617  1.373 .      A
C613  C614  1.378 .      A
C614  C615  1.397 .      A
C615  C616  1.380 .      A
C616  C617  1.379 .      A
C618  N190  1.402 .      A
C618  N192  1.388 .      A
N190  C619  1.342 .      A
C619  C620  1.368 .      A
C619  C624  1.381 .      A
C620  C621  1.382 .      A
C621  C622  1.374 .      A
C622  C623  1.377 .      A
C623  C624  1.357 .      A
C624  N192  1.342 .      A
C625  C626  1.367 .      A
C625  C630  1.377 .      A
C626  C627  1.375 .      A
C627  C628  1.374 .      A
C628  C629  1.368 .      A
C629  C630  1.379 .      A
C631  N194  1.405 .      A
C631  N196  1.415 .      A
N194  C632  1.324 .      A
C632  C633  1.345 .      A
C632  C637  1.371 .      A
C633  C634  1.361 .      A
C634  C635  1.388 .      A
C635  C636  1.371 .      A
C636  C637  1.353 .      A
C637  N196  1.339 .      A
C638  C639  1.372 .      A
C638  C643  1.374 .      A
C639  C640  1.371 .      A
C640  C641  1.383 .      A
C641  C642  1.371 .      A
C642  C643  1.374 .      A
C644  N198  1.392 .      A
C644  N200  1.386 .      A
N198  C645  1.350 .      A
C645  C646  1.369 .      A
C645  C650  1.351 .      A
C646  C647  1.384 .      A
C647  C648  1.386 .      A
C648  C649  1.381 .      A
C649  C650  1.362 .      A
C650  N200  1.334 .      A
C651  C652  1.370 .      A
C651  C656  1.376 .      A
C652  C653  1.375 .      A
C653  C654  1.368 .      A
C654  C655  1.367 .      A
C655  C656  1.377 .      A
C657  N202  1.423 .      A
C657  N204  1.421 .      A
N202  C658  1.335 .      A
C658  C659  1.353 .      A
C658  C663  1.376 .      A
C659  C660  1.370 .      A
C660  C661  1.386 .      A
C661  C662  1.368 .      A
C662  C663  1.342 .      A
C663  N204  1.335 .      A
C664  C665  1.376 .      A
C664  C669  1.376 .      A
C665  C666  1.374 .      A
C666  C667  1.374 .      A
C667  C668  1.373 .      A
C668  C669  1.380 .      A
C670  N206  1.415 .      A
C670  N208  1.423 .      A
N206  C671  1.318 .      A
C671  C672  1.352 1_565  A
C671  C676  1.346 .      A
C672  C671  1.352 1_545  A
C672  C673  1.360 1_545  A
C673  C672  1.360 1_565  A
C673  C674  1.378 .      A
C674  C675  1.379 .      A
C675  C676  1.318 .      A
C676  N208  1.336 .      A
C677  C678  1.362 .      A
C677  C682  1.358 .      A
C678  C679  1.386 .      A
C679  C680  1.359 .      A
C680  C681  1.378 .      A
C681  C682  1.373 .      A
C683  N210  1.417 .      A
C683  N212  1.383 .      A
N210  C684  1.360 .      A
C684  C685  1.376 .      A
C684  C689  1.355 .      A
C685  C686  1.385 1_455  A
C686  C685  1.385 1_655  A
C686  C687  1.384 .      A
C687  C688  1.378 1_655  A
C688  C687  1.378 1_455  A
C688  C689  1.366 .      A
C689  N212  1.337 .      A
C690  C691  1.380 .      A
C690  C695  1.372 .      A
C691  C692  1.380 1_655  A
C692  C691  1.380 1_455  A
C692  C693  1.382 .      A
C693  C694  1.370 .      A
C694  C695  1.373 1_455  A
C695  C694  1.373 1_655  A
C696  N214  1.425 .      A
C696  N216  1.416 .      A
N214  C697  1.334 .      A
C697  C698  1.351 .      A
C697  C702  1.368 1_545  A
C698  C699  1.376 .      A
C699  C700  1.368 1_545  A
C700  C699  1.368 1_565  A
C700  C701  1.332 .      A
C701  C702  1.338 .      A
C702  C697  1.368 1_565  A
C702  N216  1.323 1_565  A
N216  C702  1.323 1_545  A
C703  C704  1.368 .      A
C703  C708  1.361 .      A
C704  C705  1.366 .      A
C705  C706  1.354 1_545  A
C706  C705  1.354 1_565  A
C706  C707  1.350 1_565  A
C707  C706  1.350 1_545  A
C707  C708  1.356 .      A
C709  N218  1.413 .      A
C709  N220  1.413 .      A
N218  C710  1.370 .      A
C710  C711  1.377 .      A
C710  C715  1.387 .      A
C711  C712  1.387 .      A
C712  C713  1.388 .      A
C713  C714  1.379 .      A
C714  C715  1.375 .      A
C715  N220  1.346 .      A
C716  C717  1.373 .      A
C716  C721  1.371 .      A
C717  C718  1.380 .      A
C718  C719  1.363 .      A
C719  C720  1.394 .      A
C720  C721  1.375 .      A
C722  N222  1.420 .      A
C722  N224  1.395 .      A
N222  C723  1.350 .      A
C723  C724  1.351 .      A
C723  C728  1.372 .      A
C724  C725  1.372 .      A
C725  C726  1.373 .      A
C726  C727  1.370 .      A
C727  C728  1.368 .      A
C728  N224  1.324 .      A
