data_str_m1_o12014_FAU
_audit_creation_date              2015-10-01T06:36:10-0700
_symmetry_space_group_name_H-M    P1
_symmetry_Int_Tables_number       1
_space_group_crystal_system       triclinic
loop_
_symmetry_equiv_pos_as_xyz
  x,y,z
_cell_length_a                    36.6216976
_cell_length_b                    36.7301569
_cell_length_c                    35.8800405
_cell_angle_alpha                 119.476988
_cell_angle_beta                  118.309977
_cell_angle_gamma                 91.3006967
_cell_volume                      34864.7386023

loop_
_atom_site_label
_atom_site_type_symbol
_atom_site_description
_atom_site_fract_x
_atom_site_fract_y
_atom_site_fract_z
_atom_type_partial_charge
Zn1   Zn    Zn3+2 0.653817 0.018928 0.281418 0.000000
Zn2   Zn    Zn3+2 0.833864 0.022470 0.285510 0.000000
Zn3   Zn    Zn3+2 0.836868 0.191829 0.280710 0.000000
Zn4   Zn    Zn3+2 0.768520 0.268331 0.145746 0.000000
Zn5   Zn    Zn3+2 0.586440 0.801811 0.147072 0.000000
Zn6   Zn    Zn3+2 0.644459 0.017528 0.461650 0.000000
Zn7   Zn    Zn3+2 0.762204 0.806118 0.501454 0.000000
Zn8   Zn    Zn3+2 0.191287 0.566371 0.821844 0.000000
Zn9   Zn    Zn3+2 0.405452 0.449750 0.770881 0.000000
Zn10  Zn    Zn3+2 0.591206 0.272088 0.793763 0.000000
Zn11  Zn    Zn3+2 0.661392 0.205116 0.293656 0.000000
Zn12  Zn    Zn3+2 0.760029 0.632064 0.969623 0.000000
Zn13  Zn    Zn3+2 0.950837 0.823925 0.327997 0.000000
Zn14  Zn    Zn3+2 0.766474 0.813575 0.145665 0.000000
Zn15  Zn    Zn3+2 0.016314 0.375604 0.460995 0.000000
Zn16  Zn    Zn3+2 0.659724 0.375747 0.641878 0.000000
Zn17  Zn    Zn3+2 0.836617 0.562462 0.651277 0.000000
Zn18  Zn    Zn3+2 0.009758 0.553638 0.636095 0.000000
Zn19  Zn    Zn3+2 0.584481 0.445820 0.783767 0.000000
Zn20  Zn    Zn3+2 0.412831 0.456798 0.165378 0.000000
Zn21  Zn    Zn3+2 0.415127 0.283486 0.983095 0.000000
Zn22  Zn    Zn3+2 0.205247 0.396301 0.020883 0.000000
Zn23  Zn    Zn3+2 0.591594 0.459869 0.333628 0.000000
Zn24  Zn    Zn3+2 0.402287 0.626250 0.143999 0.000000
Zn25  Zn    Zn3+2 0.202493 0.212455 0.838355 0.000000
Zn26  Zn    Zn3+2 0.020290 0.377080 0.000655 0.000000
Zn27  Zn    Zn3+2 0.410126 0.281695 0.794302 0.000000
Zn28  Zn    Zn3+2 0.192367 0.576193 0.013949 0.000000
Zn29  Zn    Zn3+2 0.197122 0.387480 0.645512 0.000000
Zn30  Zn    Zn3+2 0.018074 0.033588 0.473672 0.000000
Zn31  Zn    Zn3+2 0.402085 0.629262 0.961024 0.000000
Zn32  Zn    Zn3+2 0.590697 0.284818 0.154717 0.000000
Zn33  Zn    Zn3+2 0.664322 0.383670 0.472225 0.000000
Zn34  Zn    Zn3+2 0.581655 0.802139 0.324543 0.000000
Zn35  Zn    Zn3+2 0.833656 0.199975 0.818940 0.000000
Zn36  Zn    Zn3+2 0.774879 0.640865 0.516877 0.000000
Zn37  Zn    Zn3+2 0.013413 0.558581 0.005375 0.000000
Zn38  Zn    Zn3+2 0.942803 0.445864 0.139173 0.000000
Zn39  Zn    Zn3+2 0.193929 0.211038 0.653842 0.000000
Zn40  Zn    Zn3+2 0.023479 0.037826 0.662599 0.000000
Zn41  Zn    Zn3+2 0.658607 0.200476 0.644224 0.000000
Zn42  Zn    Zn3+2 0.945909 0.638637 0.502780 0.000000
Zn43  Zn    Zn3+2 0.948193 0.818543 0.511657 0.000000
Zn44  Zn    Zn3+2 0.833173 0.558687 0.826222 0.000000
Zn45  Zn    Zn3+2 0.938550 0.635929 0.152144 0.000000
Zn46  Zn    Zn3+2 0.932704 0.447861 0.321706 0.000000
Zn47  Zn    Zn3+2 0.828281 0.021387 0.637514 0.000000
Zn48  Zn    Zn3+2 0.766416 0.275375 0.967220 0.000000
C1    C     C_3   0.740616 0.116693 0.355868 0.000000
C2    C     C_3   0.757770 0.097649 0.321439 0.000000
C3    C     C_3   0.806817 0.123626 0.358346 0.000000
C4    C     C_R   0.749916 0.048707 0.297485 0.000000
N1    N     N_R   0.787300 0.035881 0.307102 0.000000
C5    C     C_R   0.785543 0.016190 0.329020 0.000000
C6    C     C_R   0.821158 0.017766 0.367885 0.000000
C7    C     C_R   0.813323 0.993058 0.383279 0.000000
C8    C     C_R   0.770497 0.971146 0.361787 0.000000
C9    C     C_R   0.737389 0.985105 0.338936 0.000000
C10   C     C_R   0.745953 0.008161 0.322338 0.000000
N2    N     N_R   0.720706 0.026825 0.300498 0.000000
C11   C     C_2   0.761479 0.927453 0.351265 0.000000
O1    O     O_2   0.783296 0.905630 0.340535 0.000000
O2    O     O_2   0.731143 0.910329 0.353832 0.000000
H1    H     H_    0.764721 0.123319 0.393987 0.000000
H2    H     H_    0.736191 0.148193 0.361060 0.000000
H3    H     H_    0.709568 0.094889 0.341187 0.000000
H4    H     H_    0.742769 0.104122 0.291418 0.000000
H5    H     H_    0.822929 0.118152 0.337985 0.000000
H6    H     H_    0.811387 0.159381 0.380503 0.000000
H7    H     H_    0.823338 0.115122 0.386626 0.000000
H8    H     H_    0.853916 0.037574 0.385940 0.000000
H9    H     H_    0.840282 0.988197 0.408642 0.000000
H10   H     H_    0.706210 0.977041 0.332588 0.000000
H11   H     H_    0.726652 0.880328 0.344582 0.000000
C12   C     C_3   0.984233 0.247321 0.327105 0.000000
C13   C     C_3   0.948302 0.268296 0.319169 0.000000
C14   C     C_3   0.914647 0.238631 0.260978 0.000000
C15   C     C_R   0.933729 0.276990 0.356076 0.000000
N3    N     N_R   0.903333 0.243865 0.346283 0.000000
C16   C     C_R   0.921691 0.254122 0.394422 0.000000
C17   C     C_R   0.917284 0.226185 0.408101 0.000000
C18   C     C_R   0.938479 0.243813 0.460072 0.000000
C19   C     C_R   0.967976 0.286902 0.497101 0.000000
C20   C     C_R   0.976602 0.312392 0.482089 0.000000
C21   C     C_R   0.952985 0.295184 0.430690 0.000000
N4    N     N_R   0.961972 0.311772 0.408915 0.000000
C22   C     C_2   0.991978 0.304530 0.551850 0.000000
O3    O     O_2   0.025333 0.336790 0.582907 0.000000
O4    O     O_2   0.976570 0.286389 0.568418 0.000000
H12   H     H_    0.984787 0.232239 0.347293 0.000000
H13   H     H_    0.978236 0.220419 0.289787 0.000000
H14   H     H_    0.016473 0.272171 0.348436 0.000000
H15   H     H_    0.962311 0.300844 0.328581 0.000000
H16   H     H_    0.888026 0.250510 0.247330 0.000000
H17   H     H_    0.931199 0.239003 0.242034 0.000000
H18   H     H_    0.900846 0.203976 0.246017 0.000000
H19   H     H_    0.896212 0.192025 0.379301 0.000000
H20   H     H_    0.932890 0.223259 0.471614 0.000000
H21   H     H_    0.002531 0.344063 0.509178 0.000000
H22   H     H_    0.991318 0.300098 0.604985 0.000000
C23   C     C_3   0.752171 0.086928 0.197728 0.000000
C24   C     C_3   0.778532 0.063180 0.215560 0.000000
C25   C     C_3   0.780423 0.027251 0.171378 0.000000
C26   C     C_R   0.823459 0.092473 0.260108 0.000000
N5    N     N_R   0.845611 0.130308 0.269355 0.000000
C27   C     C_R   0.886075 0.126639 0.285042 0.000000
C28   C     C_R   0.920731 0.151508 0.293543 0.000000
C29   C     C_R   0.957793 0.139046 0.303046 0.000000
C30   C     C_R   0.960067 0.102530 0.305461 0.000000
C31   C     C_R   0.925589 0.079406 0.300247 0.000000
C32   C     C_R   0.888626 0.091650 0.288953 0.000000
N6    N     N_R   0.850103 0.071140 0.276950 0.000000
C33   C     C_2   0.998583 0.088178 0.312657 0.000000
O5    O     O_2   0.030692 0.111008 0.322374 0.000000
O6    O     O_2   0.998325 0.049285 0.307451 0.000000
H23   H     H_    0.769317 0.101494 0.187541 0.000000
H24   H     H_    0.718725 0.063867 0.163553 0.000000
H25   H     H_    0.750895 0.110770 0.230607 0.000000
H26   H     H_    0.763630 0.050740 0.228809 0.000000
H27   H     H_    0.746722 0.005416 0.136845 0.000000
H28   H     H_    0.797545 0.042784 0.161663 0.000000
H29   H     H_    0.798823 0.007119 0.182381 0.000000
H30   H     H_    0.917895 0.178334 0.289910 0.000000
H31   H     H_    0.984481 0.157326 0.307123 0.000000
H32   H     H_    0.927468 0.052291 0.304255 0.000000
H33   H     H_    0.023668 0.039918 0.311950 0.000000
C34   C     C_3   0.753053 0.331106 0.075853 0.000000
C35   C     C_3   0.726316 0.285212 0.050838 0.000000
C36   C     C_3   0.682912 0.264073 0.000256 0.000000
C37   C     C_R   0.755686 0.260687 0.047292 0.000000
N7    N     N_R   0.773949 0.255344 0.019156 0.000000
C38   C     C_R   0.804159 0.236984 0.036367 0.000000
C39   C     C_R   0.833865 0.224290 0.023652 0.000000
C40   C     C_R   0.862423 0.206917 0.046490 0.000000
C41   C     C_R   0.862846 0.204155 0.083797 0.000000
C42   C     C_R   0.834565 0.219132 0.098426 0.000000
C43   C     C_R   0.804539 0.233969 0.073267 0.000000
N8    N     N_R   0.774949 0.250206 0.082576 0.000000
C44   C     C_2   0.893143 0.185462 0.107763 0.000000
O7    O     O_2   0.920458 0.175378 0.097915 0.000000
O8    O     O_2   0.890125 0.178190 0.139644 0.000000
H34   H     H_    0.767779 0.330235 0.054939 0.000000
H35   H     H_    0.733894 0.353906 0.081421 0.000000
H36   H     H_    0.782334 0.342105 0.113511 0.000000
H37   H     H_    0.718968 0.283560 0.076039 0.000000
H38   H     H_    0.664412 0.234794 0.993425 0.000000
H39   H     H_    0.664161 0.287432 0.002059 0.000000
H40   H     H_    0.687770 0.252063 0.968954 0.000000
H41   H     H_    0.835182 0.226454 0.995810 0.000000
H42   H     H_    0.884691 0.195906 0.035014 0.000000
H43   H     H_    0.836901 0.220007 0.129663 0.000000
H44   H     H_    0.909611 0.165202 0.154725 0.000000
C45   C     C_3   0.858608 0.309659 0.284515 0.000000
C46   C     C_3   0.829884 0.273438 0.275011 0.000000
C47   C     C_3   0.805439 0.287384 0.300231 0.000000
C48   C     C_R   0.807682 0.232513 0.221802 0.000000
N9    N     N_R   0.787877 0.227944 0.174589 0.000000
C49   C     C_R   0.786705 0.186424 0.143705 0.000000
C50   C     C_R   0.766448 0.161362 0.091142 0.000000
C51   C     C_R   0.770422 0.119820 0.067700 0.000000
C52   C     C_R   0.792897 0.103149 0.096306 0.000000
C53   C     C_R   0.810906 0.127866 0.148863 0.000000
C54   C     C_R   0.807489 0.169322 0.171295 0.000000
N10   N     N_R   0.819023 0.196761 0.220116 0.000000
C55   C     C_2   0.796767 0.059086 0.070694 0.000000
O9    O     O_2   0.779909 0.036640 0.024259 0.000000
O10   O     O_2   0.819261 0.043343 0.098400 0.000000
H45   H     H_    0.850742 0.298474 0.246958 0.000000
H46   H     H_    0.854085 0.340830 0.305047 0.000000
H47   H     H_    0.893138 0.313388 0.307549 0.000000
H48   H     H_    0.852646 0.263442 0.297429 0.000000
H49   H     H_    0.770664 0.275914 0.271007 0.000000
H50   H     H_    0.811645 0.271909 0.320762 0.000000
H51   H     H_    0.819020 0.323297 0.330958 0.000000
H52   H     H_    0.748390 0.173610 0.068539 0.000000
H53   H     H_    0.755431 0.100337 0.026577 0.000000
H54   H     H_    0.827298 0.115414 0.171898 0.000000
H55   H     H_    0.821797 0.014352 0.081472 0.000000
C56   C     C_3   0.907837 0.313990 0.230626 0.000000
C57   C     C_3   0.892159 0.349348 0.224251 0.000000
C58   C     C_3   0.880967 0.338444 0.174100 0.000000
C59   C     C_R   0.856769 0.360795 0.232683 0.000000
N11   N     N_R   0.815311 0.331409 0.206544 0.000000
C60   C     C_R   0.803174 0.353243 0.238857 0.000000
C61   C     C_R   0.774686 0.332765 0.242448 0.000000
C62   C     C_R   0.771014 0.356085 0.283548 0.000000
C63   C     C_R   0.797856 0.398802 0.322209 0.000000
C64   C     C_R   0.825189 0.419013 0.316638 0.000000
C65   C     C_R   0.831155 0.395100 0.277241 0.000000
N12   N     N_R   0.867388 0.401482 0.275866 0.000000
C66   C     C_2   0.799953 0.420719 0.370677 0.000000
O11   O     O_2   0.781489 0.399467 0.377992 0.000000
O12   O     O_2   0.821818 0.464233 0.407224 0.000000
H56   H     H_    0.880393 0.282638 0.203987 0.000000
H57   H     H_    0.933087 0.308452 0.221585 0.000000
H58   H     H_    0.923618 0.325398 0.271128 0.000000
H59   H     H_    0.920604 0.379439 0.253777 0.000000
H60   H     H_    0.909771 0.359132 0.182778 0.000000
H61   H     H_    0.877117 0.303527 0.149439 0.000000
H62   H     H_    0.850994 0.345759 0.155883 0.000000
H63   H     H_    0.759505 0.297485 0.216424 0.000000
H64   H     H_    0.749662 0.339986 0.287387 0.000000
H65   H     H_    0.846566 0.450016 0.347760 0.000000
H66   H     H_    0.822044 0.478081 0.438237 0.000000
C67   C     C_3   0.751171 0.872062 0.231909 0.000000
C68   C     C_3   0.703200 0.861965 0.205615 0.000000
C69   C     C_3   0.692383 0.899740 0.201993 0.000000
C70   C     C_R   0.680003 0.819198 0.154978 0.000000
N13   N     N_R   0.700791 0.798542 0.130264 0.000000
C71   C     C_R   0.669240 0.758379 0.091395 0.000000
C72   C     C_R   0.667481 0.723663 0.050149 0.000000
C73   C     C_R   0.643279 0.681777 0.029730 0.000000
C74   C     C_R   0.628185 0.677094 0.056504 0.000000
C75   C     C_R   0.623567 0.713555 0.090605 0.000000
C76   C     C_R   0.636598 0.753147 0.098421 0.000000
N14   N     N_R   0.639221 0.792146 0.134851 0.000000
C77   C     C_2   0.621091 0.635424 0.052406 0.000000
O13   O     O_2   0.639172 0.609556 0.037823 0.000000
O14   O     O_2   0.597450 0.627123 0.068481 0.000000
H67   H     H_    0.762745 0.874615 0.210759 0.000000
H68   H     H_    0.766619 0.904542 0.268811 0.000000
H69   H     H_    0.759636 0.845118 0.235202 0.000000
H70   H     H_    0.695420 0.858235 0.229549 0.000000
H71   H     H_    0.681823 0.918424 0.227418 0.000000
H72   H     H_    0.722599 0.924049 0.218008 0.000000
H73   H     H_    0.667278 0.887164 0.161616 0.000000
H74   H     H_    0.684725 0.727897 0.034764 0.000000
H75   H     H_    0.643200 0.653369 0.999191 0.000000
H76   H     H_    0.618463 0.713270 0.117610 0.000000
H77   H     H_    0.593596 0.600031 0.066589 0.000000
C78   C     C_3   0.582375 0.899674 0.262794 0.000000
C79   C     C_3   0.621557 0.915323 0.264606 0.000000
C80   C     C_3   0.650043 0.888066 0.269522 0.000000
C81   C     C_R   0.608705 0.911725 0.217365 0.000000
N15   N     N_R   0.592139 0.870321 0.171556 0.000000
C82   C     C_R   0.584675 0.881705 0.139040 0.000000
C83   C     C_R   0.565631 0.852988 0.087028 0.000000
C84   C     C_R   0.557922 0.870814 0.059095 0.000000
C85   C     C_R   0.574442 0.916399 0.084357 0.000000
C86   C     C_R   0.598160 0.944290 0.137854 0.000000
C87   C     C_R   0.599388 0.927037 0.164517 0.000000
N16   N     N_R   0.616298 0.948299 0.215761 0.000000
C88   C     C_2   0.567360 0.934888 0.054287 0.000000
O15   O     O_2   0.542269 0.911340 0.007435 0.000000
O16   O     O_2   0.588288 0.977905 0.078152 0.000000
H78   H     H_    0.581691 0.924567 0.295494 0.000000
H79   H     H_    0.551550 0.889525 0.226340 0.000000
H80   H     H_    0.587201 0.874470 0.270144 0.000000
H81   H     H_    0.640578 0.948554 0.298243 0.000000
H82   H     H_    0.680825 0.906301 0.280518 0.000000
H83   H     H_    0.654707 0.881613 0.297704 0.000000
H84   H     H_    0.638285 0.857681 0.232762 0.000000
H85   H     H_    0.554920 0.817513 0.068039 0.000000
H86   H     H_    0.540635 0.848692 0.017641 0.000000
H87   H     H_    0.616324 0.977759 0.157567 0.000000
H88   H     H_    0.583522 0.989915 0.058207 0.000000
C89   C     C_3   0.765540 0.120400 0.624614 0.000000
C90   C     C_3   0.761785 0.090646 0.574230 0.000000
C91   C     C_3   0.803331 0.105496 0.579003 0.000000
C92   C     C_R   0.747727 0.042937 0.555027 0.000000
N17   N     N_R   0.770766 0.026520 0.584185 0.000000
C93   C     C_R   0.736911 0.999126 0.573499 0.000000
C94   C     C_R   0.739089 0.982903 0.601328 0.000000
C95   C     C_R   0.700806 0.961258 0.590889 0.000000
C96   C     C_R   0.660738 0.957166 0.553699 0.000000
C97   C     C_R   0.659418 0.972786 0.525253 0.000000
C98   C     C_R   0.697762 0.994825 0.536625 0.000000
N18   N     N_R   0.702855 0.019714 0.520604 0.000000
C99   C     C_2   0.620115 0.937737 0.545849 0.000000
O17   O     O_2   0.621980 0.930142 0.576064 0.000000
O18   O     O_2   0.580654 0.926434 0.504111 0.000000
H89   H     H_    0.790867 0.117368 0.654853 0.000000
H90   H     H_    0.774159 0.155256 0.636873 0.000000
H91   H     H_    0.733369 0.110686 0.618711 0.000000
H92   H     H_    0.734933 0.094764 0.546092 0.000000
H93   H     H_    0.809324 0.075887 0.555585 0.000000
H94   H     H_    0.799145 0.126544 0.564312 0.000000
H95   H     H_    0.831007 0.126009 0.619956 0.000000
H96   H     H_    0.769753 0.991607 0.635142 0.000000
H97   H     H_    0.702563 0.949726 0.613943 0.000000
H98   H     H_    0.629024 0.969072 0.496329 0.000000
H99   H     H_    0.554082 0.912540 0.498342 0.000000
C100  C     C_3   0.626712 0.102594 0.458267 0.000000
C101  C     C_3   0.638101 0.135055 0.510135 0.000000
C102  C     C_3   0.605137 0.159207 0.506050 0.000000
C103  C     C_R   0.638265 0.112660 0.535420 0.000000
N19   N     N_R   0.625554 0.066552 0.508593 0.000000
C104  C     C_R   0.609893 0.059922 0.533064 0.000000
C105  C     C_R   0.585583 0.021013 0.518679 0.000000
C106  C     C_R   0.570239 0.021795 0.547422 0.000000
C107  C     C_R   0.580248 0.061268 0.591434 0.000000
C108  C     C_R   0.604474 0.100282 0.605460 0.000000
C109  C     C_R   0.617149 0.099158 0.574534 0.000000
N20   N     N_R   0.636300 0.133940 0.578731 0.000000
C110  C     C_2   0.563344 0.061808 0.621407 0.000000
O19   O     O_2   0.543893 0.027088 0.610403 0.000000
O20   O     O_2   0.567831 0.100583 0.660047 0.000000
H100  H     H_    0.593142 0.079047 0.434149 0.000000
H101  H     H_    0.630451 0.119853 0.441720 0.000000
H102  H     H_    0.653200 0.089086 0.467531 0.000000
H103  H     H_    0.670872 0.155205 0.527599 0.000000
H104  H     H_    0.608078 0.177954 0.542853 0.000000
H105  H     H_    0.611645 0.182139 0.496610 0.000000
H106  H     H_    0.571185 0.135234 0.475880 0.000000
H107  H     H_    0.575828 0.990339 0.484323 0.000000
H108  H     H_    0.549727 0.991185 0.534592 0.000000
H109  H     H_    0.613533 0.130826 0.640183 0.000000
H110  H     H_    0.554976 0.100642 0.678153 0.000000
C111  C     C_3   0.722270 0.115136 0.459845 0.000000
C112  C     C_3   0.716591 0.067522 0.422987 0.000000
C113  C     C_3   0.745909 0.050391 0.451322 0.000000
C114  C     C_R   0.670162 0.037602 0.388858 0.000000
N21   N     N_R   0.645948 0.024891 0.403955 0.000000
C115  C     C_R   0.604991 0.007646 0.361312 0.000000
C116  C     C_R   0.566614 0.995914 0.356183 0.000000
C117  C     C_R   0.527261 0.977947 0.309173 0.000000
C118  C     C_R   0.527075 0.972329 0.267785 0.000000
C119  C     C_R   0.566493 0.986091 0.274307 0.000000
C120  C     C_R   0.604898 0.005471 0.322445 0.000000
N22   N     N_R   0.645875 0.023357 0.337707 0.000000
C121  C     C_2   0.485341 0.953437 0.217971 0.000000
O21   O     O_2   0.450651 0.940907 0.211912 0.000000
O22   O     O_2   0.485109 0.950036 0.178746 0.000000
H111  H     H_    0.721378 0.119200 0.491989 0.000000
H112  H     H_    0.754657 0.137015 0.476183 0.000000
H113  H     H_    0.696014 0.124982 0.438579 0.000000
H114  H     H_    0.726217 0.067382 0.398013 0.000000
H115  H     H_    0.738928 0.015694 0.422499 0.000000
H116  H     H_    0.780847 0.070117 0.472818 0.000000
H117  H     H_    0.737252 0.050947 0.476830 0.000000
H118  H     H_    0.567929 0.004134 0.389723 0.000000
H119  H     H_    0.496803 0.969141 0.305481 0.000000
H120  H     H_    0.567039 0.984462 0.243756 0.000000
H121  H     H_    0.457544 0.938034 0.146179 0.000000
C122  C     C_3   0.863989 0.935842 0.690505 0.000000
C123  C     C_3   0.816031 0.910939 0.646969 0.000000
C124  C     C_3   0.787821 0.927348 0.666817 0.000000
C125  C     C_R   0.802481 0.912698 0.601586 0.000000
N23   N     N_R   0.783362 0.873437 0.553059 0.000000
C126  C     C_R   0.777274 0.887937 0.524036 0.000000
C127  C     C_R   0.764233 0.862037 0.473592 0.000000
C128  C     C_R   0.767952 0.882233 0.452218 0.000000
C129  C     C_R   0.781495 0.927426 0.479977 0.000000
C130  C     C_R   0.794547 0.953198 0.530636 0.000000
C131  C     C_R   0.792136 0.932466 0.552282 0.000000
N24   N     N_R   0.808230 0.951058 0.602439 0.000000
C132  C     C_2   0.791050 0.946401 0.458123 0.000000
O23   O     O_2   0.808892 0.929007 0.436238 0.000000
O24   O     O_2   0.785992 0.985257 0.467071 0.000000
H122  H     H_    0.867715 0.967475 0.722499 0.000000
H123  H     H_    0.876709 0.915714 0.705631 0.000000
H124  H     H_    0.883160 0.941498 0.676592 0.000000
H125  H     H_    0.810886 0.875988 0.633583 0.000000
H126  H     H_    0.752719 0.909630 0.634620 0.000000
H127  H     H_    0.795229 0.922419 0.697443 0.000000
H128  H     H_    0.795772 0.962685 0.682594 0.000000
H129  H     H_    0.753995 0.826859 0.450607 0.000000
H130  H     H_    0.760773 0.862375 0.413707 0.000000
H131  H     H_    0.810761 0.987921 0.554007 0.000000
H132  H     H_    0.800035 0.000908 0.459728 0.000000
C133  C     C_3   0.880409 0.895280 0.571307 0.000000
C134  C     C_3   0.884666 0.852908 0.567649 0.000000
C135  C     C_3   0.870659 0.842644 0.595973 0.000000
C136  C     C_R   0.858128 0.817439 0.513213 0.000000
N25   N     N_R   0.812154 0.799851 0.483559 0.000000
C137  C     C_R   0.803630 0.773772 0.435853 0.000000
C138  C     C_R   0.763496 0.745000 0.390946 0.000000
C139  C     C_R   0.762811 0.714171 0.347970 0.000000
C140  C     C_R   0.801431 0.714412 0.349627 0.000000
C141  C     C_R   0.841041 0.746151 0.394227 0.000000
C142  C     C_R   0.841876 0.775075 0.437456 0.000000
N26   N     N_R   0.877943 0.802929 0.486429 0.000000
C143  C     C_2   0.800939 0.679424 0.305323 0.000000
O25   O     O_2   0.766117 0.652385 0.265001 0.000000
O26   O     O_2   0.839069 0.675787 0.309670 0.000000
H133  H     H_    0.853045 0.886908 0.533763 0.000000
H134  H     H_    0.875918 0.917141 0.602239 0.000000
H135  H     H_    0.909842 0.912959 0.577852 0.000000
H136  H     H_    0.918979 0.853743 0.581188 0.000000
H137  H     H_    0.878772 0.813148 0.593751 0.000000
H138  H     H_    0.888205 0.870340 0.636923 0.000000
H139  H     H_    0.835056 0.834934 0.578153 0.000000
H140  H     H_    0.733403 0.744496 0.389512 0.000000
H141  H     H_    0.732167 0.688681 0.313858 0.000000
H142  H     H_    0.870884 0.746736 0.395634 0.000000
H143  H     H_    0.838799 0.651965 0.280880 0.000000
C144  C     C_3   0.200654 0.458931 0.816547 0.000000
C145  C     C_3   0.176020 0.438337 0.759611 0.000000
C146  C     C_3   0.129215 0.434559 0.741714 0.000000
C147  C     C_R   0.190731 0.464524 0.744988 0.000000
N27   N     N_R   0.196314 0.509515 0.768722 0.000000
C148  C     C_R   0.209610 0.519151 0.744684 0.000000
C149  C     C_R   0.216559 0.558570 0.750159 0.000000
C150  C     C_R   0.236142 0.564847 0.728217 0.000000
C151  C     C_R   0.245622 0.530191 0.698405 0.000000
C152  C     C_R   0.230099 0.488117 0.685336 0.000000
C153  C     C_R   0.211874 0.483142 0.709030 0.000000
N28   N     N_R   0.198616 0.446391 0.705758 0.000000
C154  C     C_2   0.270875 0.537688 0.679534 0.000000
O27   O     O_2   0.282641 0.574151 0.688901 0.000000
O28   O     O_2   0.280592 0.504116 0.651126 0.000000
H144  H     H_    0.196043 0.490709 0.836530 0.000000
H145  H     H_    0.186899 0.436474 0.822327 0.000000
H146  H     H_    0.235338 0.461960 0.831993 0.000000
H147  H     H_    0.181439 0.406571 0.743663 0.000000
H148  H     H_    0.109056 0.419673 0.700061 0.000000
H149  H     H_    0.116606 0.416514 0.752488 0.000000
H150  H     H_    0.129081 0.468019 0.762140 0.000000
H151  H     H_    0.205836 0.583355 0.769975 0.000000
H152  H     H_    0.244317 0.596953 0.735120 0.000000
H153  H     H_    0.234844 0.460965 0.659888 0.000000
H154  H     H_    0.296146 0.508677 0.637502 0.000000
C155  C     C_3   0.059028 0.469086 0.668535 0.000000
C156  C     C_3   0.100304 0.504112 0.693882 0.000000
C157  C     C_3   0.112430 0.491175 0.655663 0.000000
C158  C     C_R   0.102578 0.551663 0.722863 0.000000
N29   N     N_R   0.069824 0.569246 0.705237 0.000000
C159  C     C_R   0.083589 0.608628 0.749017 0.000000
C160  C     C_R   0.060038 0.636804 0.755823 0.000000
C161  C     C_R   0.080451 0.677796 0.802205 0.000000
C162  C     C_R   0.124362 0.689999 0.840068 0.000000
C163  C     C_R   0.146518 0.659549 0.833234 0.000000
C164  C     C_R   0.124181 0.617129 0.788657 0.000000
N30   N     N_R   0.137176 0.580803 0.774655 0.000000
C165  C     C_2   0.147507 0.735375 0.887170 0.000000
O29   O     O_2   0.128123 0.762148 0.893299 0.000000
O30   O     O_2   0.190256 0.747776 0.923790 0.000000
H155  H     H_    0.032294 0.471173 0.639306 0.000000
H156  H     H_    0.062399 0.436181 0.649234 0.000000
H157  H     H_    0.052561 0.472547 0.696826 0.000000
H158  H     H_    0.123965 0.500947 0.723538 0.000000
H159  H     H_    0.129781 0.520523 0.661608 0.000000
H160  H     H_    0.131536 0.468933 0.657318 0.000000
H161  H     H_    0.083089 0.468359 0.617025 0.000000
H162  H     H_    0.027067 0.627558 0.724783 0.000000
H163  H     H_    0.062546 0.700872 0.807267 0.000000
H164  H     H_    0.181154 0.670868 0.860319 0.000000
H165  H     H_    0.205350 0.777676 0.954652 0.000000
C166  C     C_3   0.314813 0.489978 0.780532 0.000000
C167  C     C_3   0.311294 0.442954 0.761278 0.000000
C168  C     C_3   0.279148 0.419658 0.763956 0.000000
C169  C     C_R   0.303190 0.423059 0.710438 0.000000
N31   N     N_R   0.262584 0.404498 0.664098 0.000000
C170  C     C_R   0.275209 0.402515 0.633452 0.000000
C171  C     C_R   0.249237 0.384710 0.581750 0.000000
C172  C     C_R   0.269098 0.388800 0.558764 0.000000
C173  C     C_R   0.314242 0.410499 0.587522 0.000000
C174  C     C_R   0.340211 0.426517 0.639273 0.000000
C175  C     C_R   0.320119 0.420197 0.660637 0.000000
N32   N     N_R   0.339276 0.430841 0.709011 0.000000
C176  C     C_2   0.334670 0.415517 0.562908 0.000000
O31   O     O_2   0.312138 0.401827 0.517526 0.000000
O32   O     O_2   0.378464 0.435146 0.590300 0.000000
H166  H     H_    0.284647 0.495770 0.774502 0.000000
H167  H     H_    0.340377 0.510033 0.821267 0.000000
H168  H     H_    0.322362 0.499000 0.759232 0.000000
H169  H     H_    0.344068 0.442450 0.785128 0.000000
H170  H     H_    0.298183 0.414783 0.795051 0.000000
H171  H     H_    0.259665 0.439593 0.774274 0.000000
H172  H     H_    0.257486 0.387530 0.726785 0.000000
H173  H     H_    0.214544 0.366989 0.559187 0.000000
H174  H     H_    0.248835 0.375089 0.518075 0.000000
H175  H     H_    0.375205 0.443472 0.662419 0.000000
H176  H     H_    0.391876 0.438277 0.573994 0.000000
C177  C     C_3   0.489938 0.523643 0.753389 0.000000
C178  C     C_3   0.513590 0.519300 0.798275 0.000000
C179  C     C_3   0.507053 0.551178 0.839923 0.000000
C180  C     C_R   0.497635 0.471956 0.779382 0.000000
N33   N     N_R   0.452776 0.451010 0.753536 0.000000
C181  C     C_R   0.445529 0.411823 0.713318 0.000000
C182  C     C_R   0.406200 0.378781 0.672727 0.000000
C183  C     C_R   0.404471 0.343472 0.631328 0.000000
C184  C     C_R   0.442939 0.338844 0.634338 0.000000
C185  C     C_R   0.482909 0.370349 0.678874 0.000000
C186  C     C_R   0.483349 0.407694 0.716692 0.000000
N34   N     N_R   0.518208 0.443914 0.759985 0.000000
C187  C     C_2   0.441164 0.300429 0.590921 0.000000
O33   O     O_2   0.405784 0.273265 0.551649 0.000000
O34   O     O_2   0.478518 0.294913 0.594174 0.000000
H177  H     H_    0.453865 0.512647 0.734811 0.000000
H178  H     H_    0.501667 0.558766 0.767548 0.000000
H179  H     H_    0.497300 0.502988 0.724461 0.000000
H180  H     H_    0.548737 0.528583 0.812742 0.000000
H181  H     H_    0.506485 0.538087 0.861665 0.000000
H182  H     H_    0.533341 0.583784 0.866438 0.000000
H183  H     H_    0.476580 0.557429 0.822075 0.000000
H184  H     H_    0.377101 0.380074 0.672475 0.000000
H185  H     H_    0.372974 0.318620 0.597770 0.000000
H186  H     H_    0.513137 0.367346 0.682982 0.000000
H187  H     H_    0.477144 0.269597 0.565520 0.000000
C188  C     C_3   0.665687 0.180143 0.863653 0.000000
C189  C     C_3   0.666273 0.203859 0.839369 0.000000
C190  C     C_3   0.624599 0.178075 0.785506 0.000000
C191  C     C_R   0.670006 0.251411 0.872041 0.000000
N35   N     N_R   0.701551 0.277951 0.924654 0.000000
C192  C     C_R   0.682461 0.308584 0.940440 0.000000
C193  C     C_R   0.696732 0.343996 0.988873 0.000000
C194  C     C_R   0.672710 0.371799 0.995768 0.000000
C195  C     C_R   0.640039 0.370000 0.953897 0.000000
C196  C     C_R   0.625017 0.334558 0.905081 0.000000
C197  C     C_R   0.646513 0.304218 0.899754 0.000000
N36   N     N_R   0.638552 0.270140 0.855376 0.000000
C198  C     C_2   0.629879 0.409955 0.961202 0.000000
O35   O     O_2   0.644657 0.442500 0.004605 0.000000
O36   O     O_2   0.610020 0.413154 0.920899 0.000000
H188  H     H_    0.692721 0.199850 0.904820 0.000000
H189  H     H_    0.633877 0.174547 0.859368 0.000000
H190  H     H_    0.669623 0.147545 0.843680 0.000000
H191  H     H_    0.695245 0.202665 0.837276 0.000000
H192  H     H_    0.625122 0.191013 0.763980 0.000000
H193  H     H_    0.622820 0.142950 0.765044 0.000000
H194  H     H_    0.594885 0.179302 0.786325 0.000000
H195  H     H_    0.729511 0.356063 0.019614 0.000000
H196  H     H_    0.685014 0.399579 0.034441 0.000000
H197  H     H_    0.597946 0.331658 0.872122 0.000000
H198  H     H_    0.607047 0.441028 0.926341 0.000000
C199  C     C_3   0.691300 0.304940 0.766008 0.000000
C200  C     C_3   0.677970 0.264280 0.762069 0.000000
C201  C     C_3   0.688701 0.276050 0.811947 0.000000
C202  C     C_R   0.630823 0.238395 0.721936 0.000000
N37   N     N_R   0.596923 0.235050 0.729250 0.000000
C203  C     C_R   0.563430 0.202458 0.680881 0.000000
C204  C     C_R   0.523993 0.179254 0.665824 0.000000
C205  C     C_R   0.495432 0.144449 0.614211 0.000000
C206  C     C_R   0.506019 0.134862 0.578612 0.000000
C207  C     C_R   0.546984 0.157702 0.595263 0.000000
C208  C     C_R   0.575698 0.189582 0.646984 0.000000
N38   N     N_R   0.618809 0.210205 0.672115 0.000000
C209  C     C_2   0.474884 0.099175 0.523876 0.000000
O37   O     O_2   0.439225 0.077703 0.508884 0.000000
O38   O     O_2   0.485319 0.090482 0.489757 0.000000
H199  H     H_    0.670694 0.323600 0.775871 0.000000
H200  H     H_    0.726665 0.324178 0.796589 0.000000
H201  H     H_    0.685489 0.295524 0.728827 0.000000
H202  H     H_    0.696896 0.243965 0.752360 0.000000
H203  H     H_    0.691190 0.246507 0.811663 0.000000
H204  H     H_    0.720382 0.302721 0.843008 0.000000
H205  H     H_    0.662263 0.286758 0.814634 0.000000
H206  H     H_    0.517398 0.185951 0.694326 0.000000
H207  H     H_    0.464964 0.124118 0.601761 0.000000
H208  H     H_    0.557187 0.149275 0.569170 0.000000
H209  H     H_    0.464450 0.067679 0.453573 0.000000
C210  C     C_3   0.507059 0.355988 0.767383 0.000000
C211  C     C_3   0.535104 0.329872 0.754615 0.000000
C212  C     C_3   0.522276 0.303136 0.699803 0.000000
C213  C     C_R   0.581373 0.356632 0.790595 0.000000
N39   N     N_R   0.600693 0.399589 0.807088 0.000000
C214  C     C_R   0.642364 0.408444 0.844069 0.000000
C215  C     C_R   0.676696 0.447036 0.876527 0.000000
C216  C     C_R   0.718140 0.447777 0.905254 0.000000
C217  C     C_R   0.725216 0.409808 0.900262 0.000000
C218  C     C_R   0.689831 0.374451 0.878095 0.000000
C219  C     C_R   0.647891 0.373145 0.847377 0.000000
N40   N     N_R   0.609123 0.339271 0.814115 0.000000
C220  C     C_2   0.770207 0.408984 0.917917 0.000000
O39   O     O_2   0.798946 0.441133 0.935345 0.000000
O40   O     O_2   0.779937 0.372543 0.912258 0.000000
H210  H     H_    0.523625 0.391812 0.788964 0.000000
H211  H     H_    0.473926 0.343968 0.732791 0.000000
H212  H     H_    0.504236 0.350609 0.793588 0.000000
H213  H     H_    0.533025 0.305585 0.763140 0.000000
H214  H     H_    0.532772 0.273704 0.692487 0.000000
H215  H     H_    0.486223 0.291493 0.672514 0.000000
H216  H     H_    0.540843 0.322662 0.695362 0.000000
H217  H     H_    0.672673 0.476155 0.878699 0.000000
H218  H     H_    0.745231 0.478326 0.932560 0.000000
H219  H     H_    0.695599 0.349403 0.884917 0.000000
H220  H     H_    0.809833 0.373508 0.923627 0.000000
C221  C     C_3   0.580222 0.070255 0.168011 0.000000
C222  C     C_3   0.623442 0.069514 0.204870 0.000000
C223  C     C_3   0.658515 0.068438 0.193998 0.000000
C224  C     C_R   0.639762 0.098235 0.259987 0.000000
N41   N     N_R   0.642700 0.143254 0.287377 0.000000
C225  C     C_R   0.635978 0.145237 0.322465 0.000000
C226  C     C_R   0.634838 0.180366 0.361283 0.000000
C227  C     C_R   0.614209 0.172566 0.381394 0.000000
C228  C     C_R   0.593206 0.129561 0.360609 0.000000
C229  C     C_R   0.601820 0.095747 0.328948 0.000000
C230  C     C_R   0.627680 0.104917 0.314695 0.000000
N42   N     N_R   0.634331 0.075070 0.279108 0.000000
C231  C     C_2   0.559372 0.119892 0.368553 0.000000
O41   O     O_2   0.550357 0.150059 0.394226 0.000000
O42   O     O_2   0.537293 0.077718 0.346494 0.000000
H221  H     H_    0.584005 0.092119 0.156596 0.000000
H222  H     H_    0.561159 0.036251 0.132261 0.000000
H223  H     H_    0.560860 0.079229 0.185362 0.000000
H224  H     H_    0.612731 0.037544 0.197608 0.000000
H225  H     H_    0.672320 0.042455 0.196071 0.000000
H226  H     H_    0.644604 0.061024 0.155131 0.000000
H227  H     H_    0.685286 0.100412 0.224153 0.000000
H228  H     H_    0.646049 0.213396 0.374544 0.000000
H229  H     H_    0.610168 0.200136 0.408524 0.000000
H230  H     H_    0.581408 0.063126 0.307850 0.000000
H231  H     H_    0.514976 0.071563 0.351719 0.000000
C232  C     C_3   0.835817 0.239191 0.388260 0.000000
C233  C     C_3   0.791138 0.239832 0.371641 0.000000
C234  C     C_3   0.793471 0.288250 0.397825 0.000000
C235  C     C_R   0.761885 0.212981 0.314410 0.000000
N43   N     N_R   0.716610 0.202138 0.290381 0.000000
C236  C     C_R   0.702321 0.178338 0.240982 0.000000
C237  C     C_R   0.659125 0.156954 0.201019 0.000000
C238  C     C_R   0.647796 0.134823 0.151328 0.000000
C239  C     C_R   0.680585 0.132804 0.142570 0.000000
C240  C     C_R   0.724314 0.154752 0.183945 0.000000
C241  C     C_R   0.735730 0.176693 0.234252 0.000000
N44   N     N_R   0.775806 0.196003 0.280471 0.000000
C242  C     C_2   0.668880 0.103312 0.089536 0.000000
O43   O     O_2   0.697417 0.096054 0.081214 0.000000
O44   O     O_2   0.626319 0.082990 0.049739 0.000000
H232  H     H_    0.851276 0.262964 0.385474 0.000000
H233  H     H_    0.853776 0.249601 0.428810 0.000000
H234  H     H_    0.833201 0.204827 0.362563 0.000000
H235  H     H_    0.780076 0.223276 0.384610 0.000000
H236  H     H_    0.813181 0.305071 0.440186 0.000000
H237  H     H_    0.809301 0.306561 0.389565 0.000000
H238  H     H_    0.760475 0.290738 0.385035 0.000000
H239  H     H_    0.634801 0.154024 0.208508 0.000000
H240  H     H_    0.613596 0.116802 0.119906 0.000000
H241  H     H_    0.747658 0.149527 0.175098 0.000000
H242  H     H_    0.618661 0.063341 0.014895 0.000000
C243  C     C_3   0.819352 0.717348 0.133994 0.000000
C244  C     C_3   0.774918 0.695119 0.084903 0.000000
C245  C     C_3   0.738890 0.677421 0.086554 0.000000
C246  C     C_R   0.765000 0.718682 0.059772 0.000000
N45   N     N_R   0.763340 0.761762 0.079506 0.000000
C247  C     C_R   0.752394 0.764498 0.039538 0.000000
C248  C     C_R   0.747160 0.800127 0.037088 0.000000
C249  C     C_R   0.733150 0.795709 0.991591 0.000000
C250  C     C_R   0.724890 0.755705 0.948951 0.000000
C251  C     C_R   0.732637 0.720490 0.952752 0.000000
C252  C     C_R   0.746603 0.725619 0.998608 0.000000
N46   N     N_R   0.756116 0.696068 0.010734 0.000000
C253  C     C_2   0.707893 0.751017 0.900102 0.000000
O45   O     O_2   0.705049 0.783188 0.898293 0.000000
O46   O     O_2   0.694246 0.711062 0.856745 0.000000
H243  H     H_    0.832020 0.751486 0.146754 0.000000
H244  H     H_    0.816794 0.715278 0.161986 0.000000
H245  H     H_    0.841702 0.699366 0.127844 0.000000
H246  H     H_    0.775648 0.665388 0.057469 0.000000
H247  H     H_    0.711898 0.651574 0.046623 0.000000
H248  H     H_    0.750242 0.661387 0.107351 0.000000
H249  H     H_    0.727254 0.703706 0.103912 0.000000
H250  H     H_    0.754436 0.831220 0.069687 0.000000
H251  H     H_    0.728352 0.823846 0.989755 0.000000
H252  H     H_    0.728472 0.690433 0.920946 0.000000
H253  H     H_    0.682643 0.708172 0.824627 0.000000
C254  C     C_3   0.903166 0.891557 0.256683 0.000000
C255  C     C_3   0.882835 0.843248 0.219996 0.000000
C256  C     C_3   0.917866 0.823303 0.220740 0.000000
C257  C     C_R   0.861677 0.828876 0.238395 0.000000
N47   N     N_R   0.883050 0.816305 0.272296 0.000000
C258  C     C_R   0.847950 0.787265 0.257724 0.000000
C259  C     C_R   0.848878 0.754289 0.265203 0.000000
C260  C     C_R   0.809975 0.721247 0.238359 0.000000
C261  C     C_R   0.770208 0.723115 0.207139 0.000000
C262  C     C_R   0.769469 0.757042 0.200091 0.000000
C263  C     C_R   0.808954 0.786793 0.222920 0.000000
N48   N     N_R   0.816088 0.813137 0.209526 0.000000
C264  C     C_2   0.729258 0.689759 0.183026 0.000000
O47   O     O_2   0.729202 0.653690 0.175840 0.000000
O48   O     O_2   0.692191 0.699960 0.172043 0.000000
H254  H     H_    0.920279 0.899230 0.295740 0.000000
H255  H     H_    0.924081 0.903803 0.248133 0.000000
H256  H     H_    0.877016 0.905517 0.252712 0.000000
H257  H     H_    0.858192 0.833736 0.180532 0.000000
H258  H     H_    0.905011 0.787140 0.200803 0.000000
H259  H     H_    0.931787 0.831096 0.202971 0.000000
H260  H     H_    0.942816 0.838323 0.261630 0.000000
H261  H     H_    0.879176 0.754143 0.291510 0.000000
H262  H     H_    0.810798 0.694432 0.242904 0.000000
H263  H     H_    0.738965 0.759227 0.176002 0.000000
H264  H     H_    0.666541 0.679749 0.161427 0.000000
C265  C     C_3   0.826707 0.921013 0.133998 0.000000
C266  C     C_3   0.848217 0.923836 0.183892 0.000000
C267  C     C_3   0.884600 0.967805 0.225801 0.000000
C268  C     C_R   0.815290 0.919036 0.196500 0.000000
N49   N     N_R   0.801120 0.955344 0.213572 0.000000
C269  C     C_R   0.757260 0.936269 0.176545 0.000000
C270  C     C_R   0.725047 0.955306 0.167996 0.000000
C271  C     C_R   0.684700 0.930341 0.121183 0.000000
C272  C     C_R   0.674741 0.885176 0.087123 0.000000
C273  C     C_R   0.704391 0.864820 0.101762 0.000000
C274  C     C_R   0.746094 0.891462 0.144765 0.000000
N50   N     N_R   0.781201 0.878497 0.160126 0.000000
C275  C     C_2   0.633553 0.858501 0.035751 0.000000
O49   O     O_2   0.617665 0.819059 0.015312 0.000000
O50   O     O_2   0.614858 0.876224 0.009149 0.000000
H265  H     H_    0.801702 0.937711 0.130208 0.000000
H266  H     H_    0.852188 0.937003 0.133280 0.000000
H267  H     H_    0.811321 0.885930 0.100758 0.000000
H268  H     H_    0.861904 0.896566 0.177574 0.000000
H269  H     H_    0.896236 0.974609 0.263793 0.000000
H270  H     H_    0.912423 0.967295 0.221056 0.000000
H271  H     H_    0.871587 0.993677 0.222466 0.000000
H272  H     H_    0.730008 0.988112 0.196037 0.000000
H273  H     H_    0.660796 0.946354 0.112095 0.000000
H274  H     H_    0.696586 0.829539 0.076807 0.000000
H275  H     H_    0.628683 0.906298 0.022394 0.000000
C276  C     C_3   0.564161 0.237661 0.558841 0.000000
C277  C     C_3   0.596420 0.279908 0.611349 0.000000
C278  C     C_3   0.585481 0.285694 0.648880 0.000000
C279  C     C_R   0.643151 0.282987 0.629154 0.000000
N51   N     N_R   0.659029 0.248666 0.628184 0.000000
C280  C     C_R   0.688594 0.252780 0.617843 0.000000
C281  C     C_R   0.711002 0.224123 0.608704 0.000000
C282  C     C_R   0.739326 0.230934 0.596415 0.000000
C283  C     C_R   0.751176 0.270919 0.603787 0.000000
C284  C     C_R   0.732421 0.302871 0.620739 0.000000
C285  C     C_R   0.696264 0.290933 0.621074 0.000000
N52   N     N_R   0.667775 0.312413 0.629173 0.000000
C286  C     C_2   0.786736 0.279749 0.598167 0.000000
O51   O     O_2   0.797919 0.249331 0.576580 0.000000
O52   O     O_2   0.808583 0.321161 0.618376 0.000000
H276  H     H_    0.562668 0.209279 0.561899 0.000000
H277  H     H_    0.531000 0.240876 0.543202 0.000000
H278  H     H_    0.574149 0.232552 0.532390 0.000000
H279  H     H_    0.591446 0.306539 0.605944 0.000000
H280  H     H_    0.581820 0.318621 0.666078 0.000000
H281  H     H_    0.554081 0.259943 0.628681 0.000000
H282  H     H_    0.612035 0.284064 0.679251 0.000000
H283  H     H_    0.706572 0.196424 0.611117 0.000000
H284  H     H_    0.755746 0.207063 0.587103 0.000000
H285  H     H_    0.747372 0.335960 0.634542 0.000000
H286  H     H_    0.832844 0.325511 0.615340 0.000000
C287  C     C_3   0.732661 0.544080 0.734548 0.000000
C288  C     C_3   0.709959 0.504515 0.727658 0.000000
C289  C     C_3   0.665908 0.479197 0.676968 0.000000
C290  C     C_R   0.738083 0.475949 0.729651 0.000000
N53   N     N_R   0.721064 0.429989 0.702902 0.000000
C291  C     C_R   0.757659 0.421028 0.725122 0.000000
C292  C     C_R   0.760657 0.385982 0.729096 0.000000
C293  C     C_R   0.801983 0.383027 0.751912 0.000000
C294  C     C_R   0.837294 0.412780 0.765805 0.000000
C295  C     C_R   0.834869 0.452859 0.773953 0.000000
C296  C     C_R   0.794228 0.457257 0.756890 0.000000
N54   N     N_R   0.783697 0.493926 0.764532 0.000000
C297  C     C_2   0.875920 0.401471 0.769147 0.000000
O53   O     O_2   0.901852 0.424049 0.770296 0.000000
O54   O     O_2   0.879487 0.362940 0.763063 0.000000
H287  H     H_    0.747132 0.533304 0.711526 0.000000
H288  H     H_    0.709180 0.560374 0.721978 0.000000
H289  H     H_    0.758487 0.567730 0.775942 0.000000
H290  H     H_    0.704877 0.516441 0.759229 0.000000
H291  H     H_    0.648339 0.452137 0.673622 0.000000
H292  H     H_    0.645922 0.501253 0.675673 0.000000
H293  H     H_    0.670688 0.465577 0.645065 0.000000
H294  H     H_    0.732735 0.363079 0.717833 0.000000
H295  H     H_    0.806403 0.357106 0.757493 0.000000
H296  H     H_    0.864064 0.478850 0.792661 0.000000
H297  H     H_    0.902367 0.352970 0.759311 0.000000
C298  C     C_3   0.678488 0.457833 0.797235 0.000000
C299  C     C_3   0.667104 0.416934 0.750866 0.000000
C300  C     C_3   0.668591 0.380073 0.756932 0.000000
C301  C     C_R   0.623544 0.408454 0.710999 0.000000
N55   N     N_R   0.590302 0.420309 0.717934 0.000000
C302  C     C_R   0.558350 0.406364 0.669241 0.000000
C303  C     C_R   0.519683 0.415331 0.651746 0.000000
C304  C     C_R   0.488587 0.390405 0.599119 0.000000
C305  C     C_R   0.496638 0.357225 0.565461 0.000000
C306  C     C_R   0.538249 0.353381 0.583947 0.000000
C307  C     C_R   0.570033 0.382438 0.635833 0.000000
N56   N     N_R   0.613111 0.387209 0.661874 0.000000
C308  C     C_2   0.461679 0.327298 0.510323 0.000000
O55   O     O_2   0.425290 0.331059 0.493824 0.000000
O56   O     O_2   0.469579 0.295450 0.477683 0.000000
H298  H     H_    0.709357 0.460581 0.827410 0.000000
H299  H     H_    0.680068 0.484112 0.790748 0.000000
H300  H     H_    0.652786 0.454953 0.803391 0.000000
H301  H     H_    0.690809 0.420658 0.742153 0.000000
H302  H     H_    0.668641 0.352997 0.724430 0.000000
H303  H     H_    0.699331 0.390216 0.793524 0.000000
H304  H     H_    0.639065 0.369468 0.755199 0.000000
H305  H     H_    0.512319 0.439170 0.677792 0.000000
H306  H     H_    0.457033 0.395289 0.585009 0.000000
H307  H     H_    0.545980 0.329453 0.558213 0.000000
H308  H     H_    0.446577 0.275947 0.441387 0.000000
C309  C     C_3   0.817534 0.482857 0.690380 0.000000
C310  C     C_3   0.854116 0.523931 0.741077 0.000000
C311  C     C_3   0.901406 0.528625 0.758256 0.000000
C312  C     C_R   0.844142 0.564225 0.749025 0.000000
N57   N     N_R   0.841629 0.584321 0.723760 0.000000
C313  C     C_R   0.831787 0.620481 0.749557 0.000000
C314  C     C_R   0.821129 0.652002 0.740029 0.000000
C315  C     C_R   0.809468 0.684574 0.768567 0.000000
C316  C     C_R   0.804030 0.683348 0.803452 0.000000
C317  C     C_R   0.809616 0.648651 0.808550 0.000000
C318  C     C_R   0.826547 0.619684 0.784474 0.000000
N58   N     N_R   0.834739 0.584626 0.785598 0.000000
C319  C     C_2   0.791367 0.717950 0.833696 0.000000
O57   O     O_2   0.782596 0.746182 0.825599 0.000000
O58   O     O_2   0.791025 0.719730 0.871881 0.000000
H309  H     H_    0.812700 0.480716 0.656928 0.000000
H310  H     H_    0.823282 0.453218 0.689473 0.000000
H311  H     H_    0.786298 0.484204 0.687605 0.000000
H312  H     H_    0.852779 0.522589 0.770001 0.000000
H313  H     H_    0.921936 0.544900 0.800153 0.000000
H314  H     H_    0.905403 0.495844 0.742151 0.000000
H315  H     H_    0.913578 0.550185 0.750478 0.000000
H316  H     H_    0.818630 0.650688 0.709042 0.000000
H317  H     H_    0.802534 0.709646 0.761231 0.000000
H318  H     H_    0.798572 0.643351 0.828695 0.000000
H319  H     H_    0.784156 0.743407 0.892869 0.000000
C320  C     C_3   0.951495 0.643025 0.675649 0.000000
C321  C     C_3   0.912731 0.600555 0.633164 0.000000
C322  C     C_3   0.892538 0.583805 0.577589 0.000000
C323  C     C_R   0.921203 0.566725 0.642242 0.000000
N59   N     N_R   0.956474 0.551360 0.646581 0.000000
C324  C     C_R   0.951834 0.526036 0.661832 0.000000
C325  C     C_R   0.978911 0.504298 0.674494 0.000000
C326  C     C_R   0.963712 0.470337 0.675095 0.000000
C327  C     C_R   0.922985 0.461618 0.667033 0.000000
C328  C     C_R   0.899580 0.490156 0.663495 0.000000
C329  C     C_R   0.915037 0.523090 0.662079 0.000000
N60   N     N_R   0.895081 0.550608 0.652464 0.000000
C330  C     C_2   0.905327 0.422746 0.662978 0.000000
O59   O     O_2   0.923955 0.395388 0.660818 0.000000
O60   O     O_2   0.869483 0.418210 0.663975 0.000000
H320  H     H_    0.941500 0.672318 0.681642 0.000000
H321  H     H_    0.965235 0.645769 0.712233 0.000000
H322  H     H_    0.976666 0.642928 0.667583 0.000000
H323  H     H_    0.886615 0.604961 0.638357 0.000000
H324  H     H_    0.862122 0.592211 0.563749 0.000000
H325  H     H_    0.914834 0.598764 0.573006 0.000000
H326  H     H_    0.882507 0.547217 0.554018 0.000000
H327  H     H_    0.010282 0.513582 0.682055 0.000000
H328  H     H_    0.982111 0.448458 0.677351 0.000000
H329  H     H_    0.867985 0.484264 0.656502 0.000000
H330  H     H_    0.861899 0.397374 0.670066 0.000000
C331  C     C_3   0.964547 0.398250 0.562122 0.000000
C332  C     C_3   0.952784 0.416400 0.530072 0.000000
C333  C     C_3   0.917382 0.436522 0.531164 0.000000
C334  C     C_R   0.992596 0.447611 0.544588 0.000000
N61   N     N_R   0.008894 0.493903 0.580609 0.000000
C335  C     C_R   0.041557 0.506019 0.577349 0.000000
C336  C     C_R   0.070268 0.548240 0.605945 0.000000
C337  C     C_R   0.094933 0.555738 0.589426 0.000000
C338  C     C_R   0.090920 0.521027 0.545531 0.000000
C339  C     C_R   0.067205 0.477766 0.522771 0.000000
C340  C     C_R   0.043204 0.470940 0.540088 0.000000
N62   N     N_R   0.014481 0.432457 0.519690 0.000000
C341  C     C_2   0.111844 0.529999 0.523323 0.000000
O61   O     O_2   0.135344 0.567392 0.545292 0.000000
O62   O     O_2   0.104790 0.496946 0.478249 0.000000
H331  H     H_    0.964984 0.420579 0.596582 0.000000
H332  H     H_    0.939304 0.365670 0.539589 0.000000
H333  H     H_    0.996916 0.394397 0.572582 0.000000
H334  H     H_    0.937364 0.386114 0.491225 0.000000
H335  H     H_    0.898780 0.438183 0.497540 0.000000
H336  H     H_    0.893852 0.414917 0.529023 0.000000
H337  H     H_    0.931951 0.469909 0.566879 0.000000
H338  H     H_    0.072652 0.575563 0.639001 0.000000
H339  H     H_    0.115229 0.589258 0.609369 0.000000
H340  H     H_    0.067659 0.450458 0.492217 0.000000
H341  H     H_    0.119192 0.502578 0.464097 0.000000
C342  C     C_3   0.603822 0.560877 0.914314 0.000000
C343  C     C_3   0.647812 0.554908 0.933693 0.000000
C344  C     C_3   0.643709 0.516680 0.938536 0.000000
C345  C     C_R   0.660381 0.547180 0.896669 0.000000
N63   N     N_R   0.629176 0.515427 0.843688 0.000000
C346  C     C_R   0.634674 0.536243 0.823979 0.000000
C347  C     C_R   0.608063 0.522575 0.773845 0.000000
C348  C     C_R   0.619638 0.546214 0.758811 0.000000
C349  C     C_R   0.658295 0.582172 0.793915 0.000000
C350  C     C_R   0.684223 0.596120 0.845072 0.000000
C351  C     C_R   0.670536 0.574105 0.860405 0.000000
N64   N     N_R   0.690402 0.581919 0.908031 0.000000
C352  C     C_2   0.671507 0.605195 0.776389 0.000000
O63   O     O_2   0.645627 0.597845 0.734235 0.000000
O64   O     O_2   0.712632 0.633437 0.805812 0.000000
H342  H     H_    0.578503 0.527790 0.883012 0.000000
H343  H     H_    0.597379 0.575932 0.944835 0.000000
H344  H     H_    0.603473 0.582855 0.901446 0.000000
H345  H     H_    0.670171 0.586144 0.971631 0.000000
H346  H     H_    0.633659 0.524458 0.965573 0.000000
H347  H     H_    0.618598 0.486041 0.900438 0.000000
H348  H     H_    0.675592 0.511483 0.953706 0.000000
H349  H     H_    0.577971 0.495122 0.747443 0.000000
H350  H     H_    0.598866 0.535501 0.719142 0.000000
H351  H     H_    0.714194 0.623109 0.871479 0.000000
H352  H     H_    0.720855 0.647401 0.792866 0.000000
C353  C     C_3   0.448493 0.447318 0.069162 0.000000
C354  C     C_3   0.410277 0.409215 0.044846 0.000000
C355  C     C_3   0.386685 0.379141 0.988138 0.000000
C356  C     C_R   0.418361 0.384431 0.068849 0.000000
N65   N     N_R   0.417324 0.340232 0.045677 0.000000
C357  C     C_R   0.413557 0.330494 0.075475 0.000000
C358  C     C_R   0.408663 0.290460 0.068882 0.000000
C359  C     C_R   0.401994 0.285895 0.101274 0.000000
C360  C     C_R   0.401736 0.321732 0.140752 0.000000
C361  C     C_R   0.406941 0.362123 0.146838 0.000000
C362  C     C_R   0.412492 0.365491 0.113346 0.000000
N66   N     N_R   0.415928 0.400801 0.111195 0.000000
C363  C     C_2   0.399499 0.317606 0.178233 0.000000
O65   O     O_2   0.386696 0.281064 0.168186 0.000000
O66   O     O_2   0.416424 0.353942 0.226027 0.000000
H353  H     H_    0.443055 0.476483 0.092876 0.000000
H354  H     H_    0.480148 0.443879 0.091359 0.000000
H355  H     H_    0.446565 0.452955 0.041020 0.000000
H356  H     H_    0.388332 0.425503 0.052374 0.000000
H357  H     H_    0.396988 0.350777 0.980924 0.000000
H358  H     H_    0.351609 0.369301 0.971518 0.000000
H359  H     H_    0.393843 0.393609 0.970855 0.000000
H360  H     H_    0.410012 0.263352 0.039353 0.000000
H361  H     H_    0.398200 0.254476 0.096394 0.000000
H362  H     H_    0.406736 0.390012 0.176958 0.000000
H363  H     H_    0.420123 0.350708 0.252611 0.000000
C364  C     C_3   0.308877 0.391988 0.021513 0.000000
C365  C     C_3   0.323527 0.437602 0.068513 0.000000
C366  C     C_3   0.303758 0.468597 0.057321 0.000000
C367  C     C_R   0.312944 0.432625 0.100110 0.000000
N67   N     N_R   0.270629 0.413028 0.083342 0.000000
C368  C     C_R   0.279048 0.400287 0.115045 0.000000
C369  C     C_R   0.249047 0.371551 0.109069 0.000000
C370  C     C_R   0.263271 0.359717 0.142980 0.000000
C371  C     C_R   0.307406 0.375942 0.182054 0.000000
C372  C     C_R   0.338371 0.403561 0.186415 0.000000
C373  C     C_R   0.323456 0.414568 0.151106 0.000000
N68   N     N_R   0.346433 0.435480 0.142317 0.000000
C374  C     C_2   0.319973 0.362269 0.217344 0.000000
O67   O     O_2   0.292995 0.334038 0.208539 0.000000
O68   O     O_2   0.360662 0.381013 0.259943 0.000000
H364  H     H_    0.277897 0.372565 0.009176 0.000000
H365  H     H_    0.305123 0.393116 0.989865 0.000000
H366  H     H_    0.332005 0.374623 0.031542 0.000000
H367  H     H_    0.359134 0.452860 0.091497 0.000000
H368  H     H_    0.277664 0.471717 0.064154 0.000000
H369  H     H_    0.328945 0.500780 0.083648 0.000000
H370  H     H_    0.292635 0.458690 0.018618 0.000000
H371  H     H_    0.214723 0.359218 0.079487 0.000000
H372  H     H_    0.239086 0.337965 0.138749 0.000000
H373  H     H_    0.372740 0.415615 0.216333 0.000000
H374  H     H_    0.368090 0.371422 0.282572 0.000000
C375  C     C_3   0.556731 0.505997 0.260245 0.000000
C376  C     C_3   0.517885 0.463267 0.220304 0.000000
C377  C     C_3   0.525365 0.424464 0.184848 0.000000
C378  C     C_R   0.499992 0.456728 0.245942 0.000000
N69   N     N_R   0.526857 0.466121 0.295131 0.000000
C379  C     C_R   0.503081 0.483194 0.315321 0.000000
C380  C     C_R   0.517183 0.507096 0.366402 0.000000
C381  C     C_R   0.489556 0.526107 0.379916 0.000000
C382  C     C_R   0.448551 0.521857 0.342828 0.000000
C383  C     C_R   0.435761 0.499962 0.291895 0.000000
C384  C     C_R   0.463916 0.481544 0.279495 0.000000
N70   N     N_R   0.460800 0.464878 0.234941 0.000000
C385  C     C_2   0.419897 0.542204 0.358357 0.000000
O69   O     O_2   0.431734 0.562332 0.403327 0.000000
O70   O     O_2   0.380308 0.538585 0.323122 0.000000
H375  H     H_    0.579337 0.506453 0.294284 0.000000
H376  H     H_    0.574796 0.510287 0.244738 0.000000
H377  H     H_    0.544816 0.534323 0.273302 0.000000
H378  H     H_    0.490110 0.467982 0.194684 0.000000
H379  H     H_    0.496680 0.406725 0.145104 0.000000
H380  H     H_    0.552588 0.436262 0.183812 0.000000
H381  H     H_    0.530111 0.400598 0.194841 0.000000
H382  H     H_    0.549689 0.512344 0.395836 0.000000
H383  H     H_    0.500616 0.544603 0.419994 0.000000
H384  H     H_    0.405243 0.498279 0.262895 0.000000
H385  H     H_    0.361632 0.552049 0.333689 0.000000
C386  C     C_3   0.404263 0.571376 0.244158 0.000000
C387  C     C_3   0.374219 0.550097 0.186664 0.000000
C388  C     C_3   0.346770 0.578840 0.178443 0.000000
C389  C     C_R   0.401982 0.544897 0.165327 0.000000
N71   N     N_R   0.420190 0.580206 0.167374 0.000000
C390  C     C_R   0.461523 0.579565 0.184764 0.000000
C391  C     C_R   0.499004 0.615825 0.219971 0.000000
C392  C     C_R   0.538570 0.609787 0.230645 0.000000
C393  C     C_R   0.539624 0.567410 0.208410 0.000000
C394  C     C_R   0.503495 0.532938 0.186318 0.000000
C395  C     C_R   0.464965 0.541239 0.180375 0.000000
N72   N     N_R   0.427282 0.517202 0.168287 0.000000
C396  C     C_2   0.579618 0.560053 0.210950 0.000000
O71   O     O_2   0.612920 0.591477 0.237009 0.000000
O72   O     O_2   0.579564 0.518772 0.183467 0.000000
H386  H     H_    0.422546 0.606380 0.263834 0.000000
H387  H     H_    0.384545 0.569949 0.259459 0.000000
H388  H     H_    0.428041 0.553826 0.252043 0.000000
H389  H     H_    0.352227 0.517645 0.169211 0.000000
H390  H     H_    0.317351 0.559574 0.138511 0.000000
H391  H     H_    0.336148 0.590775 0.205318 0.000000
H392  H     H_    0.366298 0.608197 0.186969 0.000000
H393  H     H_    0.498542 0.648497 0.240571 0.000000
H394  H     H_    0.567801 0.638113 0.254607 0.000000
H395  H     H_    0.505559 0.500594 0.170220 0.000000
H396  H     H_    0.606285 0.514767 0.185845 0.000000
C397  C     C_3   0.384445 0.195392 0.802901 0.000000
C398  C     C_3   0.404693 0.220657 0.859964 0.000000
C399  C     C_3   0.445603 0.209731 0.884153 0.000000
C400  C     C_R   0.414815 0.269678 0.884625 0.000000
N73   N     N_R   0.415189 0.291495 0.861534 0.000000
C401  C     C_R   0.429203 0.333913 0.900609 0.000000
C402  C     C_R   0.429160 0.370122 0.898716 0.000000
C403  C     C_R   0.457063 0.410801 0.943816 0.000000
C404  C     C_R   0.480101 0.414055 0.989174 0.000000
C405  C     C_R   0.468325 0.378973 0.990417 0.000000
C406  C     C_R   0.441176 0.337937 0.944681 0.000000
N74   N     N_R   0.426672 0.297837 0.935194 0.000000
C407  C     C_2   0.516155 0.454841 0.036055 0.000000
O73   O     O_2   0.518367 0.489774 0.039806 0.000000
O74   O     O_2   0.549439 0.452707 0.072675 0.000000
H397  H     H_    0.406744 0.208589 0.796521 0.000000
H398  H     H_    0.379953 0.159736 0.786580 0.000000
H399  H     H_    0.351894 0.198888 0.784108 0.000000
H400  H     H_    0.381781 0.209186 0.866731 0.000000
H401  H     H_    0.467282 0.235504 0.926172 0.000000
H402  H     H_    0.435704 0.177300 0.877548 0.000000
H403  H     H_    0.463296 0.206582 0.865494 0.000000
H404  H     H_    0.409412 0.366997 0.863162 0.000000
H405  H     H_    0.464481 0.438665 0.942967 0.000000
H406  H     H_    0.478846 0.386020 0.026855 0.000000
H407  H     H_    0.576144 0.477900 0.099480 0.000000
C408  C     C_3   0.567666 0.302803 0.059379 0.000000
C409  C     C_3   0.536695 0.319980 0.075374 0.000000
C410  C     C_3   0.512698 0.336349 0.044695 0.000000
C411  C     C_R   0.507834 0.283644 0.064607 0.000000
N75   N     N_R   0.466056 0.260004 0.019355 0.000000
C412  C     C_R   0.463547 0.218239 0.006337 0.000000
C413  C     C_R   0.433384 0.179367 0.959833 0.000000
C414  C     C_R   0.438852 0.139884 0.953296 0.000000
C415  C     C_R   0.474855 0.139789 0.992266 0.000000
C416  C     C_R   0.506295 0.179518 0.038022 0.000000
C417  C     C_R   0.499747 0.218197 0.044261 0.000000
N76   N     N_R   0.528104 0.259773 0.083330 0.000000
C418  C     C_2   0.480197 0.097682 0.984666 0.000000
O75   O     O_2   0.453093 0.062512 0.944404 0.000000
O76   O     O_2   0.514956 0.097691 0.022311 0.000000
H408  H     H_    0.548500 0.272040 0.019692 0.000000
H409  H     H_    0.586156 0.327766 0.060203 0.000000
H410  H     H_    0.590837 0.294848 0.085044 0.000000
H411  H     H_    0.550386 0.346444 0.115145 0.000000
H412  H     H_    0.501556 0.311827 0.004268 0.000000
H413  H     H_    0.485655 0.342411 0.049700 0.000000
H414  H     H_    0.536075 0.367677 0.060528 0.000000
H415  H     H_    0.406133 0.179483 0.929217 0.000000
H416  H     H_    0.414781 0.109025 0.917137 0.000000
H417  H     H_    0.535729 0.180465 0.067607 0.000000
H418  H     H_    0.518394 0.069973 0.017361 0.000000
C419  C     C_3   0.311043 0.243288 0.840990 0.000000
C420  C     C_3   0.318461 0.271785 0.892044 0.000000
C421  C     C_3   0.287467 0.296784 0.891794 0.000000
C422  C     C_R   0.311477 0.243354 0.906343 0.000000
N77   N     N_R   0.270104 0.217479 0.886481 0.000000
C423  C     C_R   0.281677 0.195849 0.909134 0.000000
C424  C     C_R   0.253585 0.167393 0.905755 0.000000
C425  C     C_R   0.270965 0.144864 0.927659 0.000000
C426  C     C_R   0.315940 0.152186 0.953542 0.000000
C427  C     C_R   0.344434 0.185259 0.962034 0.000000
C428  C     C_R   0.326858 0.207038 0.939045 0.000000
N78   N     N_R   0.347499 0.238813 0.939389 0.000000
C429  C     C_2   0.333024 0.123221 0.969666 0.000000
O77   O     O_2   0.310028 0.099239 0.970238 0.000000
O78   O     O_2   0.373208 0.120979 0.980848 0.000000
H419  H     H_    0.278759 0.240188 0.813541 0.000000
H420  H     H_    0.334710 0.257290 0.837594 0.000000
H421  H     H_    0.315200 0.212135 0.836015 0.000000
H422  H     H_    0.352308 0.292294 0.918170 0.000000
H423  H     H_    0.290773 0.313363 0.929135 0.000000
H424  H     H_    0.293410 0.320997 0.883970 0.000000
H425  H     H_    0.254660 0.271989 0.861648 0.000000
H426  H     H_    0.218633 0.161551 0.884986 0.000000
H427  H     H_    0.248846 0.120172 0.922411 0.000000
H428  H     H_    0.379060 0.192213 0.984967 0.000000
H429  H     H_    0.383832 0.100688 0.989592 0.000000
C430  C     C_3   0.101741 0.420380 0.898852 0.000000
C431  C     C_3   0.150258 0.436451 0.922989 0.000000
C432  C     C_3   0.157129 0.453410 0.895235 0.000000
C433  C     C_R   0.178307 0.468372 0.982197 0.000000
N79   N     N_R   0.187172 0.514703 0.009147 0.000000
C434  C     C_R   0.204096 0.526253 0.057431 0.000000
C435  C     C_R   0.215981 0.567641 0.100124 0.000000
C436  C     C_R   0.235586 0.573831 0.147338 0.000000
C437  C     C_R   0.245237 0.539339 0.151603 0.000000
C438  C     C_R   0.232232 0.497946 0.107926 0.000000
C439  C     C_R   0.209517 0.491453 0.060897 0.000000
N80   N     N_R   0.194542 0.453464 0.014770 0.000000
C440  C     C_2   0.272356 0.547461 0.202455 0.000000
O79   O     O_2   0.277763 0.580852 0.240378 0.000000
O80   O     O_2   0.294364 0.519777 0.207940 0.000000
H430  H     H_    0.096335 0.417294 0.925019 0.000000
H431  H     H_    0.085988 0.442113 0.888375 0.000000
H432  H     H_    0.087431 0.386928 0.862578 0.000000
H433  H     H_    0.155602 0.404890 0.910337 0.000000
H434  H     H_    0.149308 0.484292 0.905056 0.000000
H435  H     H_    0.191037 0.458533 0.904914 0.000000
H436  H     H_    0.134492 0.428434 0.853031 0.000000
H437  H     H_    0.210819 0.595230 0.097995 0.000000
H438  H     H_    0.245885 0.606530 0.181137 0.000000
H439  H     H_    0.241730 0.471921 0.110604 0.000000
H440  H     H_    0.314449 0.526542 0.241825 0.000000
C441  C     C_3   0.270208 0.295282 0.003722 0.000000
C442  C     C_3   0.220950 0.273996 0.964393 0.000000
C443  C     C_3   0.197919 0.274842 0.990315 0.000000
C444  C     C_R   0.203285 0.294695 0.934722 0.000000
N81   N     N_R   0.199831 0.337165 0.955803 0.000000
C445  C     C_R   0.201039 0.346734 0.925082 0.000000
C446  C     C_R   0.219952 0.388468 0.943662 0.000000
C447  C     C_R   0.231119 0.398182 0.917970 0.000000
C448  C     C_R   0.224018 0.364645 0.872561 0.000000
C449  C     C_R   0.207774 0.320535 0.854598 0.000000
C450  C     C_R   0.199519 0.312047 0.884466 0.000000
N82   N     N_R   0.199608 0.276580 0.887973 0.000000
C451  C     C_2   0.237868 0.378426 0.848162 0.000000
O81   O     O_2   0.254271 0.417692 0.868617 0.000000
O82   O     O_2   0.233845 0.349147 0.804364 0.000000
H441  H     H_    0.278103 0.328236 0.037172 0.000000
H442  H     H_    0.282630 0.274070 0.017289 0.000000
H443  H     H_    0.286540 0.297907 0.985508 0.000000
H444  H     H_    0.216054 0.239015 0.937202 0.000000
H445  H     H_    0.169129 0.244320 0.964324 0.000000
H446  H     H_    0.220749 0.276554 0.025724 0.000000
H447  H     H_    0.186833 0.303807 0.000178 0.000000
H448  H     H_    0.229153 0.413225 0.980746 0.000000
H449  H     H_    0.246587 0.432486 0.935113 0.000000
H450  H     H_    0.206802 0.295253 0.821567 0.000000
H451  H     H_    0.239815 0.360835 0.788244 0.000000
C452  C     C_3   0.054032 0.292038 0.928562 0.000000
C453  C     C_3   0.096149 0.323366 0.949209 0.000000
C454  C     C_3   0.092702 0.333737 0.912329 0.000000
C455  C     C_R   0.111708 0.364652 0.999808 0.000000
N83   N     N_R   0.086432 0.378020 0.020558 0.000000
C456  C     C_R   0.118453 0.407526 0.070975 0.000000
C457  C     C_R   0.113344 0.434857 0.109860 0.000000
C458  C     C_R   0.149236 0.460046 0.160075 0.000000
C459  C     C_R   0.190380 0.458772 0.170514 0.000000
C460  C     C_R   0.195919 0.436885 0.130284 0.000000
C461  C     C_R   0.159326 0.411506 0.079988 0.000000
N84   N     N_R   0.156552 0.386689 0.034990 0.000000
C462  C     C_2   0.227686 0.479636 0.223921 0.000000
O83   O     O_2   0.225021 0.505822 0.259627 0.000000
O84   O     O_2   0.263863 0.467599 0.233706 0.000000
H452  H     H_    0.030063 0.309342 0.929406 0.000000
H453  H     H_    0.041016 0.263887 0.888769 0.000000
H454  H     H_    0.061110 0.279344 0.952722 0.000000
H455  H     H_    0.120859 0.306576 0.954873 0.000000
H456  H     H_    0.125235 0.355016 0.928583 0.000000
H457  H     H_    0.081319 0.302719 0.874603 0.000000
H458  H     H_    0.069973 0.352408 0.908354 0.000000
H459  H     H_    0.082096 0.437130 0.101883 0.000000
H460  H     H_    0.144385 0.479197 0.190764 0.000000
H461  H     H_    0.228472 0.439305 0.139772 0.000000
H462  H     H_    0.287850 0.480261 0.268871 0.000000
C463  C     C_3   0.553116 0.313645 0.252488 0.000000
C464  C     C_3   0.542798 0.336855 0.226105 0.000000
C465  C     C_3   0.512564 0.360664 0.237285 0.000000
C466  C     C_R   0.583266 0.366756 0.240924 0.000000
N85   N     N_R   0.597836 0.413010 0.274325 0.000000
C467  C     C_R   0.616526 0.426028 0.256396 0.000000
C468  C     C_R   0.634044 0.468722 0.272875 0.000000
C469  C     C_R   0.644259 0.475339 0.243865 0.000000
C470  C     C_R   0.637359 0.439432 0.199033 0.000000
C471  C     C_R   0.622773 0.397160 0.185451 0.000000
C472  C     C_R   0.613440 0.390490 0.215208 0.000000
N86   N     N_R   0.596329 0.351766 0.206872 0.000000
C473  C     C_2   0.648383 0.445939 0.167800 0.000000
O85   O     O_2   0.666855 0.483067 0.183224 0.000000
O86   O     O_2   0.639374 0.410867 0.122680 0.000000
H463  H     H_    0.559724 0.336355 0.291261 0.000000
H464  H     H_    0.524458 0.283901 0.230328 0.000000
H465  H     H_    0.581490 0.303525 0.254518 0.000000
H466  H     H_    0.524194 0.311072 0.183995 0.000000
H467  H     H_    0.531257 0.391034 0.276650 0.000000
H468  H     H_    0.493502 0.367695 0.208473 0.000000
H469  H     H_    0.489161 0.338641 0.234790 0.000000
H470  H     H_    0.640089 0.497089 0.307843 0.000000
H471  H     H_    0.656376 0.508668 0.255760 0.000000
H472  H     H_    0.620447 0.370011 0.152636 0.000000
H473  H     H_    0.647156 0.415269 0.102612 0.000000
C474  C     C_3   0.702989 0.425181 0.434361 0.000000
C475  C     C_3   0.661746 0.409193 0.385241 0.000000
C476  C     C_3   0.655928 0.363074 0.347494 0.000000
C477  C     C_R   0.626425 0.413833 0.393896 0.000000
N87   N     N_R   0.625295 0.408837 0.429298 0.000000
C478  C     C_R   0.591315 0.423059 0.428651 0.000000
C479  C     C_R   0.579298 0.435326 0.462574 0.000000
C480  C     C_R   0.541262 0.445516 0.451940 0.000000
C481  C     C_R   0.513958 0.439935 0.405408 0.000000
C482  C     C_R   0.529112 0.432109 0.374213 0.000000
C483  C     C_R   0.571207 0.430968 0.391787 0.000000
N88   N     N_R   0.595205 0.430263 0.372608 0.000000
C484  C     C_2   0.470526 0.444362 0.391374 0.000000
O87   O     O_2   0.458985 0.453157 0.420729 0.000000
O88   O     O_2   0.443851 0.440660 0.347241 0.000000
H474  H     H_    0.700672 0.399923 0.441745 0.000000
H475  H     H_    0.730734 0.429378 0.430436 0.000000
H476  H     H_    0.705074 0.456055 0.465298 0.000000
H477  H     H_    0.662042 0.428116 0.370286 0.000000
H478  H     H_    0.649761 0.359541 0.312419 0.000000
H479  H     H_    0.685989 0.355509 0.364772 0.000000
H480  H     H_    0.629126 0.341494 0.339890 0.000000
H481  H     H_    0.597673 0.436473 0.496300 0.000000
H482  H     H_    0.531518 0.454144 0.478499 0.000000
H483  H     H_    0.508241 0.425410 0.336602 0.000000
H484  H     H_    0.417718 0.448645 0.341694 0.000000
C485  C     C_3   0.712062 0.482818 0.374864 0.000000
C486  C     C_3   0.720084 0.514059 0.426104 0.000000
C487  C     C_3   0.769247 0.537869 0.463386 0.000000
C488  C     C_R   0.692114 0.542664 0.423227 0.000000
N89   N     N_R   0.710508 0.588676 0.457968 0.000000
C489  C     C_R   0.674438 0.600102 0.450306 0.000000
C490  C     C_R   0.673618 0.640015 0.482634 0.000000
C491  C     C_R   0.633852 0.645865 0.471975 0.000000
C492  C     C_R   0.595425 0.612548 0.426749 0.000000
C493  C     C_R   0.597065 0.571773 0.394935 0.000000
C494  C     C_R   0.636810 0.564599 0.410270 0.000000
N90   N     N_R   0.645634 0.525949 0.391681 0.000000
C495  C     C_2   0.553611 0.621296 0.413152 0.000000
O89   O     O_2   0.552492 0.655825 0.443629 0.000000
O90   O     O_2   0.516606 0.592245 0.366471 0.000000
H485  H     H_    0.717956 0.501935 0.361319 0.000000
H486  H     H_    0.732406 0.461257 0.377493 0.000000
H487  H     H_    0.677908 0.462689 0.348003 0.000000
H488  H     H_    0.710761 0.495920 0.438246 0.000000
H489  H     H_    0.784219 0.519809 0.479979 0.000000
H490  H     H_    0.784127 0.536314 0.442453 0.000000
H491  H     H_    0.778107 0.571865 0.494987 0.000000
H492  H     H_    0.703059 0.664822 0.517790 0.000000
H493  H     H_    0.633438 0.677406 0.498133 0.000000
H494  H     H_    0.568338 0.547363 0.358526 0.000000
H495  H     H_    0.489579 0.599018 0.357447 0.000000
C496  C     C_3   0.394124 0.701585 0.056014 0.000000
C497  C     C_3   0.389415 0.679713 0.079297 0.000000
C498  C     C_3   0.342664 0.671173 0.064040 0.000000
C499  C     C_R   0.400668 0.638392 0.059633 0.000000
N91   N     N_R   0.403691 0.618570 0.016750 0.000000
C500  C     C_R   0.404193 0.578930 0.008423 0.000000
C501  C     C_R   0.388339 0.541885 0.961595 0.000000
C502  C     C_R   0.371561 0.502364 0.951927 0.000000
C503  C     C_R   0.380505 0.499037 0.991359 0.000000
C504  C     C_R   0.401272 0.536699 0.040831 0.000000
C505  C     C_R   0.405583 0.576105 0.045418 0.000000
N92   N     N_R   0.402530 0.613078 0.078616 0.000000
C506  C     C_2   0.358469 0.457202 0.977416 0.000000
O91   O     O_2   0.353475 0.456023 0.007805 0.000000
O92   O     O_2   0.339283 0.420838 0.929148 0.000000
H496  H     H_    0.425570 0.701029 0.060688 0.000000
H497  H     H_    0.368675 0.681892 0.014259 0.000000
H498  H     H_    0.392922 0.735668 0.075778 0.000000
H499  H     H_    0.411256 0.701632 0.121787 0.000000
H500  H     H_    0.329648 0.639255 0.056190 0.000000
H501  H     H_    0.340855 0.699546 0.093878 0.000000
H502  H     H_    0.322203 0.670584 0.029385 0.000000
H503  H     H_    0.382555 0.544449 0.931351 0.000000
H504  H     H_    0.350449 0.473738 0.912722 0.000000
H505  H     H_    0.405036 0.535043 0.071569 0.000000
H506  H     H_    0.321760 0.393706 0.918831 0.000000
C507  C     C_3   0.253516 0.543063 0.989724 0.000000
C508  C     C_3   0.283507 0.550476 0.040859 0.000000
C509  C     C_3   0.323266 0.545106 0.042398 0.000000
C510  C     C_R   0.293683 0.596718 0.081950 0.000000
N93   N     N_R   0.336149 0.627319 0.121935 0.000000
C511  C     C_R   0.327402 0.665330 0.141670 0.000000
C512  C     C_R   0.357438 0.707159 0.175895 0.000000
C513  C     C_R   0.342747 0.742997 0.184369 0.000000
C514  C     C_R   0.298235 0.736288 0.155475 0.000000
C515  C     C_R   0.268330 0.693531 0.119355 0.000000
C516  C     C_R   0.283095 0.658274 0.114483 0.000000
N94   N     N_R   0.260260 0.614583 0.076292 0.000000
C517  C     C_2   0.283250 0.774215 0.160455 0.000000
O93   O     O_2   0.244461 0.768254 0.132753 0.000000
O94   O     O_2   0.312233 0.815818 0.195721 0.000000
H507  H     H_    0.258569 0.575866 0.997206 0.000000
H508  H     H_    0.259964 0.520440 0.960583 0.000000
H509  H     H_    0.219395 0.529296 0.973928 0.000000
H510  H     H_    0.269464 0.526432 0.044165 0.000000
H511  H     H_    0.350024 0.555299 0.081008 0.000000
H512  H     H_    0.315747 0.510479 0.012613 0.000000
H513  H     H_    0.329974 0.565931 0.031299 0.000000
H514  H     H_    0.391526 0.711564 0.191361 0.000000
H515  H     H_    0.366525 0.775989 0.210412 0.000000
H516  H     H_    0.234558 0.687750 0.092712 0.000000
H517  H     H_    0.302246 0.840691 0.198963 0.000000
C518  C     C_3   0.441191 0.766154 0.296049 0.000000
C519  C     C_3   0.466242 0.733780 0.289663 0.000000
C520  C     C_3   0.437990 0.691072 0.272688 0.000000
C521  C     C_R   0.479011 0.725495 0.252445 0.000000
N95   N     N_R   0.457025 0.685888 0.203044 0.000000
C522  C     C_R   0.488373 0.683080 0.192894 0.000000
C523  C     C_R   0.489388 0.645430 0.156476 0.000000
C524  C     C_R   0.526369 0.644179 0.156012 0.000000
C525  C     C_R   0.565541 0.675989 0.199559 0.000000
C526  C     C_R   0.565331 0.710384 0.240128 0.000000
C527  C     C_R   0.526270 0.717063 0.233104 0.000000
N96   N     N_R   0.521501 0.747398 0.270351 0.000000
C528  C     C_2   0.606150 0.668277 0.204622 0.000000
O95   O     O_2   0.605438 0.641493 0.166421 0.000000
O96   O     O_2   0.643949 0.688881 0.251173 0.000000
H518  H     H_    0.434893 0.775883 0.269532 0.000000
H519  H     H_    0.409336 0.750997 0.287508 0.000000
H520  H     H_    0.460659 0.795506 0.336667 0.000000
H521  H     H_    0.496685 0.747561 0.328037 0.000000
H522  H     H_    0.453556 0.665381 0.265168 0.000000
H523  H     H_    0.433456 0.697186 0.303475 0.000000
H524  H     H_    0.405513 0.679059 0.237319 0.000000
H525  H     H_    0.466530 0.614011 0.136557 0.000000
H526  H     H_    0.525682 0.613675 0.126942 0.000000
H527  H     H_    0.594933 0.730053 0.277693 0.000000
H528  H     H_    0.670199 0.683596 0.252991 0.000000
C529  C     C_3   0.245028 0.147136 0.757712 0.000000
C530  C     C_3   0.230073 0.167436 0.727442 0.000000
C531  C     C_3   0.206830 0.129078 0.671541 0.000000
C532  C     C_R   0.202176 0.196708 0.737516 0.000000
N97   N     N_R   0.190770 0.206614 0.772672 0.000000
C533  C     C_R   0.154547 0.217063 0.753608 0.000000
C534  C     C_R   0.126814 0.224720 0.770259 0.000000
C535  C     C_R   0.090275 0.234181 0.746081 0.000000
C536  C     C_R   0.081055 0.234513 0.704342 0.000000
C537  C     C_R   0.109214 0.226684 0.688119 0.000000
C538  C     C_R   0.147572 0.219335 0.714404 0.000000
N98   N     N_R   0.179747 0.209947 0.705242 0.000000
C539  C     C_2   0.043376 0.246661 0.679634 0.000000
O97   O     O_2   0.027257 0.267420 0.702861 0.000000
O98   O     O_2   0.027406 0.236550 0.632116 0.000000
H529  H     H_    0.223429 0.112926 0.734724 0.000000
H530  H     H_    0.277640 0.144315 0.765753 0.000000
H531  H     H_    0.246691 0.167252 0.793704 0.000000
H532  H     H_    0.259641 0.187416 0.736458 0.000000
H533  H     H_    0.193832 0.141755 0.647738 0.000000
H534  H     H_    0.230730 0.112984 0.666146 0.000000
H535  H     H_    0.179627 0.103150 0.658813 0.000000
H536  H     H_    0.133228 0.224392 0.802218 0.000000
H537  H     H_    0.069177 0.241164 0.760105 0.000000
H538  H     H_    0.101174 0.228775 0.656494 0.000000
H539  H     H_    0.001485 0.243006 0.615316 0.000000
C540  C     C_3   0.138331 0.080079 0.692760 0.000000
C541  C     C_3   0.142789 0.082205 0.737579 0.000000
C542  C     C_3   0.189470 0.093460 0.779581 0.000000
C543  C     C_R   0.121646 0.113125 0.756191 0.000000
N99   N     N_R   0.144491 0.156104 0.801593 0.000000
C544  C     C_R   0.113048 0.162763 0.811489 0.000000
C545  C     C_R   0.117144 0.197932 0.853702 0.000000
C546  C     C_R   0.083698 0.197143 0.860958 0.000000
C547  C     C_R   0.043738 0.163571 0.822093 0.000000
C548  C     C_R   0.037563 0.131581 0.775553 0.000000
C549  C     C_R   0.073871 0.128813 0.773030 0.000000
N100  N     N_R   0.077533 0.095899 0.736258 0.000000
C550  C     C_2   0.009726 0.160366 0.832020 0.000000
O99   O     O_2   0.016480 0.187525 0.874047 0.000000
O100  O     O_2   0.972313 0.125572 0.796412 0.000000
H540  H     H_    0.150886 0.114489 0.705973 0.000000
H541  H     H_    0.156328 0.059463 0.678875 0.000000
H542  H     H_    0.103171 0.065638 0.660998 0.000000
H543  H     H_    0.124095 0.050610 0.725996 0.000000
H544  H     H_    0.188640 0.087155 0.806410 0.000000
H545  H     H_    0.205580 0.071894 0.762770 0.000000
H546  H     H_    0.208043 0.128532 0.800846 0.000000
H547  H     H_    0.146904 0.223630 0.882420 0.000000
H548  H     H_    0.089548 0.222716 0.897519 0.000000
H549  H     H_    0.005420 0.109574 0.743259 0.000000
H550  H     H_    0.951542 0.122381 0.804822 0.000000
C551  C     C_3   0.900535 0.368356 0.919367 0.000000
C552  C     C_3   0.894275 0.325324 0.874557 0.000000
C553  C     C_3   0.900486 0.333209 0.840321 0.000000
C554  C     C_R   0.919323 0.298689 0.892209 0.000000
N101  N     N_R   0.963110 0.317453 0.935649 0.000000
C555  C     C_R   0.965669 0.285816 0.944517 0.000000
C556  C     C_R   0.001798 0.286341 0.982262 0.000000
C557  C     C_R   0.998677 0.251032 0.986203 0.000000
C558  C     C_R   0.959520 0.215478 0.951804 0.000000
C559  C     C_R   0.923306 0.215532 0.913328 0.000000
C560  C     C_R   0.927109 0.251438 0.910936 0.000000
N102  N     N_R   0.896332 0.256599 0.875273 0.000000
C561  C     C_2   0.957082 0.177683 0.955760 0.000000
O101  O     O_2   0.988996 0.177779 0.989520 0.000000
O102  O     O_2   0.919703 0.142725 0.922254 0.000000
H551  H     H_    0.923685 0.397674 0.931584 0.000000
H552  H     H_    0.868330 0.373398 0.909214 0.000000
H553  H     H_    0.913883 0.364932 0.951543 0.000000
H554  H     H_    0.859343 0.305885 0.849997 0.000000
H555  H     H_    0.916265 0.311163 0.823712 0.000000
H556  H     H_    0.867553 0.327588 0.810020 0.000000
H557  H     H_    0.916908 0.368271 0.859441 0.000000
H558  H     H_    0.032341 0.312719 0.006426 0.000000
H559  H     H_    0.027415 0.251193 0.015767 0.000000
H560  H     H_    0.893288 0.187954 0.884899 0.000000
H561  H     H_    0.918213 0.117971 0.925060 0.000000
C562  C     C_3   0.113684 0.495219 0.069704 0.000000
C563  C     C_3   0.073270 0.501050 0.071051 0.000000
C564  C     C_3   0.080264 0.549236 0.099296 0.000000
C565  C     C_R   0.029652 0.474604 0.018491 0.000000
N103  N     N_R   0.009235 0.491602 0.989125 0.000000
C566  C     C_R   0.990243 0.454164 0.940492 0.000000
C567  C     C_R   0.973009 0.450910 0.895188 0.000000
C568  C     C_R   0.974888 0.416917 0.856394 0.000000
C569  C     C_R   0.989049 0.383488 0.859609 0.000000
C570  C     C_R   0.999432 0.383344 0.902407 0.000000
C571  C     C_R   0.998409 0.418542 0.941541 0.000000
N104  N     N_R   0.017150 0.428645 0.989275 0.000000
C572  C     C_2   0.992826 0.350415 0.817351 0.000000
O103  O     O_2   0.980420 0.351658 0.780027 0.000000
O104  O     O_2   0.011777 0.320270 0.819991 0.000000
H562  H     H_    0.129363 0.522777 0.071743 0.000000
H563  H     H_    0.139161 0.498758 0.105289 0.000000
H564  H     H_    0.105485 0.462542 0.035364 0.000000
H565  H     H_    0.074405 0.490760 0.095090 0.000000
H566  H     H_    0.055336 0.556395 0.108185 0.000000
H567  H     H_    0.113391 0.567298 0.135875 0.000000
H568  H     H_    0.077829 0.559157 0.074241 0.000000
H569  H     H_    0.962133 0.476127 0.890515 0.000000
H570  H     H_    0.968571 0.418909 0.825130 0.000000
H571  H     H_    0.010661 0.358591 0.907551 0.000000
H572  H     H_    0.015167 0.300154 0.792603 0.000000
C573  C     C_3   0.927500 0.433372 0.037707 0.000000
C574  C     C_3   0.973396 0.436124 0.054041 0.000000
C575  C     C_3   0.007815 0.479597 0.101433 0.000000
C576  C     C_R   0.984582 0.408622 0.071502 0.000000
N105  N     N_R   0.988797 0.420376 0.117032 0.000000
C577  C     C_R   0.024334 0.408582 0.137284 0.000000
C578  C     C_R   0.055694 0.428030 0.188492 0.000000
C579  C     C_R   0.092142 0.414756 0.202607 0.000000
C580  C     C_R   0.098868 0.384621 0.165640 0.000000
C581  C     C_R   0.070850 0.370886 0.115010 0.000000
C582  C     C_R   0.035388 0.385724 0.102415 0.000000
N106  N     N_R   0.012550 0.388080 0.061393 0.000000
C583  C     C_2   0.138565 0.371972 0.181165 0.000000
O105  O     O_2   0.164127 0.385330 0.226108 0.000000
O106  O     O_2   0.147243 0.345957 0.146011 0.000000
H573  H     H_    0.909003 0.398694 0.017571 0.000000
H574  H     H_    0.929009 0.453210 0.073116 0.000000
H575  H     H_    0.911697 0.443359 0.010929 0.000000
H576  H     H_    0.976274 0.424606 0.021663 0.000000
H577  H     H_    0.038244 0.476001 0.125878 0.000000
H578  H     H_    0.017166 0.499993 0.092139 0.000000
H579  H     H_    0.994382 0.496510 0.122936 0.000000
H580  H     H_    0.053730 0.455319 0.217592 0.000000
H581  H     H_    0.116116 0.429561 0.243085 0.000000
H582  H     H_    0.079426 0.352710 0.087866 0.000000
H583  H     H_    0.173609 0.338076 0.156484 0.000000
C584  C     C_3   0.269384 0.305010 0.734524 0.000000
C585  C     C_3   0.309208 0.299444 0.765774 0.000000
C586  C     C_3   0.312801 0.315159 0.814983 0.000000
C587  C     C_R   0.305193 0.252135 0.732626 0.000000
N107  N     N_R   0.265153 0.218023 0.688208 0.000000
C588  C     C_R   0.280542 0.185157 0.668107 0.000000
C589  C     C_R   0.257172 0.142066 0.625794 0.000000
C590  C     C_R   0.279521 0.112750 0.615030 0.000000
C591  C     C_R   0.324993 0.126226 0.646990 0.000000
C592  C     C_R   0.348423 0.170096 0.688616 0.000000
C593  C     C_R   0.325664 0.198892 0.697557 0.000000
N108  N     N_R   0.342744 0.241582 0.737529 0.000000
C594  C     C_2   0.347842 0.093715 0.637683 0.000000
O107  O     O_2   0.327624 0.055845 0.599070 0.000000
O108  O     O_2   0.391022 0.105222 0.672267 0.000000
H584  H     H_    0.242723 0.290360 0.734487 0.000000
H585  H     H_    0.274771 0.340168 0.750108 0.000000
H586  H     H_    0.263130 0.286768 0.696123 0.000000
H587  H     H_    0.338048 0.321867 0.776572 0.000000
H588  H     H_    0.313498 0.349986 0.832785 0.000000
H589  H     H_    0.283825 0.295041 0.806713 0.000000
H590  H     H_    0.344097 0.316004 0.842693 0.000000
H591  H     H_    0.222171 0.129687 0.602967 0.000000
H592  H     H_    0.260684 0.078569 0.582613 0.000000
H593  H     H_    0.383618 0.181468 0.714790 0.000000
H594  H     H_    0.405913 0.083708 0.666096 0.000000
C595  C     C_3   0.320121 0.341130 0.700399 0.000000
C596  C     C_3   0.353270 0.319474 0.708999 0.000000
C597  C     C_3   0.357966 0.299318 0.663937 0.000000
C598  C     C_R   0.394275 0.352179 0.761197 0.000000
N109  N     N_R   0.413751 0.396431 0.781267 0.000000
C599  C     C_R   0.453677 0.406285 0.821641 0.000000
C600  C     C_R   0.489350 0.443793 0.853056 0.000000
C601  C     C_R   0.523378 0.451940 0.898858 0.000000
C602  C     C_R   0.522887 0.420261 0.909242 0.000000
C603  C     C_R   0.491584 0.378491 0.871287 0.000000
C604  C     C_R   0.455709 0.373330 0.829187 0.000000
N110  N     N_R   0.418028 0.338688 0.792862 0.000000
C605  C     C_2   0.552179 0.432279 0.961687 0.000000
O109  O     O_2   0.573989 0.471016 0.997363 0.000000
O110  O     O_2   0.554296 0.400710 0.970902 0.000000
H595  H     H_    0.325361 0.357000 0.683861 0.000000
H596  H     H_    0.287784 0.316086 0.671993 0.000000
H597  H     H_    0.324362 0.364418 0.737564 0.000000
H598  H     H_    0.341279 0.291147 0.707752 0.000000
H599  H     H_    0.392587 0.311877 0.678234 0.000000
H600  H     H_    0.346277 0.262835 0.643315 0.000000
H601  H     H_    0.336497 0.305176 0.634479 0.000000
H602  H     H_    0.488577 0.469067 0.846093 0.000000
H603  H     H_    0.548901 0.484079 0.927391 0.000000
H604  H     H_    0.491737 0.352917 0.877717 0.000000
H605  H     H_    0.573874 0.408421 0.005440 0.000000
C606  C     C_3   0.437579 0.183759 0.675830 0.000000
C607  C     C_3   0.457735 0.233637 0.707238 0.000000
C608  C     C_3   0.421838 0.252557 0.694964 0.000000
C609  C     C_R   0.485149 0.253897 0.763570 0.000000
N111  N     N_R   0.466847 0.263327 0.792716 0.000000
C610  C     C_R   0.499931 0.265729 0.833902 0.000000
C611  C     C_R   0.505592 0.280597 0.880147 0.000000
C612  C     C_R   0.536684 0.271542 0.912089 0.000000
C613  C     C_R   0.559113 0.245377 0.895235 0.000000
C614  C     C_R   0.560226 0.239966 0.854796 0.000000
C615  C     C_R   0.533201 0.255569 0.828009 0.000000
N112  N     N_R   0.528585 0.253847 0.787493 0.000000
C616  C     C_2   0.577784 0.221072 0.917703 0.000000
O111  O     O_2   0.579029 0.229223 0.955610 0.000000
O112  O     O_2   0.588950 0.186527 0.893637 0.000000
H606  H     H_    0.403033 0.173840 0.662675 0.000000
H607  H     H_    0.436438 0.169310 0.640017 0.000000
H608  H     H_    0.456768 0.170545 0.698029 0.000000
H609  H     H_    0.478223 0.240348 0.695316 0.000000
H610  H     H_    0.436287 0.288574 0.723631 0.000000
H611  H     H_    0.407862 0.243664 0.655441 0.000000
H612  H     H_    0.396194 0.240055 0.697842 0.000000
H613  H     H_    0.488332 0.300038 0.893316 0.000000
H614  H     H_    0.538883 0.280375 0.946772 0.000000
H615  H     H_    0.578598 0.220858 0.842186 0.000000
H616  H     H_    0.599190 0.169171 0.907338 0.000000
C617  C     C_3   0.202896 0.652976 0.928056 0.000000
C618  C     C_3   0.228132 0.633946 0.956489 0.000000
C619  C     C_3   0.236224 0.661067 0.008656 0.000000
C620  C     C_R   0.201599 0.586626 0.927270 0.000000
N113  N     N_R   0.179528 0.574783 0.944862 0.000000
C621  C     C_R   0.139000 0.552730 0.901504 0.000000
C622  C     C_R   0.101945 0.558529 0.900120 0.000000
C623  C     C_R   0.062508 0.535236 0.852511 0.000000
C624  C     C_R   0.063234 0.510018 0.809503 0.000000
C625  C     C_R   0.100763 0.521970 0.812421 0.000000
C626  C     C_R   0.139236 0.542930 0.859653 0.000000
N114  N     N_R   0.178930 0.562933 0.873791 0.000000
C627  C     C_2   0.030053 0.466246 0.768011 0.000000
O113  O     O_2   0.997238 0.456372 0.766656 0.000000
O114  O     O_2   0.039109 0.434585 0.736645 0.000000
H617  H     H_    0.168957 0.646612 0.918881 0.000000
H618  H     H_    0.220032 0.689103 0.951107 0.000000
H619  H     H_    0.202684 0.636352 0.892843 0.000000
H620  H     H_    0.258913 0.637088 0.958500 0.000000
H621  H     H_    0.254721 0.646328 0.028107 0.000000
H622  H     H_    0.256493 0.695872 0.029771 0.000000
H623  H     H_    0.204695 0.660217 0.005866 0.000000
H624  H     H_    0.104480 0.581335 0.935447 0.000000
H625  H     H_    0.031346 0.534244 0.848483 0.000000
H626  H     H_    0.099693 0.515637 0.779542 0.000000
H627  H     H_    0.018674 0.404564 0.711450 0.000000
C628  C     C_3   0.083089 0.494084 0.971457 0.000000
C629  C     C_3   0.086737 0.526011 0.959295 0.000000
C630  C     C_3   0.042128 0.522575 0.921699 0.000000
C631  C     C_R   0.104055 0.569304 0.006721 0.000000
N115  N     N_R   0.078267 0.587545 0.024646 0.000000
C632  C     C_R   0.104854 0.630306 0.060461 0.000000
C633  C     C_R   0.093993 0.666933 0.083519 0.000000
C634  C     C_R   0.127862 0.706722 0.124274 0.000000
C635  C     C_R   0.171222 0.708090 0.142178 0.000000
C636  C     C_R   0.180153 0.671574 0.113968 0.000000
C637  C     C_R   0.145572 0.634974 0.068642 0.000000
N116  N     N_R   0.145776 0.597137 0.032732 0.000000
C638  C     C_2   0.207324 0.747388 0.191844 0.000000
O115  O     O_2   0.199763 0.780468 0.215102 0.000000
O116  O     O_2   0.248815 0.746708 0.212696 0.000000
H628  H     H_    0.075436 0.510176 0.999809 0.000000
H629  H     H_    0.057998 0.462552 0.936883 0.000000
H630  H     H_    0.114445 0.489586 0.989997 0.000000
H631  H     H_    0.108941 0.521178 0.945966 0.000000
H632  H     H_    0.043382 0.552316 0.921554 0.000000
H633  H     H_    0.027568 0.491993 0.882644 0.000000
H634  H     H_    0.022560 0.524870 0.937358 0.000000
H635  H     H_    0.060439 0.664274 0.072292 0.000000
H636  H     H_    0.120290 0.735230 0.144951 0.000000
H637  H     H_    0.212578 0.669745 0.130090 0.000000
H638  H     H_    0.272462 0.772513 0.245551 0.000000
C639  C     C_3   0.150868 0.398644 0.499639 0.000000
C640  C     C_3   0.156592 0.421330 0.551477 0.000000
C641  C     C_3   0.158478 0.468417 0.571562 0.000000
C642  C     C_R   0.123492 0.394406 0.549322 0.000000
N117  N     N_R   0.080627 0.370167 0.504201 0.000000
C643  C     C_R   0.075298 0.330919 0.497427 0.000000
C644  C     C_R   0.043615 0.292527 0.454070 0.000000
C645  C     C_R   0.036049 0.256327 0.455125 0.000000
C646  C     C_R   0.064452 0.259682 0.499784 0.000000
C647  C     C_R   0.102591 0.295367 0.537953 0.000000
C648  C     C_R   0.107757 0.332072 0.537522 0.000000
N118  N     N_R   0.140126 0.372107 0.572816 0.000000
C649  C     C_2   0.053144 0.228778 0.510046 0.000000
O117  O     O_2   0.081482 0.227331 0.544913 0.000000
O118  O     O_2   0.010743 0.208518 0.488044 0.000000
H639  H     H_    0.146741 0.363037 0.483360 0.000000
H640  H     H_    0.121969 0.401990 0.472854 0.000000
H641  H     H_    0.180551 0.414557 0.504835 0.000000
H642  H     H_    0.188781 0.422681 0.578135 0.000000
H643  H     H_    0.144195 0.479541 0.594728 0.000000
H644  H     H_    0.192902 0.489398 0.594909 0.000000
H645  H     H_    0.142687 0.471120 0.538846 0.000000
H646  H     H_    0.024721 0.293160 0.421767 0.000000
H647  H     H_    0.007448 0.227067 0.422707 0.000000
H648  H     H_    0.125154 0.293748 0.567617 0.000000
H649  H     H_    0.003239 0.194198 0.501110 0.000000
C650  C     C_3   0.993481 0.976378 0.345956 0.000000
C651  C     C_3   0.005660 0.938194 0.349019 0.000000
C652  C     C_3   0.054915 0.947314 0.370755 0.000000
C653  C     C_R   0.995717 0.932370 0.382465 0.000000
N119  N     N_R   0.021144 0.969077 0.433267 0.000000
C654  C     C_R   0.048216 0.952565 0.456728 0.000000
C655  C     C_R   0.085263 0.976211 0.505802 0.000000
C656  C     C_R   0.111630 0.953244 0.520147 0.000000
C657  C     C_R   0.100223 0.907718 0.485497 0.000000
C658  C     C_R   0.060138 0.884216 0.437752 0.000000
C659  C     C_R   0.034011 0.907370 0.424344 0.000000
N120  N     N_R   0.996963 0.892342 0.377833 0.000000
C660  C     C_2   0.131150 0.884377 0.498012 0.000000
O119  O     O_2   0.117081 0.844850 0.478173 0.000000
O120  O     O_2   0.175052 0.905417 0.529216 0.000000
H650  H     H_    0.006582 0.005926 0.384692 0.000000
H651  H     H_    0.006406 0.983405 0.326997 0.000000
H652  H     H_    0.957945 0.969576 0.324132 0.000000
H653  H     H_    0.988438 0.907661 0.310032 0.000000
H654  H     H_    0.064128 0.917835 0.366946 0.000000
H655  H     H_    0.063564 0.956722 0.350315 0.000000
H656  H     H_    0.075883 0.974702 0.412048 0.000000
H657  H     H_    0.094826 0.011833 0.531234 0.000000
H658  H     H_    0.141931 0.971484 0.557956 0.000000
H659  H     H_    0.052711 0.850267 0.409292 0.000000
H660  H     H_    0.187948 0.935765 0.542554 0.000000
C661  C     C_3   0.995442 0.111215 0.417528 0.000000
C662  C     C_3   0.955966 0.101522 0.419352 0.000000
C663  C     C_3   0.922641 0.123680 0.404002 0.000000
C664  C     C_R   0.936717 0.052812 0.391040 0.000000
N121  N     N_R   0.894254 0.025381 0.345708 0.000000
C665  C     C_R   0.891505 0.988022 0.344054 0.000000
C666  C     C_R   0.854972 0.951484 0.312927 0.000000
C667  C     C_R   0.856999 0.920948 0.324832 0.000000
C668  C     C_R   0.889267 0.933697 0.373211 0.000000
C669  C     C_R   0.925875 0.969258 0.402750 0.000000
C670  C     C_R   0.928159 0.993225 0.384976 0.000000
N122  N     N_R   0.959079 0.032424 0.414551 0.000000
C671  C     C_2   0.877088 0.922820 0.399855 0.000000
O121  O     O_2   0.850335 0.887602 0.377596 0.000000
O122  O     O_2   0.889871 0.954822 0.447516 0.000000
H661  H     H_    0.995178 0.079872 0.388411 0.000000
H662  H     H_    0.996062 0.135974 0.408628 0.000000
H663  H     H_    0.025965 0.123881 0.455437 0.000000
H664  H     H_    0.968791 0.115825 0.460109 0.000000
H665  H     H_    0.921188 0.146049 0.437726 0.000000
H666  H     H_    0.932520 0.143857 0.393456 0.000000
H667  H     H_    0.889270 0.099469 0.372649 0.000000
H668  H     H_    0.824457 0.948437 0.283550 0.000000
H669  H     H_    0.829540 0.891891 0.302191 0.000000
H670  H     H_    0.947317 0.984317 0.442778 0.000000
H671  H     H_    0.880945 0.947158 0.464533 0.000000
C672  C     C_3   0.497457 0.644378 0.045882 0.000000
C673  C     C_3   0.520532 0.677923 0.045086 0.000000
C674  C     C_3   0.522453 0.656243 0.997803 0.000000
C675  C     C_R   0.497922 0.709832 0.044209 0.000000
N123  N     N_R   0.519957 0.755742 0.078530 0.000000
C676  C     C_R   0.485859 0.770716 0.064314 0.000000
C677  C     C_R   0.486273 0.813558 0.090755 0.000000
C678  C     C_R   0.447496 0.822583 0.074082 0.000000
C679  C     C_R   0.408007 0.788352 0.033690 0.000000
C680  C     C_R   0.407707 0.745076 0.010197 0.000000
C681  C     C_R   0.446698 0.736273 0.024235 0.000000
N124  N     N_R   0.452525 0.696132 0.010333 0.000000
C682  C     C_2   0.366309 0.797540 0.018455 0.000000
O123  O     O_2   0.366411 0.835600 0.040150 0.000000
O124  O     O_2   0.327726 0.764035 0.980305 0.000000
H672  H     H_    0.468273 0.620269 0.006752 0.000000
H673  H     H_    0.520097 0.627499 0.058658 0.000000
H674  H     H_    0.487989 0.661173 0.073548 0.000000
H675  H     H_    0.552181 0.696473 0.081592 0.000000
H676  H     H_    0.541835 0.681678 0.999997 0.000000
H677  H     H_    0.536847 0.629643 0.994096 0.000000
H678  H     H_    0.489007 0.641899 0.962923 0.000000
H679  H     H_    0.515161 0.839687 0.125964 0.000000
H680  H     H_    0.448264 0.856355 0.095045 0.000000
H681  H     H_    0.377243 0.718990 0.985204 0.000000
H682  H     H_    0.300350 0.770160 0.970206 0.000000
C683  C     C_3   0.298840 0.529961 0.869279 0.000000
C684  C     C_3   0.283961 0.563657 0.896723 0.000000
C685  C     C_3   0.304662 0.577679 0.949994 0.000000
C686  C     C_R   0.292753 0.601557 0.894883 0.000000
N125  N     N_R   0.333822 0.627360 0.913379 0.000000
C687  C     C_R   0.320424 0.651439 0.892943 0.000000
C688  C     C_R   0.344593 0.680228 0.892199 0.000000
C689  C     C_R   0.323731 0.701086 0.869039 0.000000
C690  C     C_R   0.278804 0.692903 0.845764 0.000000
C691  C     C_R   0.254423 0.662950 0.844918 0.000000
C692  C     C_R   0.275588 0.642208 0.867777 0.000000
N126  N     N_R   0.256834 0.609596 0.866802 0.000000
C693  C     C_2   0.257011 0.715404 0.821523 0.000000
O125  O     O_2   0.278288 0.741457 0.821571 0.000000
O126  O     O_2   0.213394 0.707480 0.799213 0.000000
H683  H     H_    0.328165 0.548048 0.876532 0.000000
H684  H     H_    0.303979 0.506054 0.879638 0.000000
H685  H     H_    0.271799 0.512144 0.829188 0.000000
H686  H     H_    0.248424 0.549905 0.876792 0.000000
H687  H     H_    0.280163 0.583439 0.958345 0.000000
H688  H     H_    0.315495 0.552193 0.955738 0.000000
H689  H     H_    0.329252 0.609658 0.973111 0.000000
H690  H     H_    0.379505 0.689669 0.911944 0.000000
H691  H     H_    0.343312 0.724490 0.870122 0.000000
H692  H     H_    0.219362 0.654934 0.825275 0.000000
H693  H     H_    0.199098 0.722332 0.783316 0.000000
C694  C     C_3   0.479188 0.538573 0.966717 0.000000
C695  C     C_3   0.443425 0.512183 0.909693 0.000000
C696  C     C_3   0.409782 0.471373 0.888748 0.000000
C697  C     C_R   0.423828 0.534915 0.884181 0.000000
N127  N     N_R   0.415945 0.576142 0.904320 0.000000
C698  C     C_R   0.408940 0.582510 0.867754 0.000000
C699  C     C_R   0.408211 0.620893 0.871024 0.000000
C700  C     C_R   0.400563 0.621633 0.829764 0.000000
C701  C     C_R   0.393970 0.583748 0.785843 0.000000
C702  C     C_R   0.396810 0.545443 0.784145 0.000000
C703  C     C_R   0.407160 0.546799 0.827067 0.000000
N128  N     N_R   0.415541 0.514918 0.834950 0.000000
C704  C     C_2   0.387409 0.585236 0.743038 0.000000
O127  O     O_2   0.384702 0.618697 0.744066 0.000000
O128  O     O_2   0.384954 0.549836 0.702706 0.000000
H694  H     H_    0.467027 0.550632 0.991799 0.000000
H695  H     H_    0.497439 0.516753 0.974201 0.000000
H696  H     H_    0.502717 0.566025 0.976341 0.000000
H697  H     H_    0.462722 0.499482 0.894182 0.000000
H698  H     H_    0.376740 0.473506 0.869361 0.000000
H699  H     H_    0.410523 0.441470 0.859759 0.000000
H700  H     H_    0.416874 0.467953 0.919948 0.000000
H701  H     H_    0.418140 0.650394 0.907222 0.000000
H702  H     H_    0.400889 0.652407 0.832769 0.000000
H703  H     H_    0.393820 0.516153 0.751714 0.000000
H704  H     H_    0.380851 0.550927 0.674669 0.000000
C705  C     C_3   0.600250 0.196497 0.034168 0.000000
C706  C     C_3   0.640088 0.204618 0.082267 0.000000
C707  C     C_3   0.669796 0.182037 0.068046 0.000000
C708  C     C_R   0.664043 0.253509 0.121164 0.000000
N129  N     N_R   0.702680 0.273986 0.129950 0.000000
C709  C     C_R   0.701681 0.315564 0.149272 0.000000
C710  C     C_R   0.728524 0.350053 0.159660 0.000000
C711  C     C_R   0.732460 0.391936 0.192826 0.000000
C712  C     C_R   0.716406 0.398805 0.222200 0.000000
C713  C     C_R   0.689383 0.362741 0.211264 0.000000
C714  C     C_R   0.674673 0.322280 0.165953 0.000000
N130  N     N_R   0.646398 0.283334 0.145248 0.000000
C715  C     C_2   0.733162 0.444006 0.267032 0.000000
O129  O     O_2   0.743993 0.475111 0.266285 0.000000
O130  O     O_2   0.744070 0.451281 0.311592 0.000000
H705  H     H_    0.611495 0.207196 0.016382 0.000000
H706  H     H_    0.580500 0.160681 0.006593 0.000000
H707  H     H_    0.579805 0.215734 0.044249 0.000000
H708  H     H_    0.628802 0.189423 0.096557 0.000000
H709  H     H_    0.698210 0.186715 0.102893 0.000000
H710  H     H_    0.651461 0.146150 0.037888 0.000000
H711  H     H_    0.681182 0.195905 0.052562 0.000000
H712  H     H_    0.752412 0.346025 0.151077 0.000000
H713  H     H_    0.757421 0.418620 0.205395 0.000000
H714  H     H_    0.680471 0.366319 0.237189 0.000000
H715  H     H_    0.764101 0.480136 0.342415 0.000000
C716  C     C_3   0.705746 0.293029 0.304187 0.000000
C717  C     C_3   0.671649 0.278930 0.250458 0.000000
C718  C     C_3   0.684330 0.253310 0.213900 0.000000
C719  C     C_R   0.628277 0.250287 0.227686 0.000000
N131  N     N_R   0.620141 0.220218 0.238250 0.000000
C720  C     C_R   0.576408 0.199824 0.203295 0.000000
C721  C     C_R   0.550231 0.166042 0.195146 0.000000
C722  C     C_R   0.505426 0.152487 0.160924 0.000000
C723  C     C_R   0.487658 0.173383 0.136334 0.000000
C724  C     C_R   0.514959 0.205568 0.142328 0.000000
C725  C     C_R   0.559618 0.217079 0.174689 0.000000
N132  N     N_R   0.592049 0.248216 0.187530 0.000000
C726  C     C_2   0.439923 0.162884 0.106383 0.000000
O131  O     O_2   0.415749 0.131959 0.097076 0.000000
O132  O     O_2   0.422651 0.189000 0.091815 0.000000
H716  H     H_    0.689949 0.285511 0.319996 0.000000
H717  H     H_    0.730827 0.277199 0.305073 0.000000
H718  H     H_    0.722665 0.329054 0.328475 0.000000
H719  H     H_    0.667617 0.308974 0.251082 0.000000
H720  H     H_    0.654008 0.229062 0.176291 0.000000
H721  H     H_    0.702582 0.276279 0.213228 0.000000
H722  H     H_    0.704590 0.234757 0.223851 0.000000
H723  H     H_    0.563956 0.151333 0.215980 0.000000
H724  H     H_    0.484367 0.127068 0.155868 0.000000
H725  H     H_    0.501734 0.222801 0.124532 0.000000
H726  H     H_    0.391395 0.183542 0.075277 0.000000
C727  C     C_3   0.685344 0.305690 0.520373 0.000000
C728  C     C_3   0.695482 0.351464 0.565533 0.000000
C729  C     C_3   0.740544 0.384926 0.597783 0.000000
C730  C     C_R   0.660587 0.369496 0.551522 0.000000
N133  N     N_R   0.638580 0.375444 0.575026 0.000000
C731  C     C_R   0.600473 0.376191 0.542027 0.000000
C732  C     C_R   0.571107 0.394184 0.551324 0.000000
C733  C     C_R   0.531892 0.387145 0.510160 0.000000
C734  C     C_R   0.524074 0.364150 0.461332 0.000000
C735  C     C_R   0.558621 0.355799 0.456025 0.000000
C736  C     C_R   0.598200 0.365956 0.498811 0.000000
N134  N     N_R   0.637949 0.366507 0.505733 0.000000
C737  C     C_2   0.481147 0.353582 0.416767 0.000000
O133  O     O_2   0.451224 0.362299 0.421887 0.000000
O134  O     O_2   0.474569 0.334220 0.370012 0.000000
H727  H     H_    0.670190 0.303925 0.484418 0.000000
H728  H     H_    0.715201 0.296047 0.528543 0.000000
H729  H     H_    0.660978 0.281366 0.514296 0.000000
H730  H     H_    0.691942 0.346835 0.591506 0.000000
H731  H     H_    0.750948 0.403404 0.638338 0.000000
H732  H     H_    0.764889 0.368821 0.594301 0.000000
H733  H     H_    0.739106 0.409009 0.588018 0.000000
H734  H     H_    0.578970 0.415028 0.589890 0.000000
H735  H     H_    0.507576 0.399684 0.516578 0.000000
H736  H     H_    0.554748 0.344674 0.420312 0.000000
H737  H     H_    0.446410 0.327680 0.340884 0.000000
C738  C     C_3   0.808980 0.470436 0.522550 0.000000
C739  C     C_3   0.788834 0.437978 0.527267 0.000000
C740  C     C_3   0.823317 0.421192 0.551708 0.000000
C741  C     C_R   0.766130 0.459135 0.554507 0.000000
N135  N     N_R   0.784708 0.503228 0.596560 0.000000
C742  C     C_R   0.752650 0.509407 0.604476 0.000000
C743  C     C_R   0.751628 0.549318 0.635817 0.000000
C744  C     C_R   0.715030 0.552498 0.637033 0.000000
C745  C     C_R   0.679351 0.514713 0.606231 0.000000
C746  C     C_R   0.681157 0.474111 0.574122 0.000000
C747  C     C_R   0.717179 0.472628 0.570976 0.000000
N136  N     N_R   0.722689 0.439434 0.536090 0.000000
C748  C     C_2   0.639555 0.519236 0.606187 0.000000
O135  O     O_2   0.638160 0.555953 0.631374 0.000000
O136  O     O_2   0.604516 0.483407 0.578854 0.000000
H738  H     H_    0.841059 0.494319 0.558069 0.000000
H739  H     H_    0.812718 0.452410 0.489801 0.000000
H740  H     H_    0.786795 0.489382 0.516538 0.000000
H741  H     H_    0.765614 0.407892 0.488734 0.000000
H742  H     H_    0.820357 0.419037 0.579888 0.000000
H743  H     H_    0.818612 0.388027 0.520804 0.000000
H744  H     H_    0.856069 0.441474 0.567941 0.000000
H745  H     H_    0.776226 0.578117 0.652657 0.000000
H746  H     H_    0.714343 0.584871 0.660885 0.000000
H747  H     H_    0.655740 0.444724 0.553649 0.000000
H748  H     H_    0.578687 0.487083 0.579356 0.000000
C749  C     C_3   0.577014 0.226162 0.313118 0.000000
C750  C     C_3   0.599635 0.272865 0.334032 0.000000
C751  C     C_3   0.578502 0.300702 0.359035 0.000000
C752  C     C_R   0.648780 0.288026 0.372021 0.000000
N137  N     N_R   0.672551 0.325506 0.423016 0.000000
C753  C     C_R   0.709657 0.316383 0.443794 0.000000
C754  C     C_R   0.743067 0.338997 0.494272 0.000000
C755  C     C_R   0.774533 0.320172 0.509400 0.000000
C756  C     C_R   0.769923 0.277375 0.474412 0.000000
C757  C     C_R   0.735003 0.254687 0.423274 0.000000
C758  C     C_R   0.708281 0.276948 0.408546 0.000000
N138  N     N_R   0.672427 0.260031 0.361513 0.000000
C759  C     C_2   0.802578 0.257135 0.491501 0.000000
O137  O     O_2   0.837218 0.279872 0.533709 0.000000
O138  O     O_2   0.795031 0.213661 0.460409 0.000000
H749  H     H_    0.577063 0.225613 0.343722 0.000000
H750  H     H_    0.542375 0.214369 0.280710 0.000000
H751  H     H_    0.593556 0.204109 0.298433 0.000000
H752  H     H_    0.592456 0.272801 0.300551 0.000000
H753  H     H_    0.582303 0.331483 0.361382 0.000000
H754  H     H_    0.542700 0.282803 0.335487 0.000000
H755  H     H_    0.593486 0.306772 0.397396 0.000000
H756  H     H_    0.744344 0.370445 0.521309 0.000000
H757  H     H_    0.801690 0.338597 0.549308 0.000000
H758  H     H_    0.727899 0.220300 0.395359 0.000000
H759  H     H_    0.816934 0.200740 0.471800 0.000000
C760  C     C_3   0.496070 0.754041 0.153664 0.000000
C761  C     C_3   0.527472 0.798139 0.200130 0.000000
C762  C     C_3   0.509395 0.817998 0.233090 0.000000
C763  C     C_R   0.571939 0.794645 0.224989 0.000000
N139  N     N_R   0.593352 0.795320 0.269426 0.000000
C764  C     C_R   0.630493 0.788874 0.272979 0.000000
C765  C     C_R   0.663563 0.785729 0.309796 0.000000
C766  C     C_R   0.699916 0.781811 0.309564 0.000000
C767  C     C_R   0.703172 0.781715 0.273294 0.000000
C768  C     C_R   0.669750 0.784209 0.235216 0.000000
C769  C     C_R   0.632426 0.786660 0.235028 0.000000
N140  N     N_R   0.596192 0.791477 0.204185 0.000000
C770  C     C_2   0.745653 0.786764 0.282317 0.000000
O139  O     O_2   0.767792 0.767207 0.297889 0.000000
O140  O     O_2   0.763180 0.819259 0.282898 0.000000
H760  H     H_    0.481251 0.736185 0.162807 0.000000
H761  H     H_    0.471487 0.761944 0.128643 0.000000
H762  H     H_    0.513159 0.734796 0.136879 0.000000
H763  H     H_    0.528467 0.817770 0.185165 0.000000
H764  H     H_    0.534300 0.848293 0.270757 0.000000
H765  H     H_    0.480972 0.826775 0.213368 0.000000
H766  H     H_    0.497658 0.794046 0.238118 0.000000
H767  H     H_    0.662921 0.787024 0.339368 0.000000
H768  H     H_    0.727237 0.782295 0.340421 0.000000
H769  H     H_    0.673834 0.784804 0.207884 0.000000
H770  H     H_    0.793117 0.826833 0.293398 0.000000
C771  C     C_3   0.663665 0.876902 0.377975 0.000000
C772  C     C_3   0.662884 0.919196 0.413290 0.000000
C773  C     C_3   0.677147 0.951461 0.405030 0.000000
C774  C     C_R   0.616744 0.913013 0.397694 0.000000
N141  N     N_R   0.584436 0.871411 0.365918 0.000000
C775  C     C_R   0.549272 0.883399 0.362859 0.000000
C776  C     C_R   0.507875 0.855295 0.334606 0.000000
C777  C     C_R   0.474410 0.872654 0.332310 0.000000
C778  C     C_R   0.483392 0.918179 0.359464 0.000000
C779  C     C_R   0.526038 0.946526 0.388691 0.000000
C780  C     C_R   0.559093 0.928535 0.389699 0.000000
N142  N     N_R   0.602476 0.949104 0.413186 0.000000
C781  C     C_2   0.447466 0.936181 0.356552 0.000000
O141  O     O_2   0.410095 0.911269 0.331588 0.000000
O142  O     O_2   0.455368 0.980195 0.380878 0.000000
H771  H     H_    0.696037 0.879434 0.384177 0.000000
H772  H     H_    0.654437 0.852872 0.383642 0.000000
H773  H     H_    0.639270 0.868803 0.339967 0.000000
H774  H     H_    0.685453 0.928912 0.453034 0.000000
H775  H     H_    0.686367 0.985134 0.436679 0.000000
H776  H     H_    0.706638 0.948783 0.405185 0.000000
H777  H     H_    0.650788 0.944769 0.368001 0.000000
H778  H     H_    0.502431 0.820523 0.313540 0.000000
H779  H     H_    0.441124 0.850512 0.308863 0.000000
H780  H     H_    0.532505 0.981778 0.410347 0.000000
H781  H     H_    0.431382 0.991599 0.378188 0.000000
C782  C     C_3   0.619381 0.853385 0.451542 0.000000
C783  C     C_3   0.666031 0.851279 0.469726 0.000000
C784  C     C_3   0.678472 0.843161 0.511364 0.000000
C785  C     C_R   0.668348 0.814107 0.427227 0.000000
N143  N     N_R   0.693170 0.789143 0.440266 0.000000
C786  C     C_R   0.661694 0.749165 0.408009 0.000000
C787  C     C_R   0.659688 0.720388 0.421011 0.000000
C788  C     C_R   0.620746 0.687282 0.392972 0.000000
C789  C     C_R   0.582728 0.686777 0.356973 0.000000
C790  C     C_R   0.583868 0.718119 0.346685 0.000000
C791  C     C_R   0.623748 0.748600 0.371604 0.000000
N144  N     N_R   0.628784 0.788504 0.378996 0.000000
C792  C     C_2   0.541148 0.659084 0.338763 0.000000
O143  O     O_2   0.533165 0.619193 0.317452 0.000000
O144  O     O_2   0.513907 0.678193 0.350559 0.000000
H782  H     H_    0.611743 0.855849 0.478846 0.000000
H783  H     H_    0.618350 0.883586 0.452448 0.000000
H784  H     H_    0.591639 0.824799 0.413709 0.000000
H785  H     H_    0.688539 0.883543 0.486637 0.000000
H786  H     H_    0.678592 0.870950 0.543810 0.000000
H787  H     H_    0.654380 0.812089 0.495088 0.000000
H788  H     H_    0.711315 0.840384 0.527523 0.000000
H789  H     H_    0.685826 0.726773 0.456582 0.000000
H790  H     H_    0.618899 0.665231 0.403899 0.000000
H791  H     H_    0.553662 0.721302 0.324521 0.000000
H792  H     H_    0.488118 0.660395 0.342520 0.000000
C793  C     C_3   0.758133 0.035369 0.713851 0.000000
C794  C     C_3   0.803341 0.069175 0.755989 0.000000
C795  C     C_3   0.834789 0.050928 0.782312 0.000000
C796  C     C_R   0.824389 0.093346 0.743796 0.000000
N145  N     N_R   0.834386 0.073254 0.706440 0.000000
C797  C     C_R   0.863252 0.108590 0.721886 0.000000
C798  C     C_R   0.877299 0.111153 0.694293 0.000000
C799  C     C_R   0.908832 0.149808 0.717303 0.000000
C800  C     C_R   0.925880 0.183523 0.767439 0.000000
C801  C     C_R   0.906693 0.181863 0.791304 0.000000
C802  C     C_R   0.872150 0.145476 0.765361 0.000000
N146  N     N_R   0.845222 0.139426 0.778529 0.000000
C803  C     C_2   0.960673 0.223667 0.794310 0.000000
O145  O     O_2   0.989044 0.223122 0.785586 0.000000
O146  O     O_2   0.961461 0.261593 0.829928 0.000000
H793  H     H_    0.737541 0.041606 0.729667 0.000000
H794  H     H_    0.743693 0.039404 0.682056 0.000000
H795  H     H_    0.758537 0.001638 0.701512 0.000000
H796  H     H_    0.796912 0.093982 0.782616 0.000000
H797  H     H_    0.864971 0.078640 0.818279 0.000000
H798  H     H_    0.819126 0.033580 0.791752 0.000000
H799  H     H_    0.844354 0.028009 0.757083 0.000000
H800  H     H_    0.860138 0.085099 0.654437 0.000000
H801  H     H_    0.919161 0.155453 0.696779 0.000000
H802  H     H_    0.921492 0.207094 0.830218 0.000000
H803  H     H_    0.983871 0.288691 0.847908 0.000000
C804  C     C_3   0.845436 0.305905 0.933107 0.000000
C805  C     C_3   0.798279 0.280225 0.893823 0.000000
C806  C     C_3   0.787012 0.273772 0.845075 0.000000
C807  C     C_R   0.792408 0.237366 0.887061 0.000000
N147  N     N_R   0.806977 0.204615 0.862606 0.000000
C808  C     C_R   0.799584 0.175871 0.873551 0.000000
C809  C     C_R   0.817009 0.142882 0.871470 0.000000
C810  C     C_R   0.805363 0.117466 0.884974 0.000000
C811  C     C_R   0.778052 0.126607 0.902754 0.000000
C812  C     C_R   0.765245 0.163533 0.910776 0.000000
C813  C     C_R   0.778800 0.189044 0.898744 0.000000
N148  N     N_R   0.777147 0.229873 0.911908 0.000000
C814  C     C_2   0.765775 0.099527 0.917025 0.000000
O147  O     O_2   0.778422 0.067994 0.911960 0.000000
O148  O     O_2   0.740307 0.109256 0.935597 0.000000
H804  H     H_    0.862763 0.304442 0.915686 0.000000
H805  H     H_    0.849914 0.340670 0.958747 0.000000
H806  H     H_    0.858188 0.288273 0.951006 0.000000
H807  H     H_    0.777915 0.296929 0.906938 0.000000
H808  H     H_    0.755085 0.247805 0.814571 0.000000
H809  H     H_    0.787469 0.304763 0.847022 0.000000
H810  H     H_    0.811333 0.261708 0.838157 0.000000
H811  H     H_    0.840831 0.137784 0.861897 0.000000
H812  H     H_    0.818430 0.090809 0.882162 0.000000
H813  H     H_    0.747596 0.173554 0.929019 0.000000
H814  H     H_    0.731947 0.091132 0.944506 0.000000
C815  C     C_3   0.735433 0.119189 0.719067 0.000000
C816  C     C_3   0.710286 0.148166 0.710008 0.000000
C817  C     C_3   0.688058 0.158212 0.738331 0.000000
C818  C     C_R   0.739603 0.188334 0.725735 0.000000
N149  N     N_R   0.724001 0.210202 0.702035 0.000000
C819  C     C_R   0.762377 0.237035 0.719607 0.000000
C820  C     C_R   0.770167 0.270659 0.715452 0.000000
C821  C     C_R   0.805598 0.276703 0.712210 0.000000
C822  C     C_R   0.834495 0.253906 0.720917 0.000000
C823  C     C_R   0.833751 0.233829 0.744739 0.000000
C824  C     C_R   0.797231 0.227630 0.745662 0.000000
N150  N     N_R   0.785256 0.201025 0.756063 0.000000
C825  C     C_2   0.865394 0.252181 0.705603 0.000000
O149  O     O_2   0.865042 0.270082 0.684537 0.000000
O150  O     O_2   0.891225 0.227336 0.709946 0.000000
H815  H     H_    0.760135 0.136417 0.760818 0.000000
H816  H     H_    0.711377 0.089140 0.704557 0.000000
H817  H     H_    0.750819 0.110402 0.697056 0.000000
H818  H     H_    0.686378 0.129454 0.668389 0.000000
H819  H     H_    0.665720 0.175964 0.728255 0.000000
H820  H     H_    0.668263 0.126895 0.726770 0.000000
H821  H     H_    0.713423 0.178060 0.780137 0.000000
H822  H     H_    0.747607 0.288576 0.710000 0.000000
H823  H     H_    0.809117 0.297082 0.699813 0.000000
H824  H     H_    0.857621 0.218858 0.755938 0.000000
H825  H     H_    0.909312 0.224325 0.696666 0.000000
C826  C     C_3   0.792902 0.695992 0.450892 0.000000
C827  C     C_3   0.752908 0.699500 0.451379 0.000000
C828  C     C_3   0.718978 0.654664 0.418601 0.000000
C829  C     C_R   0.765705 0.723703 0.505166 0.000000
N151  N     N_R   0.769227 0.704121 0.530958 0.000000
C830  C     C_R   0.767543 0.736076 0.570408 0.000000
C831  C     C_R   0.764432 0.733178 0.605588 0.000000
C832  C     C_R   0.755417 0.766462 0.637326 0.000000
C833  C     C_R   0.747626 0.801056 0.632059 0.000000
C834  C     C_R   0.751546 0.803865 0.596833 0.000000
C835  C     C_R   0.763283 0.771929 0.567861 0.000000
N152  N     N_R   0.764389 0.766184 0.528347 0.000000
C836  C     C_2   0.732775 0.832986 0.661752 0.000000
O151  O     O_2   0.734420 0.833885 0.696949 0.000000
O152  O     O_2   0.715783 0.860340 0.649152 0.000000
H826  H     H_    0.809157 0.680682 0.470180 0.000000
H827  H     H_    0.784548 0.677745 0.410985 0.000000
H828  H     H_    0.816153 0.729581 0.475754 0.000000
H829  H     H_    0.738977 0.718878 0.436087 0.000000
H830  H     H_    0.687573 0.656317 0.414312 0.000000
H831  H     H_    0.713008 0.634975 0.379774 0.000000
H832  H     H_    0.731184 0.639583 0.439503 0.000000
H833  H     H_    0.766194 0.704469 0.606525 0.000000
H834  H     H_    0.751675 0.763522 0.663942 0.000000
H835  H     H_    0.743349 0.828971 0.590334 0.000000
H836  H     H_    0.705661 0.881019 0.668464 0.000000
C837  C     C_3   0.715537 0.541897 0.531417 0.000000
C838  C     C_3   0.738370 0.590730 0.561989 0.000000
C839  C     C_3   0.726694 0.619082 0.600156 0.000000
C840  C     C_R   0.786805 0.605079 0.584118 0.000000
N153  N     N_R   0.799494 0.639454 0.582229 0.000000
C841  C     C_R   0.833770 0.669227 0.631064 0.000000
C842  C     C_R   0.854763 0.712849 0.653885 0.000000
C843  C     C_R   0.889377 0.737712 0.705133 0.000000
C844  C     C_R   0.903599 0.718458 0.732274 0.000000
C845  C     C_R   0.882169 0.674143 0.708291 0.000000
C846  C     C_R   0.845534 0.650917 0.658250 0.000000
N154  N     N_R   0.818309 0.608416 0.628771 0.000000
C847  C     C_2   0.941453 0.745092 0.786126 0.000000
O153  O     O_2   0.960518 0.783851 0.806933 0.000000
O154  O     O_2   0.955236 0.727073 0.813029 0.000000
H837  H     H_    0.697518 0.534555 0.545530 0.000000
H838  H     H_    0.689752 0.530278 0.491602 0.000000
H839  H     H_    0.740211 0.525285 0.532180 0.000000
H840  H     H_    0.723426 0.599184 0.534236 0.000000
H841  H     H_    0.728734 0.651279 0.604759 0.000000
H842  H     H_    0.692407 0.603016 0.585228 0.000000
H843  H     H_    0.749457 0.626160 0.638477 0.000000
H844  H     H_    0.845150 0.727659 0.632836 0.000000
H845  H     H_    0.905929 0.772073 0.723233 0.000000
H846  H     H_    0.892898 0.658284 0.728368 0.000000
H847  H     H_    0.979882 0.745118 0.848627 0.000000
C848  C     C_3   0.880603 0.728616 0.575067 0.000000
C849  C     C_3   0.899019 0.691272 0.569084 0.000000
C850  C     C_3   0.916019 0.689142 0.614273 0.000000
C851  C     C_R   0.867689 0.647376 0.519738 0.000000
N155  N     N_R   0.822301 0.630536 0.497031 0.000000
C852  C     C_R   0.807101 0.605401 0.446375 0.000000
C853  C     C_R   0.764430 0.583980 0.404262 0.000000
C854  C     C_R   0.754560 0.573955 0.357663 0.000000
C855  C     C_R   0.787424 0.586513 0.353820 0.000000
C856  C     C_R   0.830525 0.602292 0.394624 0.000000
C857  C     C_R   0.839919 0.609210 0.439899 0.000000
N156  N     N_R   0.879742 0.630187 0.485273 0.000000
C858  C     C_2   0.776305 0.585212 0.308075 0.000000
O155  O     O_2   0.805334 0.596719 0.304565 0.000000
O156  O     O_2   0.733926 0.572213 0.270191 0.000000
H848  H     H_    0.848457 0.719538 0.568592 0.000000
H849  H     H_    0.903258 0.759391 0.614204 0.000000
H850  H     H_    0.877510 0.735114 0.546900 0.000000
H851  H     H_    0.927597 0.699295 0.567931 0.000000
H852  H     H_    0.889064 0.667216 0.606691 0.000000
H853  H     H_    0.941746 0.674014 0.617089 0.000000
H854  H     H_    0.930394 0.722576 0.650511 0.000000
H855  H     H_    0.737897 0.577004 0.406583 0.000000
H856  H     H_    0.720623 0.560533 0.326259 0.000000
H857  H     H_    0.856520 0.613276 0.393372 0.000000
H858  H     H_    0.726665 0.571416 0.240112 0.000000
C859  C     C_3   0.899871 0.477765 0.909599 0.000000
C860  C     C_3   0.887815 0.513072 0.901362 0.000000
C861  C     C_3   0.884554 0.547784 0.942483 0.000000
C862  C     C_R   0.917490 0.539593 0.900882 0.000000
N157  N     N_R   0.962846 0.559791 0.939072 0.000000
C863  C     C_R   0.972571 0.590561 0.931529 0.000000
C864  C     C_R   0.012744 0.619880 0.955739 0.000000
C865  C     C_R   0.016402 0.647877 0.941762 0.000000
C866  C     C_R   0.979467 0.647373 0.904015 0.000000
C867  C     C_R   0.938664 0.619437 0.881411 0.000000
C868  C     C_R   0.935840 0.590480 0.894548 0.000000
N158  N     N_R   0.899436 0.559411 0.874621 0.000000
C869  C     C_2   0.983970 0.674828 0.886548 0.000000
O157  O     O_2   0.951805 0.672166 0.850688 0.000000
O158  O     O_2   0.023897 0.702270 0.909242 0.000000
H859  H     H_    0.933960 0.491867 0.942036 0.000000
H860  H     H_    0.878546 0.466369 0.918330 0.000000
H861  H     H_    0.893995 0.448616 0.873718 0.000000
H862  H     H_    0.856492 0.495314 0.864725 0.000000
H863  H     H_    0.872260 0.570327 0.931635 0.000000
H864  H     H_    0.863397 0.530778 0.946849 0.000000
H865  H     H_    0.917668 0.569230 0.977085 0.000000
H866  H     H_    0.041699 0.619833 0.982530 0.000000
H867  H     H_    0.048731 0.669294 0.959904 0.000000
H868  H     H_    0.910357 0.619025 0.852213 0.000000
H869  H     H_    0.027187 0.719815 0.897287 0.000000
C870  C     C_3   0.956509 0.530254 0.069379 0.000000
C871  C     C_3   0.936585 0.551389 0.043687 0.000000
C872  C     C_3   0.893434 0.550713 0.038434 0.000000
C873  C     C_R   0.969535 0.595116 0.073960 0.000000
N159  N     N_R   0.977285 0.627347 0.121284 0.000000
C874  C     C_R   0.020907 0.648645 0.149536 0.000000
C875  C     C_R   0.047543 0.680671 0.201825 0.000000
C876  C     C_R   0.092358 0.695015 0.225965 0.000000
C877  C     C_R   0.110475 0.675719 0.198073 0.000000
C878  C     C_R   0.083259 0.644098 0.145441 0.000000
C879  C     C_R   0.037997 0.631594 0.120489 0.000000
N160  N     N_R   0.005975 0.598045 0.070586 0.000000
C880  C     C_2   0.158483 0.687291 0.224602 0.000000
O159  O     O_2   0.182512 0.717975 0.269988 0.000000
O160  O     O_2   0.176258 0.663439 0.199412 0.000000
H870  H     H_    0.987962 0.554073 0.106672 0.000000
H871  H     H_    0.934247 0.517219 0.075666 0.000000
H872  H     H_    0.961060 0.503597 0.040909 0.000000
H873  H     H_    0.931922 0.530055 0.006790 0.000000
H874  H     H_    0.880081 0.571249 0.024811 0.000000
H875  H     H_    0.870123 0.516208 0.009462 0.000000
H876  H     H_    0.897821 0.562125 0.075480 0.000000
H877  H     H_    0.034406 0.694969 0.224580 0.000000
H878  H     H_    0.112903 0.719751 0.267132 0.000000
H879  H     H_    0.098475 0.628577 0.125949 0.000000
H880  H     H_    0.207829 0.670973 0.217084 0.000000
C881  C     C_3   0.924621 0.321414 0.042230 0.000000
C882  C     C_3   0.885140 0.320231 0.045667 0.000000
C883  C     C_3   0.898082 0.325476 0.094106 0.000000
C884  C     C_R   0.862246 0.352268 0.040702 0.000000
N161  N     N_R   0.882624 0.397925 0.068495 0.000000
C885  C     C_R   0.848828 0.410365 0.046823 0.000000
C886  C     C_R   0.850321 0.450914 0.054198 0.000000
C887  C     C_R   0.812708 0.460839 0.039036 0.000000
C888  C     C_R   0.774008 0.429213 0.013357 0.000000
C889  C     C_R   0.772052 0.385300 0.993745 0.000000
C890  C     C_R   0.810116 0.376386 0.013828 0.000000
N162  N     N_R   0.816422 0.338313 0.009251 0.000000
C891  C     C_2   0.739370 0.445703 0.016929 0.000000
O161  O     O_2   0.739798 0.457699 0.055416 0.000000
O162  O     O_2   0.716622 0.460125 0.988002 0.000000
H881  H     H_    0.954970 0.338151 0.081117 0.000000
H882  H     H_    0.923517 0.286843 0.019201 0.000000
H883  H     H_    0.924046 0.337301 0.022887 0.000000
H884  H     H_    0.860445 0.287534 0.013403 0.000000
H885  H     H_    0.866918 0.320717 0.091305 0.000000
H886  H     H_    0.912735 0.300104 0.096825 0.000000
H887  H     H_    0.921895 0.359096 0.126883 0.000000
H888  H     H_    0.879518 0.476397 0.073920 0.000000
H889  H     H_    0.813738 0.494077 0.049831 0.000000
H890  H     H_    0.742419 0.359288 0.961640 0.000000
H891  H     H_    0.699005 0.477566 0.996251 0.000000
C892  C     C_3   0.892823 0.508329 0.180591 0.000000
C893  C     C_3   0.892832 0.542550 0.170763 0.000000
C894  C     C_3   0.905095 0.583379 0.221407 0.000000
C895  C     C_R   0.926441 0.544950 0.158637 0.000000
N163  N     N_R   0.948573 0.586381 0.173654 0.000000
C896  C     C_R   0.990553 0.588451 0.201093 0.000000
C897  C     C_R   0.026988 0.625739 0.237432 0.000000
C898  C     C_R   0.067514 0.621814 0.262832 0.000000
C899  C     C_R   0.070923 0.580695 0.252359 0.000000
C900  C     C_R   0.033156 0.544041 0.219147 0.000000
C901  C     C_R   0.993101 0.549031 0.195371 0.000000
N164  N     N_R   0.952724 0.518110 0.164111 0.000000
C902  C     C_2   0.114238 0.576303 0.277578 0.000000
O163  O     O_2   0.147515 0.608611 0.307401 0.000000
O164  O     O_2   0.117504 0.536500 0.267547 0.000000
H892  H     H_    0.923896 0.518820 0.217175 0.000000
H893  H     H_    0.864785 0.504104 0.183819 0.000000
H894  H     H_    0.888226 0.477837 0.147585 0.000000
H895  H     H_    0.859234 0.532951 0.138747 0.000000
H896  H     H_    0.894227 0.608252 0.215393 0.000000
H897  H     H_    0.887884 0.576307 0.236719 0.000000
H898  H     H_    0.940961 0.595059 0.250222 0.000000
H899  H     H_    0.023568 0.657762 0.249421 0.000000
H900  H     H_    0.096345 0.651309 0.291269 0.000000
H901  H     H_    0.034893 0.511856 0.210158 0.000000
H902  H     H_    0.146046 0.533608 0.283909 0.000000
C903  C     C_3   0.011925 0.414918 0.236545 0.000000
C904  C     C_3   0.005879 0.455515 0.271950 0.000000
C905  C     C_3   0.031091 0.498100 0.285972 0.000000
C906  C     C_R   0.958656 0.449315 0.244103 0.000000
N165  N     N_R   0.934876 0.440165 0.194592 0.000000
C907  C     C_R   0.893683 0.432110 0.184409 0.000000
C908  C     C_R   0.853996 0.412609 0.138887 0.000000
C909  C     C_R   0.818333 0.422390 0.138045 0.000000
C910  C     C_R   0.820364 0.444129 0.182895 0.000000
C911  C     C_R   0.856350 0.448914 0.226070 0.000000
C912  C     C_R   0.893673 0.442724 0.225977 0.000000
N166  N     N_R   0.933597 0.449052 0.263638 0.000000
C913  C     C_2   0.784374 0.461262 0.181834 0.000000
O165  O     O_2   0.750082 0.447259 0.140698 0.000000
O166  O     O_2   0.789336 0.494043 0.225249 0.000000
H903  H     H_    0.997066 0.410554 0.199254 0.000000
H904  H     H_    0.047159 0.417868 0.255050 0.000000
H905  H     H_    0.992768 0.383757 0.225510 0.000000
H906  H     H_    0.017414 0.459210 0.308468 0.000000
H907  H     H_    0.030243 0.526543 0.317169 0.000000
H908  H     H_    0.065792 0.500297 0.299514 0.000000
H909  H     H_    0.014498 0.499227 0.251978 0.000000
H910  H     H_    0.848641 0.387118 0.104868 0.000000
H911  H     H_    0.789498 0.413290 0.102050 0.000000
H912  H     H_    0.855636 0.459564 0.258987 0.000000
H913  H     H_    0.765539 0.505607 0.223051 0.000000
C914  C     C_3   0.166205 0.224908 0.541997 0.000000
C915  C     C_3   0.205578 0.264940 0.590975 0.000000
C916  C     C_3   0.216507 0.293344 0.575715 0.000000
C917  C     C_R   0.195332 0.289184 0.631188 0.000000
N167  N     N_R   0.188045 0.329829 0.644933 0.000000
C918  C     C_R   0.163385 0.328537 0.662262 0.000000
C919  C     C_R   0.128393 0.343596 0.654624 0.000000
C920  C     C_R   0.105015 0.336120 0.672399 0.000000
C921  C     C_R   0.124024 0.324138 0.706387 0.000000
C922  C     C_R   0.154274 0.302383 0.704403 0.000000
C923  C     C_R   0.164809 0.296596 0.670718 0.000000
N168  N     N_R   0.183657 0.268663 0.649989 0.000000
C924  C     C_2   0.112246 0.335634 0.743701 0.000000
O167  O     O_2   0.081985 0.350104 0.740124 0.000000
O168  O     O_2   0.134461 0.330420 0.782031 0.000000
H914  H     H_    0.141774 0.234756 0.519180 0.000000
H915  H     H_    0.177081 0.202872 0.517685 0.000000
H916  H     H_    0.150797 0.207358 0.551272 0.000000
H917  H     H_    0.233053 0.252825 0.605134 0.000000
H918  H     H_    0.247894 0.320347 0.607640 0.000000
H919  H     H_    0.219750 0.272630 0.542986 0.000000
H920  H     H_    0.190217 0.307290 0.563620 0.000000
H921  H     H_    0.119912 0.361113 0.636456 0.000000
H922  H     H_    0.077312 0.347513 0.667840 0.000000
H923  H     H_    0.170035 0.291823 0.729057 0.000000
H924  H     H_    0.126090 0.337950 0.806059 0.000000
C925  C     C_3   0.048315 0.147688 0.561365 0.000000
C926  C     C_3   0.091164 0.143344 0.591838 0.000000
C927  C     C_3   0.093093 0.122081 0.618889 0.000000
C928  C     C_R   0.107477 0.122737 0.561379 0.000000
N169  N     N_R   0.082086 0.084605 0.511417 0.000000
C929  C     C_R   0.108275 0.087693 0.495054 0.000000
C930  C     C_R   0.100423 0.062120 0.446783 0.000000
C931  C     C_R   0.131550 0.071674 0.438547 0.000000
C932  C     C_R   0.170270 0.107472 0.478209 0.000000
C933  C     C_R   0.177364 0.134575 0.526289 0.000000
C934  C     C_R   0.146161 0.124389 0.533753 0.000000
N170  N     N_R   0.146830 0.148016 0.577081 0.000000
C935  C     C_2   0.203003 0.117351 0.468968 0.000000
O169  O     O_2   0.196601 0.093866 0.426403 0.000000
O170  O     O_2   0.240327 0.152394 0.507489 0.000000
H925  H     H_    0.026157 0.115526 0.524356 0.000000
H926  H     H_    0.034548 0.161467 0.584731 0.000000
H927  H     H_    0.054648 0.171177 0.552808 0.000000
H928  H     H_    0.116270 0.175451 0.617765 0.000000
H929  H     H_    0.127273 0.131830 0.648717 0.000000
H930  H     H_    0.076365 0.134793 0.638877 0.000000
H931  H     H_    0.082989 0.085922 0.592740 0.000000
H932  H     H_    0.070673 0.036078 0.415000 0.000000
H933  H     H_    0.124822 0.050958 0.400272 0.000000
H934  H     H_    0.206466 0.163547 0.557443 0.000000
H935  H     H_    0.261808 0.158854 0.501313 0.000000
C936  C     C_3   0.877693 0.010252 0.545992 0.000000
C937  C     C_3   0.914633 0.044835 0.597386 0.000000
C938  C     C_3   0.907713 0.088032 0.610125 0.000000
C939  C     C_R   0.923149 0.035768 0.635803 0.000000
N171  N     N_R   0.894524 0.030225 0.649927 0.000000
C940  C     C_R   0.922424 0.028729 0.690394 0.000000
C941  C     C_R   0.914550 0.028656 0.723988 0.000000
C942  C     C_R   0.948752 0.031584 0.766396 0.000000
C943  C     C_R   0.990441 0.035443 0.775195 0.000000
C944  C     C_R   0.997696 0.034924 0.740383 0.000000
C945  C     C_R   0.963034 0.031192 0.698206 0.000000
N172  N     N_R   0.964945 0.035076 0.663848 0.000000
C946  C     C_2   0.026804 0.040306 0.821333 0.000000
O171  O     O_2   0.020737 0.040926 0.852209 0.000000
O172  O     O_2   0.067097 0.044132 0.829819 0.000000
H936  H     H_    0.850045 0.020307 0.545980 0.000000
H937  H     H_    0.880515 0.012717 0.517913 0.000000
H938  H     H_    0.876754 0.977501 0.539948 0.000000
H939  H     H_    0.943503 0.045419 0.596191 0.000000
H940  H     H_    0.937141 0.113713 0.647956 0.000000
H941  H     H_    0.901569 0.091974 0.579274 0.000000
H942  H     H_    0.878819 0.089322 0.611118 0.000000
H943  H     H_    0.882747 0.026877 0.718034 0.000000
H944  H     H_    0.942739 0.031963 0.793278 0.000000
H945  H     H_    0.029791 0.038611 0.746537 0.000000
H946  H     H_    0.090994 0.047348 0.860222 0.000000
C947  C     C_3   0.966969 0.972436 0.551222 0.000000
C948  C     C_3   0.004468 0.978330 0.544906 0.000000
C949  C     C_3   0.988212 0.944688 0.490703 0.000000
C950  C     C_R   0.017023 0.024825 0.563467 0.000000
N173  N     N_R   0.006913 0.039914 0.531771 0.000000
C951  C     C_R   0.993197 0.073128 0.553428 0.000000
C952  C     C_R   0.965554 0.090515 0.530298 0.000000
C953  C     C_R   0.956266 0.125328 0.559713 0.000000
C954  C     C_R   0.974662 0.141891 0.611243 0.000000
C955  C     C_R   0.998228 0.120100 0.631942 0.000000
C956  C     C_R   0.003590 0.083211 0.600147 0.000000
N174  N     N_R   0.017539 0.052121 0.607394 0.000000
C957  C     C_2   0.963474 0.178383 0.641123 0.000000
O173  O     O_2   0.937950 0.193517 0.620896 0.000000
O174  O     O_2   0.982022 0.195989 0.691367 0.000000
H947  H     H_    0.943472 0.985060 0.532719 0.000000
H948  H     H_    0.952606 0.939688 0.538987 0.000000
H949  H     H_    0.973787 0.990695 0.589313 0.000000
H950  H     H_    0.034381 0.974718 0.567491 0.000000
H951  H     H_    0.994165 0.961645 0.476432 0.000000
H952  H     H_    0.004310 0.919113 0.487911 0.000000
H953  H     H_    0.952903 0.929851 0.468553 0.000000
H954  H     H_    0.951780 0.077970 0.490651 0.000000
H955  H     H_    0.935459 0.140128 0.542319 0.000000
H956  H     H_    0.009569 0.129747 0.670364 0.000000
H957  H     H_    0.976804 0.222005 0.711347 0.000000
C958  C     C_3   0.972619 0.931488 0.680069 0.000000
C959  C     C_3   0.006950 0.932290 0.668462 0.000000
C960  C     C_3   0.026937 0.897592 0.671623 0.000000
C961  C     C_R   0.995518 0.930903 0.620941 0.000000
N175  N     N_R   0.989769 0.890120 0.578880 0.000000
C962  C     C_R   0.026597 0.902089 0.582065 0.000000
C963  C     C_R   0.043289 0.873758 0.557923 0.000000
C964  C     C_R   0.085460 0.889413 0.572475 0.000000
C965  C     C_R   0.109805 0.933991 0.609962 0.000000
C966  C     C_R   0.090727 0.963038 0.630654 0.000000
C967  C     C_R   0.049163 0.946459 0.617486 0.000000
N176  N     N_R   0.025921 0.967658 0.636376 0.000000
C968  C     C_2   0.156621 0.949571 0.630328 0.000000
O175  O     O_2   0.174534 0.922973 0.616800 0.000000
O176  O     O_2   0.180649 0.992878 0.666029 0.000000
H958  H     H_    0.949024 0.946565 0.665664 0.000000
H959  H     H_    0.957263 0.897413 0.665658 0.000000
H960  H     H_    0.989549 0.950424 0.722411 0.000000
H961  H     H_    0.033611 0.964473 0.701545 0.000000
H962  H     H_    0.034849 0.900794 0.707231 0.000000
H963  H     H_    0.003429 0.863829 0.638044 0.000000
H964  H     H_    0.058237 0.904052 0.674728 0.000000
H965  H     H_    0.026501 0.839154 0.534556 0.000000
H966  H     H_    0.099803 0.866046 0.556363 0.000000
H967  H     H_    0.108795 0.997085 0.657227 0.000000
H968  H     H_    0.211597 0.002787 0.679897 0.000000
C969  C     C_3   0.923887 0.668124 0.415768 0.000000
C970  C     C_3   0.916684 0.707994 0.449922 0.000000
C971  C     C_3   0.875425 0.698831 0.446367 0.000000
C972  C     C_R   0.950369 0.728714 0.503542 0.000000
N177  N     N_R   0.970694 0.705096 0.523207 0.000000
C973  C     C_R   0.010678 0.736332 0.563034 0.000000
C974  C     C_R   0.048546 0.730143 0.590720 0.000000
C975  C     C_R   0.087257 0.765791 0.627356 0.000000
C976  C     C_R   0.088183 0.806695 0.634700 0.000000
C977  C     C_R   0.050170 0.811817 0.604803 0.000000
C978  C     C_R   0.011679 0.776522 0.569174 0.000000
N178  N     N_R   0.972839 0.773295 0.532370 0.000000
C979  C     C_2   0.129728 0.844116 0.672840 0.000000
O177  O     O_2   0.163099 0.840053 0.699963 0.000000
O178  O     O_2   0.131306 0.883048 0.677883 0.000000
H969  H     H_    0.928050 0.645785 0.428417 0.000000
H970  H     H_    0.895737 0.650958 0.375108 0.000000
H971  H     H_    0.954286 0.679112 0.419002 0.000000
H972  H     H_    0.919699 0.732633 0.441867 0.000000
H973  H     H_    0.874121 0.730479 0.471667 0.000000
H974  H     H_    0.846446 0.679745 0.406121 0.000000
H975  H     H_    0.879690 0.683607 0.466673 0.000000
H976  H     H_    0.048647 0.698280 0.584377 0.000000
H977  H     H_    0.116877 0.761058 0.649593 0.000000
H978  H     H_    0.051033 0.842508 0.608850 0.000000
H979  H     H_    0.158711 0.907557 0.702845 0.000000
C980  C     C_3   0.988610 0.543528 0.502758 0.000000
C981  C     C_3   0.955871 0.553179 0.516937 0.000000
C982  C     C_3   0.934696 0.517540 0.516881 0.000000
C983  C     C_R   0.979544 0.595035 0.566598 0.000000
N179  N     N_R   0.007917 0.599831 0.612952 0.000000
C984  C     C_R   0.030644 0.643803 0.643770 0.000000
C985  C     C_R   0.067564 0.667848 0.693015 0.000000
C986  C     C_R   0.081853 0.713585 0.720058 0.000000
C987  C     C_R   0.058664 0.734436 0.697755 0.000000
C988  C     C_R   0.023641 0.709236 0.646438 0.000000
C989  C     C_R   0.012891 0.663909 0.618834 0.000000
N180  N     N_R   0.981661 0.633498 0.568223 0.000000
C990  C     C_2   0.072150 0.783049 0.727781 0.000000
O179  O     O_2   0.103225 0.805447 0.772776 0.000000
O180  O     O_2   0.050404 0.803185 0.705715 0.000000
H980  H     H_    0.006597 0.526122 0.517257 0.000000
H981  H     H_    0.972403 0.522463 0.461476 0.000000
H982  H     H_    0.012576 0.574911 0.519834 0.000000
H983  H     H_    0.930471 0.559608 0.491250 0.000000
H984  H     H_    0.898691 0.508282 0.492224 0.000000
H985  H     H_    0.943701 0.488026 0.501150 0.000000
H986  H     H_    0.944305 0.529301 0.556045 0.000000
H987  H     H_    0.086643 0.651742 0.709228 0.000000
H988  H     H_    0.110747 0.732783 0.759118 0.000000
H989  H     H_    0.004510 0.724567 0.628779 0.000000
H990  H     H_    0.059588 0.835178 0.725388 0.000000
C991  C     C_3   0.864735 0.530219 0.395790 0.000000
C992  C     C_3   0.881995 0.523384 0.363709 0.000000
C993  C     C_3   0.867505 0.543848 0.334074 0.000000
C994  C     C_R   0.928687 0.541873 0.397620 0.000000
N181  N     N_R   0.952978 0.585679 0.441395 0.000000
C995  C     C_R   0.992270 0.588477 0.446628 0.000000
C996  C     C_R   0.029031 0.625206 0.480179 0.000000
C997  C     C_R   0.066226 0.620728 0.479574 0.000000
C998  C     C_R   0.066202 0.579715 0.445619 0.000000
C999  C     C_R   0.028428 0.542780 0.411386 0.000000
C1000 C     C_R   0.991764 0.548329 0.411857 0.000000
N182  N     N_R   0.951705 0.517445 0.380463 0.000000
C1001 C     C_2   0.105713 0.575847 0.444933 0.000000
O181  O     O_2   0.139446 0.607785 0.475968 0.000000
O182  O     O_2   0.104793 0.537122 0.409668 0.000000
H991  H     H_    0.883669 0.563586 0.429193 0.000000
H992  H     H_    0.828733 0.522055 0.373796 0.000000
H993  H     H_    0.874952 0.511709 0.413162 0.000000
H994  H     H_    0.874440 0.488458 0.335874 0.000000
H995  H     H_    0.874976 0.530040 0.304516 0.000000
H996  H     H_    0.832114 0.537739 0.316362 0.000000
H997  H     H_    0.887466 0.578732 0.358849 0.000000
H998  H     H_    0.028111 0.656993 0.503966 0.000000
H999  H     H_    0.095172 0.649860 0.505492 0.000000
H1000 H     H_    0.027343 0.510620 0.384828 0.000000
H1001 H     H_    0.130759 0.534726 0.409104 0.000000
C1002 C     C_3   0.860578 0.808287 0.368447 0.000000
C1003 C     C_3   0.906175 0.840333 0.407971 0.000000
C1004 C     C_3   0.911847 0.864717 0.458585 0.000000
C1005 C     C_R   0.937543 0.817028 0.411396 0.000000
N183  N     N_R   0.953685 0.804816 0.446095 0.000000
C1006 C     C_R   0.981671 0.785439 0.435437 0.000000
C1007 C     C_R   0.006577 0.764802 0.455982 0.000000
C1008 C     C_R   0.036255 0.750673 0.443678 0.000000
C1009 C     C_R   0.041024 0.757141 0.411075 0.000000
C1010 C     C_R   0.014515 0.776403 0.388930 0.000000
C1011 C     C_R   0.984361 0.789500 0.400573 0.000000
N184  N     N_R   0.956030 0.808918 0.383061 0.000000
C1012 C     C_2   0.073951 0.743251 0.399855 0.000000
O183  O     O_2   0.080502 0.751518 0.374098 0.000000
O184  O     O_2   0.097298 0.721578 0.418228 0.000000
H1002 H     H_    0.861644 0.774315 0.351927 0.000000
H1003 H     H_    0.840230 0.814596 0.384524 0.000000
H1004 H     H_    0.846238 0.813478 0.338027 0.000000
H1005 H     H_    0.913370 0.861859 0.397511 0.000000
H1006 H     H_    0.947458 0.878317 0.487734 0.000000
H1007 H     H_    0.894406 0.888925 0.461990 0.000000
H1008 H     H_    0.897899 0.841965 0.462448 0.000000
H1009 H     H_    0.004444 0.760388 0.482220 0.000000
H1010 H     H_    0.056331 0.735306 0.460770 0.000000
H1011 H     H_    0.016898 0.780211 0.362262 0.000000
H1012 H     H_    0.118901 0.712529 0.410774 0.000000
C1013 C     C_3   0.754049 0.540682 0.904303 0.000000
C1014 C     C_3   0.788956 0.552899 0.899804 0.000000
C1015 C     C_3   0.784270 0.512484 0.854765 0.000000
C1016 C     C_R   0.790154 0.590525 0.894893 0.000000
N185  N     N_R   0.787453 0.628312 0.929335 0.000000
C1017 C     C_R   0.813536 0.660829 0.936535 0.000000
C1018 C     C_R   0.827603 0.705722 0.972185 0.000000
C1019 C     C_R   0.859865 0.733012 0.978778 0.000000
C1020 C     C_R   0.878978 0.715161 0.951355 0.000000
C1021 C     C_R   0.865290 0.669600 0.916690 0.000000
C1022 C     C_R   0.831035 0.643262 0.908082 0.000000
N186  N     N_R   0.814707 0.598483 0.878011 0.000000
C1023 C     C_2   0.913352 0.744599 0.958939 0.000000
O185  O     O_2   0.926452 0.784539 0.990763 0.000000
O186  O     O_2   0.930057 0.727835 0.930190 0.000000
H1013 H     H_    0.724005 0.534595 0.871482 0.000000
H1014 H     H_    0.756762 0.511605 0.904973 0.000000
H1015 H     H_    0.758483 0.565401 0.940052 0.000000
H1016 H     H_    0.817622 0.563841 0.937224 0.000000
H1017 H     H_    0.752057 0.501414 0.819979 0.000000
H1018 H     H_    0.808784 0.522762 0.850210 0.000000
H1019 H     H_    0.788947 0.485526 0.860585 0.000000
H1020 H     H_    0.815576 0.719976 0.996237 0.000000
H1021 H     H_    0.870697 0.768393 0.006626 0.000000
H1022 H     H_    0.880126 0.654982 0.895865 0.000000
H1023 H     H_    0.952300 0.747497 0.934984 0.000000
C1024 C     C_3   0.897910 0.655589 0.028924 0.000000
C1025 C     C_3   0.888862 0.673435 0.070410 0.000000
C1026 C     C_3   0.876333 0.714645 0.080668 0.000000
C1027 C     C_R   0.857307 0.639065 0.061475 0.000000
N187  N     N_R   0.811564 0.622777 0.026507 0.000000
C1028 C     C_R   0.799297 0.598517 0.039565 0.000000
C1029 C     C_R   0.757515 0.580944 0.022937 0.000000
C1030 C     C_R   0.750262 0.569078 0.050368 0.000000
C1031 C     C_R   0.785273 0.571497 0.091581 0.000000
C1032 C     C_R   0.827542 0.585115 0.104223 0.000000
C1033 C     C_R   0.834112 0.600487 0.079370 0.000000
N188  N     N_R   0.872363 0.624785 0.093926 0.000000
C1034 C     C_2   0.777158 0.562878 0.123353 0.000000
O187  O     O_2   0.807740 0.570152 0.163531 0.000000
O188  O     O_2   0.735699 0.548708 0.109376 0.000000
H1024 H     H_    0.913030 0.682620 0.029686 0.000000
H1025 H     H_    0.921317 0.637685 0.035862 0.000000
H1026 H     H_    0.867211 0.632701 0.991350 0.000000
H1027 H     H_    0.919400 0.682956 0.105679 0.000000
H1028 H     H_    0.887747 0.735666 0.121545 0.000000
H1029 H     H_    0.892920 0.734472 0.074328 0.000000
H1030 H     H_    0.840375 0.705382 0.056192 0.000000
H1031 H     H_    0.732191 0.581729 0.992767 0.000000
H1032 H     H_    0.717457 0.560332 0.041300 0.000000
H1033 H     H_    0.855276 0.587955 0.135677 0.000000
H1034 H     H_    0.730483 0.543664 0.130705 0.000000
C1035 C     C_3   0.887957 0.679364 0.219970 0.000000
C1036 C     C_3   0.933431 0.708185 0.266211 0.000000
C1037 C     C_3   0.961783 0.682677 0.281107 0.000000
C1038 C     C_R   0.953090 0.729817 0.252324 0.000000
N189  N     N_R   0.960424 0.706463 0.213516 0.000000
C1039 C     C_R   0.981998 0.740683 0.218230 0.000000
C1040 C     C_R   0.994936 0.739201 0.187281 0.000000
C1041 C     C_R   0.016888 0.778060 0.199213 0.000000
C1042 C     C_R   0.024851 0.818446 0.240824 0.000000
C1043 C     C_R   0.011260 0.820023 0.271553 0.000000
C1044 C     C_R   0.988385 0.780880 0.258391 0.000000
N190  N     N_R   0.967830 0.775534 0.279116 0.000000
C1045 C     C_2   0.043508 0.858724 0.247933 0.000000
O189  O     O_2   0.070681 0.860228 0.237793 0.000000
O190  O     O_2   0.026475 0.891638 0.258796 0.000000
H1035 H     H_    0.891844 0.655089 0.189849 0.000000
H1036 H     H_    0.868783 0.664562 0.228415 0.000000
H1037 H     H_    0.871817 0.699258 0.206785 0.000000
H1038 H     H_    0.932972 0.732801 0.299222 0.000000
H1039 H     H_    0.996637 0.702610 0.304501 0.000000
H1040 H     H_    0.954426 0.673605 0.302657 0.000000
H1041 H     H_    0.957032 0.653995 0.246405 0.000000
H1042 H     H_    0.988230 0.709067 0.153583 0.000000
H1043 H     H_    0.026173 0.776644 0.174200 0.000000
H1044 H     H_    0.016755 0.850926 0.303804 0.000000
H1045 H     H_    0.036534 0.916763 0.259679 0.000000
C1046 C     C_3   0.917179 0.439945 0.393099 0.000000
C1047 C     C_3   0.951869 0.427705 0.420531 0.000000
C1048 C     C_3   0.928406 0.391590 0.417938 0.000000
C1049 C     C_R   0.976498 0.413029 0.396269 0.000000
N191  N     N_R   0.973707 0.418690 0.359385 0.000000
C1050 C     C_R   0.002189 0.398540 0.350814 0.000000
C1051 C     C_R   0.008732 0.387536 0.313027 0.000000
C1052 C     C_R   0.036512 0.363372 0.307674 0.000000
C1053 C     C_R   0.056484 0.349139 0.339640 0.000000
C1054 C     C_R   0.047834 0.358643 0.376438 0.000000
C1055 C     C_R   0.020932 0.383402 0.381119 0.000000
N192  N     N_R   0.005520 0.392195 0.410554 0.000000
C1056 C     C_2   0.084996 0.322557 0.333041 0.000000
O191  O     O_2   0.092044 0.313354 0.300000 0.000000
O192  O     O_2   0.103649 0.308306 0.363585 0.000000
H1046 H     H_    0.896413 0.408278 0.356676 0.000000
H1047 H     H_    0.900771 0.453517 0.413471 0.000000
H1048 H     H_    0.928793 0.462699 0.387427 0.000000
H1049 H     H_    0.974090 0.455904 0.459958 0.000000
H1050 H     H_    0.908214 0.361757 0.379941 0.000000
H1051 H     H_    0.951428 0.381061 0.439323 0.000000
H1052 H     H_    0.906878 0.402772 0.431630 0.000000
H1053 H     H_    0.989540 0.394548 0.286018 0.000000
H1054 H     H_    0.041196 0.354417 0.277099 0.000000
H1055 H     H_    0.060367 0.345887 0.399776 0.000000
H1056 H     H_    0.122447 0.290853 0.359228 0.000000

loop_
_geom_bond_atom_site_label_1
_geom_bond_atom_site_label_2
_geom_bond_distance
_geom_bond_site_symmetry_2
_ccdc_geom_bond_type
Zn1   N2    2.176 .      S
Zn1   N16   2.218 1_545  S
Zn1   N22   2.104 .      S
Zn1   N42   2.224 .      S
Zn2   N1    2.160 .      S
Zn2   N6    2.076 .      S
Zn2   N49   2.201 1_545  S
Zn2   N121  2.191 .      S
Zn3   N3    2.246 .      S
Zn3   N5    2.151 .      S
Zn3   N10   2.057 .      S
Zn3   N44   2.241 .      S
Zn4   N8    2.160 .      S
Zn4   N9    2.153 .      S
Zn4   N11   2.089 .      S
Zn4   N129  2.241 .      S
Zn5   N14   2.176 .      S
Zn5   N15   2.185 .      S
Zn5   N123  2.208 .      S
Zn5   N140  2.133 .      S
Zn6   N18   2.142 .      S
Zn6   N19   2.176 .      S
Zn6   N21   2.240 .      S
Zn6   N142  2.166 1_545  S
Zn7   N23   2.047 .      S
Zn7   N25   2.191 .      S
Zn7   N143  2.217 .      S
Zn7   N152  2.101 .      S
Zn8   N27   2.112 .      S
Zn8   N30   2.196 .      S
Zn8   N114  2.173 .      S
Zn8   N126  2.126 .      S
Zn9   N32   2.142 .      S
Zn9   N33   2.107 .      S
Zn9   N109  2.169 .      S
Zn9   N128  2.211 .      S
Zn10  N36   2.103 .      S
Zn10  N37   2.151 .      S
Zn10  N40   2.180 .      S
Zn10  N112  2.248 .      S
Zn11  N41   2.227 .      S
Zn11  N43   2.083 .      S
Zn11  N131  2.195 .      S
Zn11  N138  2.087 .      S
Zn12  N46   2.127 1_556  S
Zn12  N64   2.283 .      S
Zn12  N185  2.075 .      S
Zn12  N187  2.215 1_556  S
Zn13  N47   2.224 .      S
Zn13  N120  2.210 .      S
Zn13  N184  2.228 .      S
Zn13  N190  2.154 .      S
Zn14  N13   2.185 .      S
Zn14  N45   2.134 .      S
Zn14  N48   2.154 .      S
Zn14  N50   2.169 .      S
Zn15  N4    2.213 1_455  S
Zn15  N62   2.148 .      S
Zn15  N117  2.203 .      S
Zn15  N192  2.054 .      S
Zn16  N52   2.196 .      S
Zn16  N53   2.156 .      S
Zn16  N56   2.122 .      S
Zn16  N133  2.137 .      S
Zn17  N57   2.220 .      S
Zn17  N60   2.179 .      S
Zn17  N135  2.066 .      S
Zn17  N154  2.198 .      S
Zn18  N29   2.165 .      S
Zn18  N59   2.162 1_455  S
Zn18  N61   2.102 .      S
Zn18  N179  2.216 .      S
Zn19  N34   2.143 .      S
Zn19  N39   2.216 .      S
Zn19  N55   2.194 .      S
Zn19  N63   2.214 .      S
Zn20  N66   2.075 .      S
Zn20  N68   2.140 .      S
Zn20  N70   2.120 .      S
Zn20  N72   2.209 .      S
Zn21  N65   2.147 1_556  S
Zn21  N74   2.232 .      S
Zn21  N75   2.189 1_556  S
Zn21  N78   2.210 .      S
Zn22  N67   2.150 .      S
Zn22  N80   2.240 .      S
Zn22  N81   2.182 1_554  S
Zn22  N84   2.136 .      S
Zn23  N69   2.194 .      S
Zn23  N85   2.102 .      S
Zn23  N88   2.118 .      S
Zn23  N90   2.246 .      S
Zn24  N71   2.218 .      S
Zn24  N92   2.154 .      S
Zn24  N93   2.170 .      S
Zn24  N95   2.124 .      S
Zn25  N77   2.181 .      S
Zn25  N82   2.189 .      S
Zn25  N97   2.079 .      S
Zn25  N99   2.234 .      S
Zn26  N83   2.170 .      S
Zn26  N101  2.180 1_454  S
Zn26  N104  2.120 1_554  S
Zn26  N106  2.172 .      S
Zn27  N73   2.168 .      S
Zn27  N108  2.127 .      S
Zn27  N110  2.136 .      S
Zn27  N111  2.216 .      S
Zn28  N79   2.176 .      S
Zn28  N94   2.153 .      S
Zn28  N113  2.266 1_554  S
Zn28  N116  2.144 .      S
Zn29  N28   2.153 .      S
Zn29  N31   2.142 .      S
Zn29  N118  2.194 .      S
Zn29  N167  2.124 .      S
Zn30  N119  2.125 1_545  S
Zn30  N122  2.175 1_455  S
Zn30  N169  2.266 .      S
Zn30  N173  2.214 .      S
Zn31  N91   2.195 1_556  S
Zn31  N124  2.234 1_556  S
Zn31  N125  2.236 .      S
Zn31  N127  2.307 .      S
Zn32  N76   2.163 .      S
Zn32  N86   2.162 .      S
Zn32  N130  2.219 .      S
Zn32  N132  2.168 .      S
Zn33  N87   2.155 .      S
Zn33  N134  2.144 .      S
Zn33  N136  2.133 .      S
Zn33  N137  2.143 .      S
Zn34  N96   2.137 .      S
Zn34  N139  2.116 .      S
Zn34  N141  2.194 .      S
Zn34  N144  2.202 .      S
Zn35  N102  2.219 .      S
Zn35  N146  2.163 .      S
Zn35  N147  2.153 .      S
Zn35  N150  2.128 .      S
Zn36  N89   2.186 .      S
Zn36  N151  2.159 .      S
Zn36  N153  2.105 .      S
Zn36  N155  2.146 .      S
Zn37  N103  2.214 1_554  S
Zn37  N115  2.203 .      S
Zn37  N157  2.241 1_454  S
Zn37  N160  2.221 .      S
Zn38  N105  2.226 .      S
Zn38  N161  2.125 .      S
Zn38  N164  2.299 .      S
Zn38  N165  2.244 .      S
Zn39  N98   2.157 .      S
Zn39  N107  2.236 .      S
Zn39  N168  2.217 .      S
Zn39  N170  2.227 .      S
Zn40  N100  2.180 .      S
Zn40  N172  2.166 1_455  S
Zn40  N174  2.206 .      S
Zn40  N176  2.289 1_545  S
Zn41  N20   2.144 .      S
Zn41  N38   2.076 .      S
Zn41  N51   2.115 .      S
Zn41  N149  2.165 .      S
Zn42  N156  2.166 .      S
Zn42  N177  2.197 .      S
Zn42  N180  2.190 .      S
Zn42  N181  2.247 .      S
Zn43  N26   2.232 .      S
Zn43  N175  2.268 .      S
Zn43  N178  2.186 .      S
Zn43  N183  2.261 .      S
Zn44  N54   2.159 .      S
Zn44  N58   2.116 .      S
Zn44  N158  2.204 .      S
Zn44  N186  2.147 .      S
Zn45  N159  2.122 .      S
Zn45  N163  2.277 .      S
Zn45  N188  2.172 .      S
Zn45  N189  2.196 .      S
Zn46  N12   2.157 .      S
Zn46  N166  2.121 .      S
Zn46  N182  2.165 .      S
Zn46  N191  2.192 .      S
Zn47  N17   2.164 .      S
Zn47  N24   2.153 1_545  S
Zn47  N145  2.148 .      S
Zn47  N171  2.233 .      S
Zn48  N7    2.227 1_556  S
Zn48  N35   2.167 .      S
Zn48  N148  2.096 .      S
Zn48  N162  2.175 1_556  S
C1    C2    1.522 .      S
C1    H1    1.108 .      S
C1    H2    1.107 .      S
C1    H3    1.090 .      S
C2    C3    1.521 .      S
C2    C4    1.508 .      S
C2    H4    1.102 .      S
C3    H5    1.092 .      S
C3    H6    1.105 .      S
C3    H7    1.110 .      S
C6    H8    1.071 .      S
C7    H9    1.073 .      S
C8    C11   1.445 .      S
C9    H10   1.056 .      S
C11   O2    1.327 .      S
O2    H11   0.965 .      S
C12   C13   1.521 .      S
C12   H12   1.102 .      S
C12   H13   1.108 .      S
C12   H14   1.104 1_655  S
C13   C14   1.525 .      S
C13   C15   1.550 .      S
C13   H15   1.103 .      S
C14   H16   1.076 .      S
C14   H17   1.109 .      S
C14   H18   1.098 .      S
C17   H19   1.078 .      S
C18   H20   1.079 .      S
C19   C22   1.461 .      S
C20   H21   1.078 1_655  S
N4    Zn15  2.213 1_655  S
C22   O4    1.344 .      S
O4    H22   0.965 .      S
H14   C12   1.104 1_455  S
H21   C20   1.078 1_455  S
C23   C24   1.450 .      S
C23   H23   1.100 .      S
C23   H24   1.108 .      S
C23   H25   1.095 .      S
C24   C25   1.519 .      S
C24   C26   1.467 .      S
C24   H26   1.087 .      S
C25   H27   1.108 .      S
C25   H28   1.108 .      S
C25   H29   1.102 .      S
C28   H30   1.057 .      S
C29   H31   1.080 .      S
C30   C33   1.468 .      S
C31   H32   1.073 .      S
C33   O6    1.346 .      S
O6    H33   0.966 1_655  S
H33   O6    0.966 1_455  S
C34   C35   1.486 .      S
C34   H34   1.103 .      S
C34   H35   1.108 .      S
C34   H36   1.099 .      S
C35   C36   1.498 .      S
C35   C37   1.430 .      S
C35   H37   1.085 .      S
C36   H38   1.107 1_554  S
C36   H39   1.107 .      S
C36   H40   1.092 1_554  S
N7    Zn48  2.227 1_554  S
C39   H41   1.063 1_554  S
C40   H42   1.081 .      S
C41   C44   1.467 .      S
C42   H43   1.067 .      S
C44   O8    1.346 .      S
O8    H44   0.966 .      S
H38   C36   1.107 1_556  S
H40   C36   1.092 1_556  S
H41   C39   1.063 1_556  S
C45   C46   1.464 .      S
C45   H45   1.072 .      S
C45   H46   1.084 .      S
C45   H47   1.091 .      S
C46   C47   1.489 .      S
C46   C48   1.488 .      S
C46   H48   1.070 .      S
C47   H49   1.083 .      S
C47   H50   1.085 .      S
C47   H51   1.105 .      S
C50   H52   1.078 .      S
C51   H53   1.079 .      S
C52   C55   1.468 .      S
C53   H54   1.080 .      S
C55   O10   1.346 .      S
O10   H55   0.966 .      S
C56   C57   1.507 .      S
C56   H56   1.097 .      S
C56   H57   1.109 .      S
C56   H58   1.102 .      S
C57   C58   1.466 .      S
C57   C59   1.490 .      S
C57   H59   1.085 .      S
C58   H60   1.098 .      S
C58   H61   1.097 .      S
C58   H62   1.100 .      S
C61   H63   1.070 .      S
C62   H64   1.068 .      S
C63   C66   1.473 .      S
C64   H65   1.018 .      S
C66   O12   1.341 .      S
O12   H66   0.965 .      S
C67   C68   1.472 .      S
C67   H67   1.067 .      S
C67   H68   1.096 .      S
C67   H69   1.088 .      S
C68   C69   1.501 .      S
C68   C70   1.469 .      S
C68   H70   1.088 .      S
C69   H71   1.088 .      S
C69   H72   1.095 .      S
C69   H73   1.103 .      S
C72   H74   1.067 .      S
C73   H75   1.078 1_554  S
C74   C77   1.468 .      S
C75   H76   1.075 .      S
C77   O14   1.345 .      S
O14   H77   0.966 .      S
H75   C73   1.078 1_556  S
C78   C79   1.494 .      S
C78   H78   1.089 .      S
C78   H79   1.107 .      S
C78   H80   1.078 .      S
C79   C80   1.473 .      S
C79   C81   1.460 .      S
C79   H81   1.070 .      S
C80   H82   1.077 .      S
C80   H83   1.087 .      S
C80   H84   1.078 .      S
C83   H85   1.080 .      S
C84   H86   1.080 .      S
C85   C88   1.468 .      S
C86   H87   1.056 .      S
N16   Zn1   2.218 1_565  S
C88   O16   1.345 .      S
O16   H88   0.966 .      S
C89   C90   1.515 .      S
C89   H89   1.104 .      S
C89   H90   1.108 .      S
C89   H91   1.109 .      S
C90   C91   1.505 .      S
C90   C92   1.498 .      S
C90   H92   1.107 .      S
C91   H93   1.106 .      S
C91   H94   1.109 .      S
C91   H95   1.103 .      S
C94   H96   1.070 .      S
C95   H97   1.079 .      S
C96   C99   1.469 .      S
C97   H98   1.045 .      S
C99   O18   1.346 .      S
O18   H99   0.966 .      S
C100  C101  1.455 .      S
C100  H100  1.102 .      S
C100  H101  1.103 .      S
C100  H102  1.084 .      S
C101  C102  1.508 .      S
C101  C103  1.493 .      S
C101  H103  1.082 .      S
C102  H104  1.094 .      S
C102  H105  1.109 .      S
C102  H106  1.109 .      S
C105  H107  1.055 1_545  S
C106  H108  1.079 1_545  S
C107  C110  1.467 .      S
C108  H109  1.066 .      S
C110  O20   1.344 .      S
O20   H110  0.966 .      S
H107  C105  1.055 1_565  S
H108  C106  1.079 1_565  S
C111  C112  1.516 .      S
C111  H111  1.105 .      S
C111  H112  1.109 .      S
C111  H113  1.109 .      S
C112  C113  1.486 .      S
C112  C114  1.488 .      S
C112  H114  1.106 .      S
C113  H115  1.094 .      S
C113  H116  1.109 .      S
C113  H117  1.093 .      S
C116  H118  1.062 1_565  S
C117  H119  1.081 .      S
C118  C121  1.467 .      S
C119  H120  1.078 .      S
C121  O22   1.346 .      S
O22   H121  0.966 .      S
H118  C116  1.062 1_545  S
C122  C123  1.510 .      S
C122  H122  1.104 .      S
C122  H123  1.109 .      S
C122  H124  1.101 .      S
C123  C124  1.497 .      S
C123  C125  1.497 .      S
C123  H125  1.100 .      S
C124  H126  1.106 .      S
C124  H127  1.109 .      S
C124  H128  1.092 .      S
C127  H129  1.061 .      S
C128  H130  1.079 .      S
C129  C132  1.418 .      S
C130  H131  1.060 .      S
N24   Zn47  2.153 1_565  S
C132  O24   1.339 .      S
O24   H132  0.964 1_565  S
H132  O24   0.964 1_545  S
C133  C134  1.514 .      S
C133  H133  1.101 .      S
C133  H134  1.098 .      S
C133  H135  1.103 .      S
C134  C135  1.517 .      S
C134  C136  1.447 .      S
C134  H136  1.105 .      S
C135  H137  1.105 .      S
C135  H138  1.100 .      S
C135  H139  1.097 .      S
C138  H140  1.078 .      S
C139  H141  1.075 .      S
C140  C143  1.463 .      S
C141  H142  1.069 .      S
C143  O26   1.347 .      S
O26   H143  0.966 .      S
C144  C145  1.503 .      S
C144  H144  1.098 .      S
C144  H145  1.107 .      S
C144  H146  1.095 .      S
C145  C146  1.492 .      S
C145  C147  1.494 .      S
C145  H147  1.091 .      S
C146  H148  1.099 .      S
C146  H149  1.100 .      S
C146  H150  1.079 .      S
C149  H151  1.064 .      S
C150  H152  1.081 .      S
C151  C154  1.468 .      S
C152  H153  1.059 .      S
C154  O28   1.347 .      S
O28   H154  0.965 .      S
C155  C156  1.491 .      S
C155  H155  1.083 .      S
C155  H156  1.104 .      S
C155  H157  1.098 .      S
C156  C157  1.500 .      S
C156  C158  1.504 .      S
C156  H158  1.072 .      S
C157  H159  1.107 .      S
C157  H160  1.093 .      S
C157  H161  1.087 .      S
C160  H162  1.071 .      S
C161  H163  1.081 .      S
C162  C165  1.469 .      S
C163  H164  1.066 .      S
C165  O30   1.346 .      S
O30   H165  0.966 .      S
C166  C167  1.486 .      S
C166  H166  1.069 .      S
C166  H167  1.080 .      S
C166  H168  1.103 .      S
C167  C168  1.507 .      S
C167  C169  1.454 .      S
C167  H169  1.103 .      S
C168  H170  1.108 .      S
C168  H171  1.091 .      S
C168  H172  1.098 .      S
C171  H173  1.078 .      S
C172  H174  1.081 .      S
C173  C176  1.468 .      S
C174  H175  1.079 .      S
C176  O32   1.346 .      S
O32   H176  0.966 .      S
C177  C178  1.518 .      S
C177  H177  1.108 .      S
C177  H178  1.109 .      S
C177  H179  1.107 .      S
C178  C179  1.514 .      S
C178  C180  1.498 .      S
C178  H180  1.102 .      S
C179  H181  1.107 .      S
C179  H182  1.106 .      S
C179  H183  1.089 .      S
C182  H184  1.064 .      S
C183  H185  1.080 .      S
C184  C187  1.469 .      S
C185  H186  1.061 .      S
C187  O34   1.346 .      S
O34   H187  0.965 .      S
C188  C189  1.511 .      S
C188  H188  1.102 .      S
C188  H189  1.101 .      S
C188  H190  1.109 .      S
C189  C190  1.515 .      S
C189  C191  1.505 .      S
C189  H191  1.099 .      S
C190  H192  1.094 .      S
C190  H193  1.107 .      S
C190  H194  1.104 .      S
C193  H195  1.045 1_556  S
C194  H196  1.078 1_556  S
C195  C198  1.449 .      S
C196  H197  1.073 .      S
C198  O36   1.344 .      S
O36   H198  0.963 .      S
H195  C193  1.045 1_554  S
H196  C194  1.078 1_554  S
C199  C200  1.477 .      S
C199  H199  1.097 .      S
C199  H200  1.108 .      S
C199  H201  1.104 .      S
C200  C201  1.452 .      S
C200  C202  1.476 .      S
C200  H202  1.075 .      S
C201  H203  1.086 .      S
C201  H204  1.093 .      S
C201  H205  1.082 .      S
C204  H206  1.074 .      S
C205  H207  1.079 .      S
C206  C209  1.466 .      S
C207  H208  1.079 .      S
C209  O38   1.346 .      S
O38   H209  0.965 .      S
C210  C211  1.498 .      S
C210  H210  1.102 .      S
C210  H211  1.103 .      S
C210  H212  1.099 .      S
C211  C212  1.502 .      S
C211  C213  1.451 .      S
C211  H213  1.088 .      S
C212  H214  1.105 .      S
C212  H215  1.105 .      S
C212  H216  1.093 .      S
C215  H217  1.053 .      S
C216  H218  1.072 .      S
C217  C220  1.466 .      S
C218  H219  1.064 .      S
C220  O40   1.335 .      S
O40   H220  0.963 .      S
C221  C222  1.519 .      S
C221  H221  1.097 .      S
C221  H222  1.108 .      S
C221  H223  1.107 .      S
C222  C223  1.505 .      S
C222  C224  1.476 .      S
C222  H224  1.087 .      S
C223  H225  1.108 .      S
C223  H226  1.107 .      S
C223  H227  1.096 .      S
C226  H228  1.044 .      S
C227  H229  1.081 .      S
C228  C231  1.469 .      S
C229  H230  1.048 .      S
C231  O42   1.345 .      S
O42   H231  0.966 .      S
C232  C233  1.457 .      S
C232  H232  1.100 .      S
C232  H233  1.109 .      S
C232  H234  1.104 .      S
C233  C234  1.525 .      S
C233  C235  1.486 .      S
C233  H235  1.094 .      S
C234  H236  1.108 .      S
C234  H237  1.103 .      S
C234  H238  1.095 .      S
C237  H239  1.062 .      S
C238  H240  1.080 .      S
C239  C242  1.468 .      S
C240  H241  1.036 .      S
C242  O44   1.346 .      S
O44   H242  0.966 .      S
C243  C244  1.491 .      S
C243  H243  1.097 .      S
C243  H244  1.090 .      S
C243  H245  1.099 .      S
C244  C245  1.497 .      S
C244  C246  1.472 .      S
C244  H246  1.063 .      S
C245  H247  1.098 .      S
C245  H248  1.107 .      S
C245  H249  1.086 .      S
C248  H250  1.058 .      S
C249  H251  1.081 .      S
C250  C253  1.467 .      S
C251  H252  1.064 .      S
N46   Zn12  2.127 1_554  S
C253  O46   1.344 .      S
O46   H253  0.966 .      S
C254  C255  1.465 .      S
C254  H254  1.098 .      S
C254  H255  1.107 .      S
C254  H256  1.079 .      S
C255  C256  1.487 .      S
C255  C257  1.458 .      S
C255  H257  1.108 .      S
C256  H258  1.102 .      S
C256  H259  1.109 .      S
C256  H260  1.096 .      S
C259  H261  1.065 .      S
C260  H262  1.073 .      S
C261  C264  1.463 .      S
C262  H263  1.076 .      S
C264  O48   1.341 .      S
O48   H264  0.964 .      S
C265  C266  1.521 .      S
C265  H265  1.106 .      S
C265  H266  1.109 .      S
C265  H267  1.103 .      S
C266  C267  1.502 .      S
C266  C268  1.509 .      S
C266  H268  1.101 .      S
C267  H269  1.101 .      S
C267  H270  1.109 .      S
C267  H271  1.106 .      S
N49   Zn2   2.201 1_565  S
C270  H272  1.059 .      S
C271  H273  1.077 .      S
C272  C275  1.467 .      S
C273  H274  1.078 .      S
C275  O50   1.347 .      S
O50   H275  0.965 .      S
C276  C277  1.510 .      S
C276  H276  1.103 .      S
C276  H277  1.109 .      S
C276  H278  1.108 .      S
C277  C278  1.501 .      S
C277  C279  1.494 .      S
C277  H279  1.090 .      S
C278  H280  1.101 .      S
C278  H281  1.108 .      S
C278  H282  1.095 .      S
C281  H283  1.078 .      S
C282  H284  1.081 .      S
C283  C286  1.462 .      S
C284  H285  1.069 .      S
C286  O52   1.337 .      S
O52   H286  0.964 .      S
C287  C288  1.504 .      S
C287  H287  1.106 .      S
C287  H288  1.106 .      S
C287  H289  1.103 .      S
C288  C289  1.503 .      S
C288  C290  1.490 .      S
C288  H290  1.107 .      S
C289  H291  1.094 .      S
C289  H292  1.107 .      S
C289  H293  1.105 .      S
C292  H294  1.073 .      S
C293  H295  1.066 .      S
C294  C297  1.450 .      S
C295  H296  1.071 .      S
C297  O54   1.341 .      S
O54   H297  0.963 .      S
C298  C299  1.433 .      S
C298  H298  1.089 .      S
C298  H299  1.105 .      S
C298  H300  1.078 .      S
C299  C300  1.472 .      S
C299  C301  1.436 .      S
C299  H301  1.079 .      S
C300  H302  1.100 .      S
C300  H303  1.108 .      S
C300  H304  1.104 .      S
C303  H305  1.076 .      S
C304  H306  1.081 .      S
C305  C308  1.468 .      S
C306  H307  1.080 .      S
C308  O56   1.346 .      S
O56   H308  0.966 .      S
C309  C310  1.509 .      S
C309  H309  1.088 .      S
C309  H310  1.101 .      S
C309  H311  1.105 .      S
C310  C311  1.509 .      S
C310  C312  1.454 .      S
C310  H312  1.086 .      S
C311  H313  1.098 .      S
C311  H314  1.099 .      S
C311  H315  1.106 .      S
C314  H316  1.048 .      S
C315  H317  1.081 .      S
C316  C319  1.468 .      S
C317  H318  1.066 .      S
C319  O58   1.345 .      S
O58   H319  0.965 .      S
C320  C321  1.510 .      S
C320  H320  1.097 .      S
C320  H321  1.108 .      S
C320  H322  1.089 .      S
C321  C322  1.508 .      S
C321  C323  1.437 .      S
C321  H323  1.059 .      S
C322  H324  1.107 .      S
C322  H325  1.092 .      S
C322  H326  1.105 .      S
N59   Zn18  2.162 1_655  S
C325  H327  1.051 1_655  S
C326  H328  1.069 .      S
C327  C330  1.464 .      S
C328  H329  1.053 .      S
C330  O60   1.339 .      S
O60   H330  0.961 .      S
H327  C325  1.051 1_455  S
C331  C332  1.500 .      S
C331  H331  1.088 .      S
C331  H332  1.109 .      S
C331  H333  1.097 .      S
C332  C333  1.514 .      S
C332  C334  1.526 .      S
C332  H334  1.095 .      S
C333  H335  1.104 .      S
C333  H336  1.107 .      S
C333  H337  1.098 .      S
C336  H338  1.071 .      S
C337  H339  1.080 .      S
C338  C341  1.469 .      S
C339  H340  1.070 .      S
C341  O62   1.347 .      S
O62   H341  0.965 .      S
C342  C343  1.493 .      S
C342  H342  1.103 .      S
C342  H343  1.103 .      S
C342  H344  1.108 .      S
C343  C344  1.510 .      S
C343  C345  1.507 .      S
C343  H345  1.097 .      S
C344  H346  1.108 .      S
C344  H347  1.108 .      S
C344  H348  1.098 .      S
C347  H349  1.071 .      S
C348  H350  1.081 .      S
C349  C352  1.462 .      S
C350  H351  1.061 .      S
C352  O64   1.342 .      S
O64   H352  0.964 .      S
C353  C354  1.493 .      S
C353  H353  1.088 .      S
C353  H354  1.106 .      S
C353  H355  1.098 .      S
C354  C355  1.478 1_554  S
C354  C356  1.483 .      S
C354  H356  1.070 .      S
C355  C354  1.478 1_556  S
C355  H357  1.068 .      S
C355  H358  1.085 .      S
C355  H359  1.099 .      S
N65   Zn21  2.147 1_554  S
C358  H360  1.063 .      S
C359  H361  1.074 .      S
C360  C363  1.464 .      S
C361  H362  1.066 .      S
C363  O66   1.345 .      S
O66   H363  0.965 .      S
C364  C365  1.503 .      S
C364  H364  1.081 .      S
C364  H365  1.099 1_554  S
C364  H366  1.102 .      S
C365  C366  1.481 .      S
C365  C367  1.444 .      S
C365  H367  1.089 .      S
C366  H368  1.089 .      S
C366  H369  1.080 .      S
C366  H370  1.089 .      S
C369  H371  1.071 .      S
C370  H372  1.080 .      S
C371  C374  1.467 .      S
C372  H373  1.076 .      S
C374  O68   1.337 .      S
O68   H374  0.966 .      S
H365  C364  1.099 1_556  S
C375  C376  1.514 .      S
C375  H375  1.094 .      S
C375  H376  1.097 .      S
C375  H377  1.108 .      S
C376  C377  1.513 .      S
C376  C378  1.454 .      S
C376  H378  1.090 .      S
C377  H379  1.093 .      S
C377  H380  1.102 .      S
C377  H381  1.088 .      S
C380  H382  1.080 .      S
C381  H383  1.080 .      S
C382  C385  1.466 .      S
C383  H384  1.080 .      S
C385  O70   1.344 .      S
O70   H385  0.966 .      S
C386  C387  1.516 .      S
C386  H386  1.104 .      S
C386  H387  1.108 .      S
C386  H388  1.107 .      S
C387  C388  1.512 .      S
C387  C389  1.503 .      S
C387  H389  1.098 .      S
C388  H390  1.104 .      S
C388  H391  1.105 .      S
C388  H392  1.096 .      S
C391  H393  1.061 .      S
C392  H394  1.079 .      S
C393  C396  1.464 .      S
C394  H395  1.059 .      S
C396  O72   1.341 .      S
O72   H396  0.962 .      S
C397  C398  1.504 .      S
C397  H397  1.106 .      S
C397  H398  1.109 .      S
C397  H399  1.105 .      S
C398  C399  1.515 .      S
C398  C400  1.501 .      S
C398  H400  1.104 .      S
C399  H401  1.107 .      S
C399  H402  1.108 .      S
C399  H403  1.105 .      S
C402  H404  1.068 .      S
C403  H405  1.072 .      S
C404  C407  1.463 1_556  S
C405  H406  1.053 1_556  S
C407  C404  1.463 1_554  S
C407  O74   1.343 .      S
O74   H407  0.964 .      S
H406  C405  1.053 1_554  S
C408  C409  1.519 .      S
C408  H408  1.109 .      S
C408  H409  1.107 .      S
C408  H410  1.090 .      S
C409  C410  1.450 .      S
C409  C411  1.445 .      S
C409  H411  1.080 .      S
C410  H412  1.104 .      S
C410  H413  1.096 .      S
C410  H414  1.109 .      S
N75   Zn21  2.189 1_554  S
C413  H415  1.081 .      S
C414  H416  1.081 .      S
C415  C418  1.468 .      S
C416  H417  1.080 .      S
C418  O76   1.347 1_556  S
O76   C418  1.347 1_554  S
O76   H418  0.966 .      S
C419  C420  1.467 .      S
C419  H419  1.077 .      S
C419  H420  1.083 .      S
C419  H421  1.094 .      S
C420  C421  1.476 .      S
C420  C422  1.435 .      S
C420  H422  1.069 .      S
C421  H423  1.105 .      S
C421  H424  1.101 .      S
C421  H425  1.091 .      S
C424  H426  1.079 .      S
C425  H427  1.081 .      S
C426  C429  1.466 .      S
C427  H428  1.067 .      S
C429  O78   1.346 .      S
O78   H429  0.966 .      S
C430  C431  1.498 .      S
C430  H430  1.102 .      S
C430  H431  1.105 .      S
C430  H432  1.108 .      S
C431  C432  1.511 .      S
C431  C433  1.539 .      S
C431  H433  1.079 .      S
C432  H434  1.100 .      S
C432  H435  1.102 .      S
C432  H436  1.109 .      S
C435  H437  1.068 .      S
C436  H438  1.081 .      S
C437  C440  1.462 .      S
C438  H439  1.057 .      S
C440  O80   1.344 .      S
O80   H440  0.963 .      S
C441  C442  1.514 1_554  S
C441  H441  1.102 .      S
C441  H442  1.109 .      S
C441  H443  1.106 1_554  S
C442  C441  1.514 1_556  S
C442  C443  1.515 .      S
C442  C444  1.515 .      S
C442  H444  1.107 .      S
C443  H445  1.106 .      S
C443  H446  1.108 1_556  S
C443  H447  1.099 1_556  S
N81   Zn22  2.182 1_556  S
C446  H448  1.040 .      S
C447  H449  1.078 .      S
C448  C451  1.458 .      S
C449  H450  1.069 .      S
C451  O82   1.326 .      S
O82   H451  0.963 .      S
H443  C441  1.106 1_556  S
H446  C443  1.108 1_554  S
H447  C443  1.099 1_554  S
C452  C453  1.500 .      S
C452  H452  1.099 .      S
C452  H453  1.102 .      S
C452  H454  1.107 .      S
C453  C454  1.501 .      S
C453  C455  1.480 .      S
C453  H455  1.102 .      S
C454  H456  1.105 .      S
C454  H457  1.109 .      S
C454  H458  1.092 .      S
C457  H459  1.056 .      S
C458  H460  1.081 .      S
C459  C462  1.466 .      S
C460  H461  1.061 .      S
C462  O84   1.346 .      S
O84   H462  0.966 .      S
C463  C464  1.495 .      S
C463  H463  1.104 .      S
C463  H464  1.109 .      S
C463  H465  1.093 .      S
C464  C465  1.507 .      S
C464  C466  1.513 .      S
C464  H466  1.109 .      S
C465  H467  1.098 .      S
C465  H468  1.100 .      S
C465  H469  1.105 .      S
C468  H470  1.072 .      S
C469  H471  1.077 .      S
C470  C473  1.471 .      S
C471  H472  1.065 .      S
C473  O86   1.346 .      S
O86   H473  0.966 .      S
C474  C475  1.466 .      S
C474  H474  1.094 .      S
C474  H475  1.107 .      S
C474  H476  1.096 .      S
C475  C476  1.484 .      S
C475  C477  1.462 .      S
C475  H477  1.069 .      S
C476  H478  1.105 .      S
C476  H479  1.100 .      S
C476  H480  1.079 .      S
C479  H481  1.046 .      S
C480  H482  1.080 .      S
C481  C484  1.464 .      S
C482  H483  1.073 .      S
C484  O88   1.340 .      S
O88   H484  0.965 .      S
C485  C486  1.476 .      S
C485  H485  1.097 .      S
C485  H486  1.107 .      S
C485  H487  1.074 .      S
C486  C487  1.513 .      S
C486  C488  1.490 .      S
C486  H488  1.080 .      S
C487  H489  1.091 .      S
C487  H490  1.101 .      S
C487  H491  1.091 .      S
C490  H492  1.057 .      S
C491  H493  1.080 .      S
C492  C495  1.468 .      S
C493  H494  1.057 .      S
C495  O90   1.343 .      S
O90   H495  0.966 .      S
C496  C497  1.471 .      S
C496  H496  1.084 .      S
C496  H497  1.102 .      S
C496  H498  1.109 .      S
C497  C498  1.499 .      S
C497  C499  1.490 .      S
C497  H499  1.104 .      S
C498  H500  1.097 .      S
C498  H501  1.100 .      S
C498  H502  1.094 .      S
N91   Zn31  2.195 1_554  S
C501  H503  1.056 .      S
C502  H504  1.076 .      S
C503  C506  1.438 .      S
C504  H505  1.078 .      S
C506  O92   1.343 .      S
O92   H506  0.962 .      S
C507  C508  1.493 1_556  S
C507  H507  1.087 .      S
C507  H508  1.108 .      S
C507  H509  1.075 .      S
C508  C507  1.493 1_554  S
C508  C509  1.452 .      S
C508  C510  1.478 .      S
C508  H510  1.095 .      S
C509  H511  1.098 .      S
C509  H512  1.097 .      S
C509  H513  1.090 .      S
C512  H514  1.067 .      S
C513  H515  1.080 .      S
C514  C517  1.469 .      S
C515  H516  1.075 .      S
C517  O94   1.346 .      S
O94   H517  0.966 .      S
C518  C519  1.513 .      S
C518  H518  1.103 .      S
C518  H519  1.108 .      S
C518  H520  1.108 .      S
C519  C520  1.513 .      S
C519  C521  1.514 .      S
C519  H521  1.108 .      S
C520  H522  1.099 .      S
C520  H523  1.109 .      S
C520  H524  1.101 .      S
C523  H525  1.058 .      S
C524  H526  1.081 .      S
C525  C528  1.462 .      S
C526  H527  1.065 .      S
C528  O96   1.339 .      S
O96   H528  0.963 .      S
C529  C530  1.512 .      S
C529  H529  1.096 .      S
C529  H530  1.108 .      S
C529  H531  1.096 .      S
C530  C531  1.509 .      S
C530  C532  1.532 .      S
C530  H532  1.102 .      S
C531  H533  1.090 .      S
C531  H534  1.107 .      S
C531  H535  1.098 .      S
C534  H536  1.062 .      S
C535  H537  1.080 .      S
C536  C539  1.465 .      S
C537  H538  1.072 .      S
C539  O98   1.345 .      S
O98   H539  0.964 .      S
C540  C541  1.499 .      S
C540  H540  1.100 .      S
C540  H541  1.104 .      S
C540  H542  1.105 .      S
C541  C542  1.509 .      S
C541  C543  1.456 .      S
C541  H543  1.099 .      S
C542  H544  1.108 .      S
C542  H545  1.108 .      S
C542  H546  1.098 .      S
C545  H547  1.035 .      S
C546  H548  1.077 .      S
C547  C550  1.465 .      S
C548  H549  1.060 .      S
C550  O100  1.340 1_455  S
O100  C550  1.340 1_655  S
O100  H550  0.965 .      S
C551  C552  1.506 .      S
C551  H551  1.101 .      S
C551  H552  1.108 .      S
C551  H553  1.095 .      S
C552  C553  1.502 .      S
C552  C554  1.516 .      S
C552  H554  1.092 .      S
C553  H555  1.103 .      S
C553  H556  1.097 .      S
C553  H557  1.093 .      S
N101  Zn26  2.180 1_656  S
C556  H558  1.070 1_556  S
C557  H559  1.081 1_656  S
C558  C561  1.468 .      S
C559  H560  1.070 .      S
C561  O102  1.345 .      S
O102  H561  0.966 .      S
H558  C556  1.070 1_554  S
H559  C557  1.081 1_454  S
C562  C563  1.520 .      S
C562  H562  1.105 .      S
C562  H563  1.104 .      S
C562  H564  1.107 .      S
C563  C564  1.481 .      S
C563  C565  1.524 .      S
C563  H565  1.084 .      S
C564  H566  1.099 .      S
C564  H567  1.109 .      S
C564  H568  1.094 .      S
N103  Zn37  2.214 1_556  S
C567  H569  1.073 .      S
C568  H570  1.074 .      S
C569  C572  1.479 .      S
C570  H571  1.068 1_655  S
N104  Zn26  2.120 1_556  S
C572  O104  1.339 1_655  S
O104  C572  1.339 1_455  S
O104  H572  0.966 .      S
H571  C570  1.068 1_455  S
C573  C574  1.476 .      S
C573  H573  1.093 .      S
C573  H574  1.081 .      S
C573  H575  1.105 .      S
C574  C575  1.494 1_655  S
C574  C576  1.407 .      S
C574  H576  1.084 .      S
C575  C574  1.494 1_455  S
C575  H577  1.106 .      S
C575  H578  1.064 .      S
C575  H579  1.061 1_455  S
C578  H580  1.070 .      S
C579  H581  1.081 .      S
C580  C583  1.469 .      S
C581  H582  1.074 .      S
C583  O106  1.346 .      S
O106  H583  0.966 .      S
H579  C575  1.061 1_655  S
C584  C585  1.454 .      S
C584  H584  1.103 .      S
C584  H585  1.092 .      S
C584  H586  1.089 .      S
C585  C586  1.497 .      S
C585  C587  1.498 .      S
C585  H587  1.096 .      S
C586  H588  1.106 .      S
C586  H589  1.100 .      S
C586  H590  1.091 .      S
C589  H591  1.064 .      S
C590  H592  1.080 .      S
C591  C594  1.468 .      S
C592  H593  1.077 .      S
C594  O108  1.346 .      S
O108  H594  0.966 .      S
C595  C596  1.460 .      S
C595  H595  1.083 .      S
C595  H596  1.082 .      S
C595  H597  1.100 .      S
C596  C597  1.511 .      S
C596  C598  1.497 .      S
C596  H598  1.092 .      S
C597  H599  1.099 .      S
C597  H600  1.106 .      S
C597  H601  1.107 .      S
C600  H602  1.071 .      S
C601  H603  1.081 .      S
C602  C605  1.460 .      S
C603  H604  1.071 .      S
C605  O110  1.348 .      S
O110  H605  0.966 1_556  S
H605  O110  0.966 1_554  S
C606  C607  1.513 .      S
C606  H606  1.095 .      S
C606  H607  1.101 .      S
C606  H608  1.109 .      S
C607  C608  1.483 .      S
C607  C609  1.486 .      S
C607  H609  1.098 .      S
C608  H610  1.096 .      S
C608  H611  1.108 .      S
C608  H612  1.106 .      S
C611  H613  1.051 .      S
C612  H614  1.080 .      S
C613  C616  1.459 .      S
C614  H615  1.071 .      S
C616  O112  1.343 .      S
O112  H616  0.966 .      S
C617  C618  1.490 .      S
C617  H617  1.109 .      S
C617  H618  1.108 .      S
C617  H619  1.096 .      S
C618  C619  1.486 1_556  S
C618  C620  1.493 .      S
C618  H620  1.095 .      S
C619  C618  1.486 1_554  S
C619  H621  1.086 .      S
C619  H622  1.109 .      S
C619  H623  1.109 .      S
N113  Zn28  2.266 1_556  S
C622  H624  1.076 .      S
C623  H625  1.078 .      S
C624  C627  1.455 .      S
C625  H626  1.064 .      S
C627  O114  1.346 .      S
O114  H627  0.966 .      S
C628  C629  1.461 .      S
C628  H628  1.072 .      S
C628  H629  1.087 .      S
C628  H630  1.087 .      S
C629  C630  1.496 .      S
C629  C631  1.447 1_556  S
C629  H631  1.102 .      S
C630  H632  1.095 .      S
C630  H633  1.107 .      S
C630  H634  1.084 .      S
C631  C629  1.447 1_554  S
C633  H635  1.081 .      S
C634  H636  1.081 .      S
C635  C638  1.468 .      S
C636  H637  1.068 .      S
C638  O116  1.346 .      S
O116  H638  0.966 .      S
C639  C640  1.515 .      S
C639  H639  1.109 .      S
C639  H640  1.103 .      S
C639  H641  1.109 .      S
C640  C641  1.495 .      S
C640  C642  1.495 .      S
C640  H642  1.090 .      S
C641  H643  1.104 .      S
C641  H644  1.097 .      S
C641  H645  1.093 .      S
C644  H646  1.044 .      S
C645  H647  1.081 .      S
C646  C649  1.459 .      S
C647  H648  1.024 .      S
C649  O118  1.340 .      S
O118  H649  0.965 .      S
C650  C651  1.520 1_655  S
C650  H650  1.095 1_665  S
C650  H651  1.107 1_655  S
C650  H652  1.093 .      S
C651  C650  1.520 1_455  S
C651  C652  1.535 .      S
C651  C653  1.511 1_455  S
C651  H653  1.095 1_455  S
C652  H654  1.104 .      S
C652  H655  1.106 .      S
C652  H656  1.103 .      S
C653  C651  1.511 1_655  S
N119  Zn30  2.125 1_565  S
C655  H657  1.081 1_565  S
C656  H658  1.079 .      S
C657  C660  1.470 .      S
C658  H659  1.068 .      S
C660  O120  1.349 .      S
O120  H660  0.965 .      S
H650  C650  1.095 1_445  S
H651  C650  1.107 1_455  S
H653  C651  1.095 1_655  S
H657  C655  1.081 1_545  S
C661  C662  1.520 .      S
C661  H661  1.106 .      S
C661  H662  1.105 .      S
C661  H663  1.108 1_655  S
C662  C663  1.518 .      S
C662  C664  1.485 .      S
C662  H664  1.103 .      S
C663  H665  1.108 .      S
C663  H666  1.103 .      S
C663  H667  1.101 .      S
C666  H668  1.065 .      S
C667  H669  1.065 .      S
C668  C671  1.430 .      S
C669  H670  1.055 .      S
N122  Zn30  2.175 1_655  S
C671  O122  1.328 .      S
O122  H671  0.956 .      S
H663  C661  1.108 1_455  S
C672  C673  1.498 .      S
C672  H672  1.099 .      S
C672  H673  1.107 .      S
C672  H674  1.104 .      S
C673  C674  1.518 1_554  S
C673  C675  1.455 .      S
C673  H675  1.081 .      S
C674  C673  1.518 1_556  S
C674  H676  1.108 .      S
C674  H677  1.101 .      S
C674  H678  1.101 .      S
C677  H679  1.063 .      S
C678  H680  1.080 .      S
C679  C682  1.469 .      S
C680  H681  1.060 1_554  S
N124  Zn31  2.234 1_554  S
C682  O124  1.347 1_554  S
O124  C682  1.347 1_556  S
O124  H682  0.966 .      S
H681  C680  1.060 1_556  S
C683  C684  1.462 .      S
C683  H683  1.093 .      S
C683  H684  1.099 .      S
C683  H685  1.082 .      S
C684  C685  1.460 .      S
C684  C686  1.462 .      S
C684  H686  1.092 .      S
C685  H687  1.068 .      S
C685  H688  1.098 .      S
C685  H689  1.079 .      S
C688  H690  1.066 .      S
C689  H691  1.080 .      S
C690  C693  1.468 .      S
C691  H692  1.073 .      S
C693  O126  1.347 .      S
O126  H693  0.966 .      S
C694  C695  1.513 .      S
C694  H694  1.096 .      S
C694  H695  1.108 .      S
C694  H696  1.102 .      S
C695  C696  1.503 .      S
C695  C697  1.485 .      S
C695  H697  1.077 .      S
C696  H698  1.102 .      S
C696  H699  1.092 .      S
C696  H700  1.096 .      S
C699  H701  1.069 .      S
C700  H702  1.081 .      S
C701  C704  1.467 .      S
C702  H703  1.079 .      S
C704  O128  1.346 .      S
O128  H704  0.966 .      S
C705  C706  1.510 .      S
C705  H705  1.105 .      S
C705  H706  1.109 .      S
C705  H707  1.105 .      S
C706  C707  1.511 .      S
C706  C708  1.498 .      S
C706  H708  1.103 .      S
C707  H709  1.105 .      S
C707  H710  1.107 .      S
C707  H711  1.109 .      S
C710  H712  1.048 .      S
C711  H713  1.064 .      S
C712  C715  1.452 .      S
C713  H714  1.076 .      S
C715  O130  1.325 .      S
O130  H715  0.962 .      S
C716  C717  1.500 .      S
C716  H716  1.091 .      S
C716  H717  1.094 .      S
C716  H718  1.100 .      S
C717  C718  1.485 .      S
C717  C719  1.464 .      S
C717  H719  1.107 .      S
C718  H720  1.095 .      S
C718  H721  1.081 .      S
C718  H722  1.074 .      S
C721  H723  1.076 .      S
C722  H724  1.080 .      S
C723  C726  1.463 .      S
C724  H725  1.078 .      S
C726  O132  1.342 .      S
O132  H726  0.965 .      S
C727  C728  1.520 .      S
C727  H727  1.102 .      S
C727  H728  1.106 .      S
C727  H729  1.109 .      S
C728  C729  1.507 .      S
C728  C730  1.443 .      S
C728  H730  1.088 .      S
C729  H731  1.102 .      S
C729  H732  1.103 .      S
C729  H733  1.094 .      S
C732  H734  1.074 .      S
C733  H735  1.080 .      S
C734  C737  1.468 .      S
C735  H736  1.067 .      S
C737  O134  1.346 .      S
O134  H737  0.966 .      S
C738  C739  1.507 .      S
C738  H738  1.099 .      S
C738  H739  1.109 .      S
C738  H740  1.095 .      S
C739  C740  1.504 .      S
C739  C741  1.518 .      S
C739  H741  1.093 .      S
C740  H742  1.106 .      S
C740  H743  1.106 .      S
C740  H744  1.097 .      S
C743  H745  1.052 .      S
C744  H746  1.080 .      S
C745  C748  1.470 .      S
C746  H747  1.047 .      S
C748  O136  1.342 .      S
O136  H748  0.966 .      S
C749  C750  1.507 .      S
C749  H749  1.107 .      S
C749  H750  1.109 .      S
C749  H751  1.098 .      S
C750  C751  1.497 .      S
C750  C752  1.513 .      S
C750  H752  1.100 .      S
C751  H753  1.092 .      S
C751  H754  1.108 .      S
C751  H755  1.105 .      S
C754  H756  1.063 .      S
C755  H757  1.078 .      S
C756  C759  1.467 .      S
C757  H758  1.077 .      S
C759  O138  1.344 .      S
O138  H759  0.966 .      S
C760  C761  1.471 .      S
C760  H760  1.094 .      S
C760  H761  1.097 .      S
C760  H762  1.101 .      S
C761  C762  1.511 .      S
C761  C763  1.486 .      S
C761  H763  1.099 .      S
C762  H764  1.096 .      S
C762  H765  1.109 .      S
C762  H766  1.097 .      S
C765  H767  1.050 .      S
C766  H768  1.075 .      S
C767  C770  1.418 .      S
C768  H769  1.070 .      S
C770  O140  1.329 .      S
O140  H770  0.955 .      S
C771  C772  1.456 .      S
C771  H771  1.090 .      S
C771  H772  1.078 .      S
C771  H773  1.086 .      S
C772  C773  1.493 .      S
C772  C774  1.477 .      S
C772  H774  1.101 .      S
C773  H775  1.081 .      S
C773  H776  1.084 .      S
C773  H777  1.099 .      S
C776  H778  1.067 .      S
C777  H779  1.079 .      S
C778  C781  1.468 .      S
C779  H780  1.076 .      S
N142  Zn6   2.166 1_565  S
C781  O142  1.345 .      S
O142  H781  0.966 .      S
C782  C783  1.533 .      S
C782  H782  1.105 .      S
C782  H783  1.096 .      S
C782  H784  1.104 .      S
C783  C784  1.526 .      S
C783  C785  1.509 .      S
C783  H785  1.107 .      S
C784  H786  1.106 .      S
C784  H787  1.110 .      S
C784  H788  1.093 .      S
C787  H789  1.066 .      S
C788  H790  1.072 .      S
C789  C792  1.453 .      S
C790  H791  1.064 .      S
C792  O144  1.344 .      S
O144  H792  0.965 .      S
C793  C794  1.501 .      S
C793  H793  1.109 .      S
C793  H794  1.096 .      S
C793  H795  1.095 .      S
C794  C795  1.515 .      S
C794  C796  1.498 .      S
C794  H796  1.079 .      S
C795  H797  1.107 .      S
C795  H798  1.109 .      S
C795  H799  1.102 .      S
C798  H800  1.063 .      S
C799  H801  1.067 .      S
C800  C803  1.441 .      S
C801  H802  1.043 .      S
C803  O146  1.336 .      S
O146  H803  0.954 .      S
C804  C805  1.472 .      S
C804  H804  1.068 .      S
C804  H805  1.093 .      S
C804  H806  1.090 .      S
C805  C806  1.479 .      S
C805  C807  1.464 .      S
C805  H807  1.106 .      S
C806  H808  1.088 .      S
C806  H809  1.105 .      S
C806  H810  1.082 .      S
C809  H811  1.069 .      S
C810  H812  1.081 .      S
C811  C814  1.467 .      S
C812  H813  1.075 .      S
C814  O148  1.346 .      S
O148  H814  0.965 .      S
C815  C816  1.479 .      S
C815  H815  1.104 .      S
C815  H816  1.105 .      S
C815  H817  1.107 .      S
C816  C817  1.504 .      S
C816  C818  1.477 .      S
C816  H818  1.091 .      S
C817  H819  1.096 .      S
C817  H820  1.108 .      S
C817  H821  1.103 .      S
C820  H822  1.073 .      S
C821  H823  1.074 .      S
C822  C825  1.465 .      S
C823  H824  1.065 .      S
C825  O150  1.338 .      S
O150  H825  0.964 .      S
C826  C827  1.481 .      S
C826  H826  1.076 .      S
C826  H827  1.106 .      S
C826  H828  1.092 .      S
C827  C828  1.501 .      S
C827  C829  1.473 .      S
C827  H829  1.097 .      S
C828  H830  1.093 .      S
C828  H831  1.106 .      S
C828  H832  1.082 .      S
C831  H833  1.074 .      S
C832  H834  1.080 .      S
C833  C836  1.468 .      S
C834  H835  1.074 .      S
C836  O152  1.345 .      S
O152  H836  0.966 .      S
C837  C838  1.498 .      S
C837  H837  1.099 .      S
C837  H838  1.103 .      S
C837  H839  1.099 .      S
C838  C839  1.521 .      S
C838  C840  1.505 .      S
C838  H840  1.087 .      S
C839  H841  1.106 .      S
C839  H842  1.109 .      S
C839  H843  1.097 .      S
C842  H844  1.073 .      S
C843  H845  1.080 .      S
C844  C847  1.466 .      S
C845  H846  1.081 .      S
C847  O154  1.344 .      S
O154  H847  0.965 .      S
C848  C849  1.507 .      S
C848  H848  1.094 .      S
C848  H849  1.108 .      S
C848  H850  1.105 .      S
C849  C850  1.481 .      S
C849  C851  1.494 .      S
C849  H851  1.106 .      S
C850  H852  1.091 .      S
C850  H853  1.093 .      S
C850  H854  1.107 .      S
C853  H855  1.050 .      S
C854  H856  1.074 .      S
C855  C858  1.466 .      S
C856  H857  1.055 .      S
C858  O156  1.346 .      S
O156  H858  0.966 .      S
C859  C860  1.498 .      S
C859  H859  1.087 .      S
C859  H860  1.109 .      S
C859  H861  1.105 .      S
C860  C861  1.463 .      S
C860  C862  1.455 .      S
C860  H862  1.078 .      S
C861  H863  1.099 .      S
C861  H864  1.097 .      S
C861  H865  1.095 .      S
N157  Zn37  2.241 1_656  S
C864  H866  1.041 .      S
C865  H867  1.080 .      S
C866  C869  1.466 .      S
C867  H868  1.061 .      S
C869  O158  1.347 1_655  S
O158  C869  1.347 1_455  S
O158  H869  0.965 .      S
C870  C871  1.441 .      S
C870  H870  1.106 .      S
C870  H871  1.099 .      S
C870  H872  1.102 .      S
C871  C872  1.498 .      S
C871  C873  1.472 .      S
C871  H873  1.074 .      S
C872  H874  1.095 .      S
C872  H875  1.108 .      S
C872  H876  1.102 .      S
C875  H877  1.066 .      S
C876  H878  1.080 .      S
C877  C880  1.469 .      S
C878  H879  1.057 .      S
C880  O160  1.346 .      S
O160  H880  0.966 .      S
C881  C882  1.510 .      S
C881  H881  1.102 .      S
C881  H882  1.109 .      S
C881  H883  1.099 .      S
C882  C883  1.472 .      S
C882  C884  1.493 .      S
C882  H884  1.091 .      S
C883  H885  1.099 .      S
C883  H886  1.108 .      S
C883  H887  1.103 .      S
C886  H888  1.051 .      S
C887  H889  1.077 .      S
C888  C891  1.451 .      S
C889  H890  1.050 .      S
N162  Zn48  2.175 1_554  S
C891  O162  1.339 1_554  S
O162  C891  1.339 1_556  S
O162  H891  0.963 .      S
C892  C893  1.463 .      S
C892  H892  1.110 .      S
C892  H893  1.102 .      S
C892  H894  1.087 .      S
C893  C894  1.505 .      S
C893  C895  1.501 .      S
C893  H895  1.095 .      S
C894  H896  1.081 .      S
C894  H897  1.108 .      S
C894  H898  1.108 .      S
C897  H899  1.070 .      S
C898  H900  1.081 .      S
C899  C902  1.468 .      S
C900  H901  1.074 .      S
C902  O164  1.346 .      S
O164  H902  0.966 .      S
C903  C904  1.518 .      S
C903  H903  1.098 1_455  S
C903  H904  1.108 .      S
C903  H905  1.101 1_455  S
C904  C905  1.507 .      S
C904  C906  1.470 1_455  S
C904  H906  1.100 .      S
C905  H907  1.109 .      S
C905  H908  1.108 .      S
C905  H909  1.098 .      S
C906  C904  1.470 1_655  S
C908  H910  1.022 .      S
C909  H911  1.077 .      S
C910  C913  1.466 .      S
C911  H912  1.060 .      S
C913  O166  1.336 .      S
O166  H913  0.965 .      S
H903  C903  1.098 1_655  S
H905  C903  1.101 1_655  S
C914  C915  1.512 .      S
C914  H914  1.101 .      S
C914  H915  1.106 .      S
C914  H916  1.103 .      S
C915  C916  1.516 .      S
C915  C917  1.510 .      S
C915  H917  1.107 .      S
C916  H918  1.095 .      S
C916  H919  1.109 .      S
C916  H920  1.106 .      S
C919  H921  1.079 .      S
C920  H922  1.077 .      S
C921  C924  1.469 .      S
C922  H923  1.063 .      S
C924  O168  1.340 .      S
O168  H924  0.966 .      S
C925  C926  1.496 .      S
C925  H925  1.099 .      S
C925  H926  1.099 .      S
C925  H927  1.101 .      S
C926  C927  1.497 .      S
C926  C928  1.396 .      S
C926  H928  1.078 .      S
C927  H929  1.083 .      S
C927  H930  1.099 .      S
C927  H931  1.097 .      S
C930  H932  1.050 .      S
C931  H933  1.081 .      S
C932  C935  1.468 .      S
C933  H934  1.080 .      S
C935  O170  1.346 .      S
O170  H935  0.966 .      S
C936  C937  1.447 .      S
C936  H936  1.085 .      S
C936  H937  1.105 .      S
C936  H938  1.109 1_545  S
C937  C938  1.485 .      S
C937  C939  1.469 .      S
C937  H939  1.078 .      S
C938  H940  1.095 .      S
C938  H941  1.104 .      S
C938  H942  1.077 .      S
C941  H943  1.074 .      S
C942  H944  1.080 .      S
C943  C946  1.467 1_655  S
C944  H945  1.080 1_655  S
N172  Zn40  2.166 1_655  S
C946  C943  1.467 1_455  S
C946  O172  1.346 .      S
O172  H946  0.966 .      S
H938  C936  1.109 1_565  S
H945  C944  1.080 1_455  S
C947  C948  1.521 1_655  S
C947  H947  1.084 .      S
C947  H948  1.072 .      S
C947  H949  1.071 .      S
C948  C947  1.521 1_455  S
C948  C949  1.472 1_455  S
C948  C950  1.458 1_565  S
C948  H950  1.070 .      S
C949  C948  1.472 1_655  S
C949  H951  1.054 .      S
C949  H952  1.108 1_655  S
C949  H953  1.081 .      S
C950  C948  1.458 1_545  S
C952  H954  1.074 .      S
C953  H955  1.080 .      S
C954  C957  1.463 .      S
C955  H956  1.081 1_655  S
C957  O174  1.342 .      S
O174  H957  0.963 .      S
H952  C949  1.108 1_455  S
H956  C955  1.081 1_455  S
C958  C959  1.504 1_655  S
C958  H958  1.096 .      S
C958  H959  1.098 .      S
C958  H960  1.106 .      S
C959  C958  1.504 1_455  S
C959  C960  1.510 .      S
C959  C961  1.524 1_455  S
C959  H961  1.108 .      S
C960  H962  1.109 .      S
C960  H963  1.108 .      S
C960  H964  1.106 .      S
C961  C959  1.524 1_655  S
C963  H965  1.060 .      S
C964  H966  1.080 .      S
C965  C968  1.469 .      S
C966  H967  1.049 .      S
N176  Zn40  2.289 1_565  S
C968  O176  1.344 .      S
O176  H968  0.966 1_565  S
H968  O176  0.966 1_545  S
C969  C970  1.508 .      S
C969  H969  1.100 .      S
C969  H970  1.108 .      S
C969  H971  1.108 .      S
C970  C971  1.471 .      S
C970  C972  1.438 .      S
C970  H972  1.094 .      S
C971  H973  1.088 .      S
C971  H974  1.104 .      S
C971  H975  1.079 .      S
C974  H976  1.077 .      S
C975  H977  1.081 .      S
C976  C979  1.468 .      S
C977  H978  1.061 .      S
C979  O178  1.346 .      S
O178  H979  0.966 .      S
C980  C981  1.497 .      S
C980  H980  1.065 1_655  S
C980  H981  1.078 .      S
C980  H982  1.106 1_655  S
C981  C982  1.505 .      S
C981  C983  1.438 .      S
C981  H983  1.087 .      S
C982  H984  1.102 .      S
C982  H985  1.092 .      S
C982  H986  1.101 .      S
C985  H987  1.072 .      S
C986  H988  1.081 .      S
C987  C990  1.468 .      S
C988  H989  1.076 .      S
C990  O180  1.346 .      S
O180  H990  0.966 .      S
H980  C980  1.065 1_455  S
H982  C980  1.106 1_455  S
C991  C992  1.483 .      S
C991  H991  1.071 .      S
C991  H992  1.101 .      S
C991  H993  1.095 .      S
C992  C993  1.499 .      S
C992  C994  1.423 .      S
C992  H994  1.087 .      S
C993  H995  1.100 .      S
C993  H996  1.095 .      S
C993  H997  1.089 .      S
C996  H998  1.068 .      S
C997  H999  1.081 .      S
C998  C1001 1.468 .      S
C999  H1000 1.077 .      S
C1001 O182  1.346 .      S
O182  H1001 0.966 .      S
C1002 C1003 1.486 .      S
C1002 H1002 1.098 .      S
C1002 H1003 1.107 .      S
C1002 H1004 1.081 .      S
C1003 C1004 1.475 .      S
C1003 C1005 1.443 .      S
C1003 H1005 1.101 .      S
C1004 H1006 1.099 .      S
C1004 H1007 1.098 .      S
C1004 H1008 1.068 .      S
C1007 H1009 1.067 .      S
C1008 H1010 1.080 .      S
C1009 C1012 1.471 .      S
C1010 H1011 1.074 .      S
C1012 O184  1.346 .      S
O184  H1012 0.966 .      S
C1013 C1014 1.450 .      S
C1013 H1013 1.072 .      S
C1013 H1014 1.086 .      S
C1013 H1015 1.070 .      S
C1014 C1015 1.486 .      S
C1014 C1016 1.479 .      S
C1014 H1016 1.086 .      S
C1015 H1017 1.094 .      S
C1015 H1018 1.077 .      S
C1015 H1019 1.109 .      S
C1018 H1020 1.067 .      S
C1019 H1021 1.080 1_556  S
C1020 C1023 1.467 .      S
C1021 H1022 1.070 .      S
C1023 O186  1.345 .      S
O186  H1023 0.966 .      S
H1021 C1019 1.080 1_554  S
C1024 C1025 1.508 .      S
C1024 H1024 1.108 .      S
C1024 H1025 1.102 .      S
C1024 H1026 1.092 1_554  S
C1025 C1026 1.510 .      S
C1025 C1027 1.489 .      S
C1025 H1027 1.086 .      S
C1026 H1028 1.101 .      S
C1026 H1029 1.107 .      S
C1026 H1030 1.100 .      S
N187  Zn12  2.215 1_554  S
C1029 H1031 1.055 1_554  S
C1030 H1032 1.078 .      S
C1031 C1034 1.470 .      S
C1032 H1033 1.053 .      S
C1034 O188  1.346 .      S
O188  H1034 0.966 .      S
H1026 C1024 1.092 1_556  S
H1031 C1029 1.055 1_556  S
C1035 C1036 1.489 .      S
C1035 H1035 1.089 .      S
C1035 H1036 1.108 .      S
C1035 H1037 1.096 .      S
C1036 C1037 1.501 .      S
C1036 C1038 1.450 .      S
C1036 H1038 1.089 .      S
C1037 H1039 1.098 .      S
C1037 H1040 1.108 .      S
C1037 H1041 1.089 .      S
C1040 H1042 1.066 .      S
C1041 H1043 1.081 .      S
C1042 C1045 1.462 .      S
C1043 H1044 1.070 .      S
C1045 O190  1.343 .      S
O190  H1045 0.966 .      S
C1046 C1047 1.435 .      S
C1046 H1046 1.077 .      S
C1046 H1047 1.102 .      S
C1046 H1048 1.074 .      S
C1047 C1048 1.503 .      S
C1047 C1049 1.472 .      S
C1047 H1049 1.079 .      S
C1048 H1050 1.069 .      S
C1048 H1051 1.069 .      S
C1048 H1052 1.102 .      S
C1051 H1053 1.052 1_455  S
C1052 H1054 1.080 .      S
C1053 C1056 1.467 .      S
C1054 H1055 1.078 .      S
C1056 O192  1.346 .      S
O192  H1056 0.966 .      S
H1053 C1051 1.052 1_655  S
C4    N1    1.399 .      A
C4    N2    1.399 .      A
N1    C5    1.323 .      A
C5    C6    1.357 .      A
C5    C10   1.352 .      A
C6    C7    1.358 1_545  A
C7    C6    1.358 1_565  A
C7    C8    1.374 .      A
C8    C9    1.380 .      A
C9    C10   1.353 1_565  A
C10   C9    1.353 1_545  A
C10   N2    1.345 .      A
C15   N3    1.411 .      A
C15   N4    1.412 .      A
N3    C16   1.351 .      A
C16   C17   1.372 .      A
C16   C21   1.363 .      A
C17   C18   1.384 .      A
C18   C19   1.389 .      A
C19   C20   1.382 .      A
C20   C21   1.365 .      A
C21   N4    1.339 .      A
C26   N5    1.393 .      A
C26   N6    1.368 .      A
N5    C27   1.350 .      A
C27   C28   1.358 .      A
C27   C32   1.360 .      A
C28   C29   1.382 .      A
C29   C30   1.388 .      A
C30   C31   1.386 .      A
C31   C32   1.373 .      A
C32   N6    1.341 .      A
C37   N7    1.399 .      A
C37   N8    1.376 .      A
N7    C38   1.362 .      A
C38   C39   1.376 .      A
C38   C43   1.376 .      A
C39   C40   1.380 .      A
C40   C41   1.384 .      A
C41   C42   1.381 .      A
C42   C43   1.375 .      A
C43   N8    1.348 .      A
C48   N9    1.405 .      A
C48   N10   1.368 .      A
N9    C49   1.358 .      A
C49   C50   1.374 .      A
C49   C54   1.369 .      A
C50   C51   1.386 .      A
C51   C52   1.395 .      A
C52   C53   1.387 .      A
C53   C54   1.371 .      A
C54   N10   1.343 .      A
C59   N11   1.389 .      A
C59   N12   1.381 .      A
N11   C60   1.332 .      A
C60   C61   1.363 .      A
C60   C65   1.348 .      A
C61   C62   1.370 .      A
C62   C63   1.359 .      A
C63   C64   1.377 .      A
C64   C65   1.377 .      A
C65   N12   1.370 .      A
C70   N13   1.395 .      A
C70   N14   1.394 .      A
N13   C71   1.351 .      A
C71   C72   1.367 .      A
C71   C76   1.361 .      A
C72   C73   1.379 .      A
C73   C74   1.386 .      A
C74   C75   1.383 .      A
C75   C76   1.364 .      A
C76   N14   1.342 .      A
C81   N15   1.391 .      A
C81   N16   1.400 .      A
N15   C82   1.339 .      A
C82   C83   1.370 .      A
C82   C87   1.376 .      A
C83   C84   1.378 .      A
C84   C85   1.390 .      A
C85   C86   1.390 .      A
C86   C87   1.370 .      A
C87   N16   1.363 .      A
C92   N17   1.406 .      A
C92   N18   1.388 .      A
N17   C93   1.345 1_545  A
C93   N17   1.345 1_565  A
C93   C94   1.368 .      A
C93   C98   1.348 .      A
C94   C95   1.377 .      A
C95   C96   1.375 .      A
C96   C97   1.380 .      A
C97   C98   1.369 .      A
C98   N18   1.346 1_565  A
N18   C98   1.346 1_545  A
C103  N19   1.395 .      A
C103  N20   1.394 .      A
N19   C104  1.357 .      A
C104  C105  1.372 .      A
C104  C109  1.363 .      A
C105  C106  1.379 .      A
C106  C107  1.380 .      A
C107  C108  1.379 .      A
C108  C109  1.376 .      A
C109  N20   1.348 .      A
C114  N21   1.408 .      A
C114  N22   1.385 .      A
N21   C115  1.348 .      A
C115  C116  1.358 1_545  A
C115  C120  1.355 .      A
C116  C115  1.358 1_565  A
C116  C117  1.383 .      A
C117  C118  1.392 .      A
C118  C119  1.387 .      A
C119  C120  1.382 1_565  A
C120  C119  1.382 1_545  A
C120  N22   1.344 .      A
C125  N23   1.389 .      A
C125  N24   1.403 .      A
N23   C126  1.322 .      A
C126  C127  1.369 .      A
C126  C131  1.343 .      A
C127  C128  1.346 .      A
C128  C129  1.364 .      A
C129  C130  1.375 .      A
C130  C131  1.355 .      A
C131  N24   1.349 .      A
C136  N25   1.400 .      A
C136  N26   1.382 .      A
N25   C137  1.346 .      A
C137  C138  1.371 .      A
C137  C142  1.373 .      A
C138  C139  1.380 .      A
C139  C140  1.387 .      A
C140  C141  1.382 .      A
C141  C142  1.366 .      A
C142  N26   1.359 .      A
C147  N27   1.390 .      A
C147  N28   1.407 .      A
N27   C148  1.341 .      A
C148  C149  1.362 .      A
C148  C153  1.354 .      A
C149  C150  1.376 .      A
C150  C151  1.385 .      A
C151  C152  1.388 .      A
C152  C153  1.374 .      A
C153  N28   1.353 .      A
C158  N29   1.405 .      A
C158  N30   1.397 .      A
N29   C159  1.339 .      A
C159  C160  1.366 .      A
C159  C164  1.366 .      A
C160  C161  1.378 .      A
C161  C162  1.389 .      A
C162  C163  1.389 .      A
C163  C164  1.380 .      A
C164  N30   1.362 .      A
C169  N31   1.391 .      A
C169  N32   1.376 .      A
N31   C170  1.354 .      A
C170  C171  1.370 .      A
C170  C175  1.373 .      A
C171  C172  1.385 .      A
C172  C173  1.395 .      A
C173  C174  1.387 .      A
C174  C175  1.373 .      A
C175  N32   1.350 .      A
C180  N33   1.395 .      A
C180  N34   1.393 .      A
N33   C181  1.342 .      A
C181  C182  1.364 .      A
C181  C186  1.351 .      A
C182  C183  1.380 .      A
C183  C184  1.382 .      A
C184  C185  1.386 .      A
C185  C186  1.367 .      A
C186  N34   1.349 .      A
C191  N35   1.385 .      A
C191  N36   1.395 .      A
N35   C192  1.364 .      A
C192  C193  1.367 .      A
C192  C197  1.352 .      A
C193  C194  1.370 .      A
C194  C195  1.374 .      A
C195  C196  1.369 .      A
C196  C197  1.368 .      A
C197  N36   1.330 .      A
C202  N37   1.400 .      A
C202  N38   1.369 .      A
N37   C203  1.349 .      A
C203  C204  1.362 .      A
C203  C208  1.366 .      A
C204  C205  1.389 .      A
C205  C206  1.393 .      A
C206  C207  1.382 .      A
C207  C208  1.369 .      A
C208  N38   1.343 .      A
C213  N39   1.405 .      A
C213  N40   1.377 .      A
N39   C214  1.352 .      A
C214  C215  1.361 .      A
C214  C219  1.370 .      A
C215  C216  1.361 .      A
C216  C217  1.363 .      A
C217  C218  1.388 .      A
C218  C219  1.384 .      A
C219  N40   1.356 .      A
C224  N41   1.416 .      A
C224  N42   1.389 .      A
N41   C225  1.362 .      A
C225  C226  1.377 .      A
C225  C230  1.362 .      A
C226  C227  1.373 .      A
C227  C228  1.373 .      A
C228  C229  1.379 .      A
C229  C230  1.373 .      A
C230  N42   1.349 .      A
C235  N43   1.388 .      A
C235  N44   1.410 .      A
N43   C236  1.324 .      A
C236  C237  1.363 .      A
C236  C241  1.352 .      A
C237  C238  1.367 .      A
C238  C239  1.373 .      A
C239  C240  1.388 .      A
C240  C241  1.386 .      A
C241  N44   1.376 .      A
C246  N45   1.397 .      A
C246  N46   1.378 .      A
N45   C247  1.351 .      A
C247  C248  1.366 .      A
C247  C252  1.367 1_554  A
C248  C249  1.377 1_554  A
C249  C248  1.377 1_556  A
C249  C250  1.386 .      A
C250  C251  1.388 .      A
C251  C252  1.377 .      A
C252  C247  1.367 1_556  A
C252  N46   1.352 1_556  A
N46   C252  1.352 1_554  A
C257  N47   1.404 .      A
C257  N48   1.386 .      A
N47   C258  1.347 .      A
C258  C259  1.361 .      A
C258  C263  1.373 .      A
C259  C260  1.378 .      A
C260  C261  1.383 .      A
C261  C262  1.387 .      A
C262  C263  1.371 .      A
C263  N48   1.342 .      A
C268  N49   1.397 .      A
C268  N50   1.392 .      A
N49   C269  1.358 .      A
C269  C270  1.371 .      A
C269  C274  1.362 .      A
C270  C271  1.384 .      A
C271  C272  1.390 .      A
C272  C273  1.377 .      A
C273  C274  1.372 .      A
C274  N50   1.341 .      A
C279  N51   1.392 .      A
C279  N52   1.391 .      A
N51   C280  1.327 .      A
C280  C281  1.358 .      A
C280  C285  1.359 .      A
C281  C282  1.365 .      A
C282  C283  1.377 .      A
C283  C284  1.396 .      A
C284  C285  1.393 .      A
C285  N52   1.376 .      A
C290  N53   1.396 .      A
C290  N54   1.395 .      A
N53   C291  1.343 .      A
C291  C292  1.364 .      A
C291  C296  1.357 .      A
C292  C293  1.376 .      A
C293  C294  1.380 .      A
C294  C295  1.367 .      A
C295  C296  1.364 .      A
C296  N54   1.341 .      A
C301  N55   1.392 .      A
C301  N56   1.362 .      A
N55   C302  1.355 .      A
C302  C303  1.375 .      A
C302  C307  1.363 .      A
C303  C304  1.383 .      A
C304  C305  1.391 .      A
C305  C306  1.388 .      A
C306  C307  1.376 .      A
C307  N56   1.349 .      A
C312  N57   1.399 .      A
C312  N58   1.369 .      A
N57   C313  1.371 .      A
C313  C314  1.376 .      A
C313  C318  1.368 .      A
C314  C315  1.376 .      A
C315  C316  1.378 .      A
C316  C317  1.380 .      A
C317  C318  1.377 .      A
C318  N58   1.344 .      A
C323  N59   1.393 .      A
C323  N60   1.386 .      A
N59   C324  1.332 .      A
C324  C325  1.339 .      A
C324  C329  1.354 .      A
C325  C326  1.368 .      A
C326  C327  1.374 .      A
C327  C328  1.385 .      A
C328  C329  1.358 .      A
C329  N60   1.346 .      A
C334  N61   1.406 1_655  A
C334  N62   1.400 1_655  A
N61   C334  1.406 1_455  A
N61   C335  1.343 .      A
C335  C336  1.378 .      A
C335  C340  1.355 .      A
C336  C337  1.378 .      A
C337  C338  1.387 .      A
C338  C339  1.391 .      A
C339  C340  1.372 .      A
C340  N62   1.351 .      A
N62   C334  1.400 1_455  A
C345  N63   1.406 .      A
C345  N64   1.415 .      A
N63   C346  1.336 .      A
C346  C347  1.365 .      A
C346  C351  1.366 .      A
C347  C348  1.373 .      A
C348  C349  1.386 .      A
C349  C350  1.390 .      A
C350  C351  1.374 .      A
C351  N64   1.364 .      A
C356  N65   1.403 .      A
C356  N66   1.382 .      A
N65   C357  1.343 .      A
C357  C358  1.362 .      A
C357  C362  1.354 .      A
C358  C359  1.378 .      A
C359  C360  1.385 .      A
C360  C361  1.383 .      A
C361  C362  1.370 .      A
C362  N66   1.343 .      A
C367  N67   1.386 .      A
C367  N68   1.373 .      A
N67   C368  1.344 .      A
C368  C369  1.367 .      A
C368  C373  1.375 .      A
C369  C370  1.368 .      A
C370  C371  1.385 .      A
C371  C372  1.401 .      A
C372  C373  1.387 .      A
C373  N68   1.363 .      A
C378  N69   1.393 .      A
C378  N70   1.380 .      A
N69   C379  1.361 .      A
C379  C380  1.376 .      A
C379  C384  1.373 .      A
C380  C381  1.382 .      A
C381  C382  1.393 .      A
C382  C383  1.389 .      A
C383  C384  1.375 .      A
C384  N70   1.343 .      A
C389  N71   1.397 .      A
C389  N72   1.400 .      A
N71   C390  1.342 .      A
C390  C391  1.368 .      A
C390  C395  1.353 .      A
C391  C392  1.366 .      A
C392  C393  1.368 .      A
C393  C394  1.387 .      A
C394  C395  1.388 .      A
C395  N72   1.368 .      A
C400  N73   1.412 .      A
C400  N74   1.391 .      A
N73   C401  1.337 .      A
C401  C402  1.365 .      A
C401  C406  1.351 .      A
C402  C403  1.370 .      A
C403  C404  1.370 .      A
C404  C405  1.378 .      A
C405  C406  1.380 .      A
C406  N74   1.366 .      A
C411  N75   1.388 .      A
C411  N76   1.381 .      A
N75   C412  1.352 .      A
C412  C413  1.371 1_554  A
C412  C417  1.378 .      A
C413  C412  1.371 1_556  A
C413  C414  1.386 .      A
C414  C415  1.396 .      A
C415  C416  1.387 1_556  A
C416  C415  1.387 1_554  A
C416  C417  1.371 .      A
C417  N76   1.348 .      A
C422  N77   1.397 .      A
C422  N78   1.377 .      A
N77   C423  1.340 .      A
C423  C424  1.369 .      A
C423  C428  1.382 .      A
C424  C425  1.377 .      A
C425  C426  1.390 .      A
C426  C427  1.391 .      A
C427  C428  1.380 .      A
C428  N78   1.368 .      A
C433  N79   1.412 1_556  A
C433  N80   1.416 1_556  A
N79   C433  1.412 1_554  A
N79   C434  1.346 .      A
C434  C435  1.376 .      A
C434  C439  1.354 .      A
C435  C436  1.377 .      A
C436  C437  1.383 .      A
C437  C438  1.382 .      A
C438  C439  1.364 .      A
C439  N80   1.349 .      A
N80   C433  1.416 1_554  A
C444  N81   1.400 .      A
C444  N82   1.399 .      A
N81   C445  1.329 .      A
C445  C446  1.335 .      A
C445  C450  1.357 .      A
C446  C447  1.349 .      A
C447  C448  1.359 .      A
C448  C449  1.400 .      A
C449  C450  1.403 .      A
C450  N82   1.369 .      A
C455  N83   1.402 1_556  A
C455  N84   1.383 1_556  A
N83   C455  1.402 1_554  A
N83   C456  1.350 .      A
C456  C457  1.366 .      A
C456  C461  1.360 .      A
C457  C458  1.374 .      A
C458  C459  1.378 .      A
C459  C460  1.384 .      A
C460  C461  1.384 .      A
C461  N84   1.356 .      A
N84   C455  1.383 1_554  A
C466  N85   1.399 .      A
C466  N86   1.389 .      A
N85   C467  1.348 .      A
C467  C468  1.379 .      A
C467  C472  1.355 .      A
C468  C469  1.377 .      A
C469  C470  1.379 .      A
C470  C471  1.380 .      A
C471  C472  1.384 .      A
C472  N86   1.367 .      A
C477  N87   1.388 .      A
C477  N88   1.383 .      A
N87   C478  1.355 .      A
C478  C479  1.362 .      A
C478  C483  1.357 .      A
C479  C480  1.373 .      A
C480  C481  1.378 .      A
C481  C482  1.387 .      A
C482  C483  1.372 .      A
C483  N88   1.343 .      A
C488  N89   1.394 .      A
C488  N90   1.413 .      A
N89   C489  1.338 .      A
C489  C490  1.363 .      A
C489  C494  1.364 .      A
C490  C491  1.371 .      A
C491  C492  1.383 .      A
C492  C493  1.391 .      A
C493  C494  1.375 .      A
C494  N90   1.363 .      A
C499  N91   1.404 .      A
C499  N92   1.384 .      A
N91   C500  1.337 .      A
C500  C501  1.342 1_554  A
C500  C505  1.359 .      A
C501  C500  1.342 1_556  A
C501  C502  1.366 .      A
C502  C503  1.362 .      A
C503  C504  1.378 1_556  A
C504  C503  1.378 1_554  A
C504  C505  1.370 .      A
C505  N92   1.348 .      A
C510  N93   1.399 .      A
C510  N94   1.379 .      A
N93   C511  1.348 .      A
C511  C512  1.365 .      A
C511  C516  1.372 .      A
C512  C513  1.381 .      A
C513  C514  1.386 .      A
C514  C515  1.385 .      A
C515  C516  1.378 .      A
C516  N94   1.357 .      A
C521  N95   1.401 .      A
C521  N96   1.403 .      A
N95   C522  1.351 .      A
C522  C523  1.375 .      A
C522  C527  1.347 .      A
C523  C524  1.364 .      A
C524  C525  1.366 .      A
C525  C526  1.384 .      A
C526  C527  1.380 .      A
C527  N96   1.350 .      A
C532  N97   1.397 .      A
C532  N98   1.386 .      A
N97   C533  1.340 .      A
C533  C534  1.375 .      A
C533  C538  1.352 .      A
C534  C535  1.371 .      A
C535  C536  1.377 .      A
C536  C537  1.380 .      A
C537  C538  1.395 .      A
C538  N98   1.375 .      A
C543  N99   1.401 .      A
C543  N100  1.391 .      A
N99   C544  1.352 .      A
C544  C545  1.355 .      A
C544  C549  1.366 .      A
C545  C546  1.370 .      A
C546  C547  1.377 .      A
C547  C548  1.385 .      A
C548  C549  1.378 .      A
C549  N100  1.351 .      A
C554  N101  1.413 .      A
C554  N102  1.414 .      A
N101  C555  1.342 .      A
C555  C556  1.363 1_655  A
C555  C560  1.360 .      A
C556  C555  1.363 1_455  A
C556  C557  1.380 1_455  A
C557  C556  1.380 1_655  A
C557  C558  1.391 .      A
C558  C559  1.390 .      A
C559  C560  1.371 .      A
C560  N102  1.351 .      A
C565  N103  1.407 1_554  A
C565  N104  1.388 1_554  A
N103  C565  1.407 1_556  A
N103  C566  1.365 1_455  A
C566  N103  1.365 1_655  A
C566  C567  1.374 .      A
C566  C571  1.363 .      A
C567  C568  1.373 .      A
C568  C569  1.379 .      A
C569  C570  1.399 .      A
C570  C571  1.382 .      A
C571  N104  1.338 1_655  A
N104  C565  1.388 1_556  A
N104  C571  1.338 1_455  A
C576  N105  1.394 .      A
C576  N106  1.367 1_655  A
N105  C577  1.359 1_655  A
C577  N105  1.359 1_455  A
C577  C578  1.369 .      A
C577  C582  1.377 .      A
C578  C579  1.381 .      A
C579  C580  1.387 .      A
C580  C581  1.383 .      A
C581  C582  1.380 .      A
C582  N106  1.354 .      A
N106  C576  1.367 1_455  A
C587  N107  1.412 .      A
C587  N108  1.391 .      A
N107  C588  1.362 .      A
C588  C589  1.373 .      A
C588  C593  1.372 .      A
C589  C590  1.382 .      A
C590  C591  1.388 .      A
C591  C592  1.384 .      A
C592  C593  1.370 .      A
C593  N108  1.341 .      A
C598  N109  1.406 .      A
C598  N110  1.389 .      A
N109  C599  1.348 .      A
C599  C600  1.367 .      A
C599  C604  1.361 .      A
C600  C601  1.378 .      A
C601  C602  1.387 .      A
C602  C603  1.380 .      A
C603  C604  1.367 .      A
C604  N110  1.343 .      A
C609  N111  1.408 .      A
C609  N112  1.405 .      A
N111  C610  1.352 .      A
C610  C611  1.368 .      A
C610  C615  1.362 .      A
C611  C612  1.369 .      A
C612  C613  1.378 .      A
C613  C614  1.385 .      A
C614  C615  1.377 .      A
C615  N112  1.350 .      A
C620  N113  1.407 .      A
C620  N114  1.393 .      A
N113  C621  1.340 .      A
C621  C622  1.360 .      A
C621  C626  1.366 .      A
C622  C623  1.379 .      A
C623  C624  1.369 .      A
C624  C625  1.372 .      A
C625  C626  1.361 .      A
C626  N114  1.340 .      A
C631  N115  1.391 .      A
C631  N116  1.374 .      A
N115  C632  1.350 .      A
C632  C633  1.376 .      A
C632  C637  1.365 .      A
C633  C634  1.381 .      A
C634  C635  1.391 .      A
C635  C636  1.389 .      A
C636  C637  1.369 .      A
C637  N116  1.356 .      A
C642  N117  1.409 .      A
C642  N118  1.403 .      A
N117  C643  1.331 .      A
C643  C644  1.345 .      A
C643  C648  1.342 .      A
C644  C645  1.374 .      A
C645  C646  1.372 .      A
C646  C647  1.371 .      A
C647  C648  1.366 .      A
C648  N118  1.355 .      A
C653  N119  1.386 1_655  A
C653  N120  1.400 .      A
N119  C653  1.386 1_455  A
N119  C654  1.341 .      A
C654  C655  1.368 .      A
C654  C659  1.366 .      A
C655  C656  1.379 .      A
C656  C657  1.395 .      A
C657  C658  1.392 .      A
C658  C659  1.369 .      A
C659  N120  1.357 1_455  A
N120  C659  1.357 1_655  A
C664  N121  1.413 .      A
C664  N122  1.392 .      A
N121  C665  1.343 1_545  A
C665  N121  1.343 1_565  A
C665  C666  1.365 .      A
C665  C670  1.355 .      A
C666  C667  1.375 .      A
C667  C668  1.363 .      A
C668  C669  1.355 .      A
C669  C670  1.337 .      A
C670  N122  1.328 1_565  A
N122  C670  1.328 1_545  A
C675  N123  1.401 .      A
C675  N124  1.392 .      A
N123  C676  1.351 .      A
C676  C677  1.376 .      A
C676  C681  1.377 .      A
C677  C678  1.377 .      A
C678  C679  1.382 .      A
C679  C680  1.382 .      A
C680  C681  1.377 .      A
C681  N124  1.364 .      A
C686  N125  1.404 .      A
C686  N126  1.373 .      A
N125  C687  1.370 .      A
C687  C688  1.382 .      A
C687  C692  1.376 .      A
C688  C689  1.383 .      A
C689  C690  1.386 .      A
C690  C691  1.380 .      A
C691  C692  1.376 .      A
C692  N126  1.344 .      A
C697  N127  1.428 .      A
C697  N128  1.399 .      A
N127  C698  1.352 .      A
C698  C699  1.358 .      A
C698  C703  1.370 .      A
C699  C700  1.385 .      A
C700  C701  1.394 .      A
C701  C702  1.386 .      A
C702  C703  1.374 .      A
C703  N128  1.344 .      A
C708  N129  1.401 .      A
C708  N130  1.412 .      A
N129  C709  1.341 .      A
C709  C710  1.357 .      A
C709  C714  1.351 .      A
C710  C711  1.352 .      A
C711  C712  1.361 .      A
C712  C713  1.396 .      A
C713  C714  1.377 .      A
C714  N130  1.352 .      A
C719  N131  1.399 .      A
C719  N132  1.384 .      A
N131  C720  1.347 .      A
C720  C721  1.366 .      A
C720  C725  1.376 .      A
C721  C722  1.378 .      A
C722  C723  1.391 .      A
C723  C724  1.391 .      A
C724  C725  1.373 .      A
C725  N132  1.353 .      A
C730  N133  1.371 .      A
C730  N134  1.387 .      A
N133  C731  1.348 .      A
C731  C732  1.364 .      A
C731  C736  1.362 .      A
C732  C733  1.381 .      A
C733  C734  1.386 .      A
C734  C735  1.386 .      A
C735  C736  1.378 .      A
C736  N134  1.353 .      A
C741  N135  1.391 .      A
C741  N136  1.404 .      A
N135  C742  1.332 .      A
C742  C743  1.355 .      A
C742  C747  1.341 .      A
C743  C744  1.367 .      A
C744  C745  1.376 .      A
C745  C746  1.393 .      A
C746  C747  1.376 .      A
C747  N136  1.358 .      A
C752  N137  1.399 .      A
C752  N138  1.385 .      A
N137  C753  1.349 .      A
C753  C754  1.356 .      A
C753  C758  1.354 .      A
C754  C755  1.383 .      A
C755  C756  1.386 .      A
C756  C757  1.385 .      A
C757  C758  1.370 .      A
C758  N138  1.337 .      A
C763  N139  1.390 .      A
C763  N140  1.381 .      A
N139  C764  1.342 .      A
C764  C765  1.365 .      A
C764  C769  1.360 .      A
C765  C766  1.346 .      A
C766  C767  1.360 .      A
C767  C768  1.384 .      A
C768  C769  1.369 .      A
C769  N140  1.352 .      A
C774  N141  1.400 .      A
C774  N142  1.386 .      A
N141  C775  1.343 .      A
C775  C776  1.354 .      A
C775  C780  1.371 .      A
C776  C777  1.381 .      A
C777  C778  1.386 .      A
C778  C779  1.386 .      A
C779  C780  1.386 .      A
C780  N142  1.362 .      A
C785  N143  1.394 .      A
C785  N144  1.392 .      A
N143  C786  1.345 .      A
C786  C787  1.362 .      A
C786  C791  1.374 .      A
C787  C788  1.372 .      A
C788  C789  1.370 .      A
C789  C790  1.376 .      A
C790  C791  1.374 .      A
C791  N144  1.346 .      A
C796  N145  1.407 .      A
C796  N146  1.401 .      A
N145  C797  1.335 .      A
C797  C798  1.351 .      A
C797  C802  1.339 .      A
C798  C799  1.378 .      A
C799  C800  1.366 .      A
C800  C801  1.360 .      A
C801  C802  1.355 .      A
C802  N146  1.334 .      A
C807  N147  1.391 .      A
C807  N148  1.375 .      A
N147  C808  1.356 .      A
C808  C809  1.368 .      A
C808  C813  1.367 .      A
C809  C810  1.383 .      A
C810  C811  1.389 .      A
C811  C812  1.384 .      A
C812  C813  1.375 .      A
C813  N148  1.345 .      A
C818  N149  1.388 .      A
C818  N150  1.392 .      A
N149  C819  1.352 .      A
C819  C820  1.354 .      A
C819  C824  1.352 .      A
C820  C821  1.379 .      A
C821  C822  1.379 .      A
C822  C823  1.384 .      A
C823  C824  1.370 .      A
C824  N150  1.335 .      A
C829  N151  1.392 .      A
C829  N152  1.376 .      A
N151  C830  1.355 .      A
C830  C831  1.373 .      A
C830  C835  1.372 .      A
C831  C832  1.380 .      A
C832  C833  1.390 .      A
C833  C834  1.389 .      A
C834  C835  1.374 .      A
C835  N152  1.348 .      A
C840  N153  1.379 .      A
C840  N154  1.400 .      A
N153  C841  1.344 .      A
C841  C842  1.373 .      A
C841  C846  1.360 .      A
C842  C843  1.381 .      A
C843  C844  1.390 .      A
C844  C845  1.389 .      A
C845  C846  1.381 .      A
C846  N154  1.362 .      A
C851  N155  1.408 .      A
C851  N156  1.373 .      A
N155  C852  1.353 .      A
C852  C853  1.371 .      A
C852  C857  1.344 .      A
C853  C854  1.370 .      A
C854  C855  1.369 .      A
C855  C856  1.379 .      A
C856  C857  1.372 .      A
C857  N156  1.354 .      A
C862  N157  1.404 .      A
C862  N158  1.400 .      A
N157  C863  1.361 .      A
C863  C864  1.369 1_655  A
C863  C868  1.369 .      A
C864  C863  1.369 1_455  A
C864  C865  1.375 .      A
C865  C866  1.379 1_455  A
C866  C865  1.379 1_655  A
C866  C867  1.380 .      A
C867  C868  1.378 .      A
C868  N158  1.347 .      A
C873  N159  1.384 .      A
C873  N160  1.402 1_655  A
N159  C874  1.349 1_655  A
C874  N159  1.349 1_455  A
C874  C875  1.377 .      A
C874  C879  1.365 .      A
C875  C876  1.373 .      A
C876  C877  1.377 .      A
C877  C878  1.383 .      A
C878  C879  1.383 .      A
C879  N160  1.368 .      A
N160  C873  1.402 1_455  A
C884  N161  1.398 .      A
C884  N162  1.396 .      A
N161  C885  1.345 .      A
C885  C886  1.373 .      A
C885  C890  1.357 .      A
C886  C887  1.354 .      A
C887  C888  1.357 .      A
C888  C889  1.390 1_554  A
C889  C888  1.390 1_556  A
C889  C890  1.367 1_556  A
C890  C889  1.367 1_554  A
C890  N162  1.364 .      A
C895  N163  1.409 .      A
C895  N164  1.411 .      A
N163  C896  1.351 .      A
C896  C897  1.366 1_655  A
C896  C901  1.371 .      A
C897  C896  1.366 1_455  A
C897  C898  1.382 .      A
C898  C899  1.390 .      A
C899  C900  1.385 .      A
C900  C901  1.376 1_455  A
C901  C900  1.376 1_655  A
C901  N164  1.353 .      A
C906  N165  1.400 .      A
C906  N166  1.396 .      A
N165  C907  1.359 .      A
C907  C908  1.358 .      A
C907  C912  1.343 .      A
C908  C909  1.353 .      A
C909  C910  1.361 .      A
C910  C911  1.397 .      A
C911  C912  1.392 .      A
C912  N166  1.349 .      A
C917  N167  1.401 .      A
C917  N168  1.402 .      A
N167  C918  1.328 .      A
C918  C919  1.368 .      A
C918  C923  1.345 .      A
C919  C920  1.377 .      A
C920  C921  1.379 .      A
C921  C922  1.389 .      A
C922  C923  1.359 .      A
C923  N168  1.360 .      A
C928  N169  1.389 .      A
C928  N170  1.382 .      A
N169  C929  1.368 .      A
C929  C930  1.371 .      A
C929  C934  1.384 .      A
C930  C931  1.383 .      A
C931  C932  1.387 .      A
C932  C933  1.381 .      A
C933  C934  1.374 .      A
C934  N170  1.344 .      A
C939  N171  1.412 .      A
C939  N172  1.386 .      A
N171  C940  1.352 .      A
C940  C941  1.367 .      A
C940  C945  1.368 .      A
C941  C942  1.386 .      A
C942  C943  1.393 .      A
C943  C944  1.387 .      A
C944  C945  1.373 .      A
C945  N172  1.341 .      A
C950  N173  1.403 .      A
C950  N174  1.380 .      A
N173  C951  1.345 1_455  A
C951  N173  1.345 1_655  A
C951  C952  1.370 .      A
C951  C956  1.367 1_655  A
C952  C953  1.377 .      A
C953  C954  1.391 .      A
C954  C955  1.395 .      A
C955  C956  1.371 1_655  A
C956  C951  1.367 1_455  A
C956  C955  1.371 1_455  A
C956  N174  1.351 .      A
C961  N175  1.423 .      A
C961  N176  1.407 1_655  A
N175  C962  1.343 1_655  A
C962  N175  1.343 1_455  A
C962  C963  1.360 .      A
C962  C967  1.363 .      A
C963  C964  1.374 .      A
C964  C965  1.383 .      A
C965  C966  1.387 .      A
C966  C967  1.380 .      A
C967  N176  1.359 .      A
N176  C961  1.407 1_455  A
C972  N177  1.392 .      A
C972  N178  1.376 .      A
N177  C973  1.352 1_655  A
C973  N177  1.352 1_455  A
C973  C974  1.375 .      A
C973  C978  1.378 .      A
C974  C975  1.381 .      A
C975  C976  1.388 .      A
C976  C977  1.385 .      A
C977  C978  1.371 .      A
C978  N178  1.356 1_455  A
N178  C978  1.356 1_655  A
C983  N179  1.393 1_655  A
C983  N180  1.384 .      A
N179  C983  1.393 1_455  A
N179  C984  1.354 .      A
C984  C985  1.369 .      A
C984  C989  1.374 .      A
C985  C986  1.383 .      A
C986  C987  1.391 .      A
C987  C988  1.386 .      A
C988  C989  1.373 .      A
C989  N180  1.352 1_455  A
N180  C989  1.352 1_655  A
C994  N181  1.404 .      A
C994  N182  1.370 .      A
N181  C995  1.354 .      A
C995  C996  1.365 1_655  A
C995  C1000 1.378 .      A
C996  C995  1.365 1_455  A
C996  C997  1.385 .      A
C997  C998  1.395 .      A
C998  C999  1.388 .      A
C999  C1000 1.369 1_455  A
C1000 C999  1.369 1_655  A
C1000 N182  1.344 .      A
C1005 N183  1.402 .      A
C1005 N184  1.395 .      A
N183  C1006 1.357 .      A
C1006 C1007 1.376 1_655  A
C1006 C1011 1.377 .      A
C1007 C1006 1.376 1_455  A
C1007 C1008 1.379 .      A
C1008 C1009 1.386 .      A
C1009 C1010 1.388 .      A
C1010 C1011 1.375 1_455  A
C1011 C1010 1.375 1_655  A
C1011 N184  1.355 .      A
C1016 N185  1.377 .      A
C1016 N186  1.393 .      A
N185  C1017 1.348 .      A
C1017 C1018 1.372 .      A
C1017 C1022 1.364 .      A
C1018 C1019 1.380 .      A
C1019 C1020 1.388 .      A
C1020 C1021 1.386 .      A
C1021 C1022 1.374 .      A
C1022 N186  1.351 .      A
C1027 N187  1.400 .      A
C1027 N188  1.393 .      A
N187  C1028 1.345 .      A
C1028 C1029 1.351 .      A
C1028 C1033 1.356 .      A
C1029 C1030 1.376 .      A
C1030 C1031 1.380 .      A
C1031 C1032 1.388 .      A
C1032 C1033 1.366 .      A
C1033 N188  1.350 .      A
C1038 N189  1.392 .      A
C1038 N190  1.383 .      A
N189  C1039 1.361 .      A
C1039 C1040 1.379 .      A
C1039 C1044 1.372 .      A
C1040 C1041 1.374 1_655  A
C1041 C1040 1.374 1_455  A
C1041 C1042 1.379 .      A
C1042 C1043 1.388 .      A
C1043 C1044 1.376 1_455  A
C1044 C1043 1.376 1_655  A
C1044 N190  1.351 .      A
C1049 N191  1.396 .      A
C1049 N192  1.373 1_655  A
N191  C1050 1.359 1_655  A
C1050 N191  1.359 1_455  A
C1050 C1051 1.354 .      A
C1050 C1055 1.366 .      A
C1051 C1052 1.385 .      A
C1052 C1053 1.391 .      A
C1053 C1054 1.383 .      A
C1054 C1055 1.369 .      A
C1055 N192  1.333 .      A
N192  C1049 1.373 1_455  A
C11   O1    1.203 .      D
C22   O3    1.217 1_655  D
O3    C22   1.217 1_455  D
C33   O5    1.219 1_655  D
O5    C33   1.219 1_455  D
C44   O7    1.219 .      D
C55   O9    1.219 .      D
C66   O11   1.217 .      D
C77   O13   1.218 .      D
C88   O15   1.219 .      D
C99   O17   1.219 .      D
C110  O19   1.219 .      D
C121  O21   1.219 .      D
C132  O23   1.210 .      D
C143  O25   1.218 .      D
C154  O27   1.219 .      D
C165  O29   1.219 .      D
C176  O31   1.219 .      D
C187  O33   1.219 .      D
C198  O35   1.219 1_556  D
O35   C198  1.219 1_554  D
C209  O37   1.219 .      D
C220  O39   1.219 .      D
C231  O41   1.219 .      D
C242  O43   1.218 .      D
C253  O45   1.219 .      D
C264  O47   1.219 .      D
C275  O49   1.219 .      D
C286  O51   1.219 .      D
C297  O53   1.218 .      D
C308  O55   1.219 .      D
C319  O57   1.219 .      D
C330  O59   1.219 .      D
C341  O61   1.219 .      D
C352  O63   1.219 .      D
C363  O65   1.219 .      D
C374  O67   1.219 .      D
C385  O69   1.219 .      D
C396  O71   1.219 .      D
C407  O73   1.219 .      D
C418  O75   1.219 .      D
C429  O77   1.219 .      D
C440  O79   1.219 .      D
C451  O81   1.217 .      D
C462  O83   1.219 .      D
C473  O85   1.218 .      D
C484  O87   1.219 .      D
C495  O89   1.219 .      D
C506  O91   1.208 1_556  D
O91   C506  1.208 1_554  D
C517  O93   1.219 .      D
C528  O95   1.219 .      D
C539  O97   1.219 .      D
C550  O99   1.219 .      D
C561  O101  1.219 .      D
C572  O103  1.219 .      D
C583  O105  1.219 .      D
C594  O107  1.219 .      D
C605  O109  1.219 .      D
C616  O111  1.217 .      D
C627  O113  1.219 1_455  D
O113  C627  1.219 1_655  D
C638  O115  1.219 .      D
C649  O117  1.217 .      D
C660  O119  1.217 .      D
C671  O121  1.206 .      D
C682  O123  1.219 .      D
C693  O125  1.219 .      D
C704  O127  1.219 .      D
C715  O129  1.218 .      D
C726  O131  1.219 .      D
C737  O133  1.219 .      D
C748  O135  1.219 .      D
C759  O137  1.219 .      D
C770  O139  1.215 .      D
C781  O141  1.219 .      D
C792  O143  1.218 .      D
C803  O145  1.217 .      D
C814  O147  1.219 .      D
C825  O149  1.218 .      D
C836  O151  1.219 .      D
C847  O153  1.219 .      D
C858  O155  1.218 .      D
C869  O157  1.219 .      D
C880  O159  1.219 .      D
C891  O161  1.217 .      D
C902  O163  1.219 .      D
C913  O165  1.219 .      D
C924  O167  1.219 .      D
C935  O169  1.219 .      D
C946  O171  1.219 .      D
C957  O173  1.219 .      D
C968  O175  1.218 .      D
C979  O177  1.219 .      D
C990  O179  1.219 .      D
C1001 O181  1.219 .      D
C1012 O183  1.219 .      D
C1023 O185  1.219 .      D
C1034 O187  1.217 .      D
C1045 O189  1.219 .      D
C1056 O191  1.219 .      D
