data_str_m1_o12004_CFI
_audit_creation_date              2015-10-01T06:29:29-0700
_symmetry_space_group_name_H-M    P1
_symmetry_Int_Tables_number       1
_space_group_crystal_system       triclinic
loop_
_symmetry_equiv_pos_as_xyz
  x,y,z
_cell_length_a                    10.2233682
_cell_length_b                    29.5913949
_cell_length_c                    28.4367639
_cell_angle_alpha                 119.115186
_cell_angle_beta                  89.3375798
_cell_angle_gamma                 99.7869195
_cell_volume                      7381.06153824

loop_
_atom_site_label
_atom_site_type_symbol
_atom_site_description
_atom_site_fract_x
_atom_site_fract_y
_atom_site_fract_z
_atom_type_partial_charge
Zn1   Zn    Zn3+2 0.162626 0.704462 0.088557 0.000000
Zn2   Zn    Zn3+2 0.644338 0.675358 0.789270 0.000000
Zn3   Zn    Zn3+2 0.740543 0.908039 0.983822 0.000000
Zn4   Zn    Zn3+2 0.070968 0.589966 0.226595 0.000000
Zn5   Zn    Zn3+2 0.613823 0.675745 0.371629 0.000000
Zn6   Zn    Zn3+2 0.726231 0.845071 0.163918 0.000000
Zn7   Zn    Zn3+2 0.676677 0.739133 0.611215 0.000000
Zn8   Zn    Zn3+2 0.428603 0.226335 0.751386 0.000000
Zn9   Zn    Zn3+2 0.426017 0.226866 0.963299 0.000000
Zn10  Zn    Zn3+2 0.999685 0.361147 0.814384 0.000000
Zn11  Zn    Zn3+2 0.093963 0.582033 0.839202 0.000000
Zn12  Zn    Zn3+2 0.305911 0.008259 0.563194 0.000000
Zn13  Zn    Zn3+2 0.276879 0.999024 0.932777 0.000000
Zn14  Zn    Zn3+2 0.992934 0.363123 0.031005 0.000000
Zn15  Zn    Zn3+2 0.242871 0.873194 0.680257 0.000000
Zn16  Zn    Zn3+2 0.769571 0.914460 0.415634 0.000000
C1    C     C_3   0.756953 0.529792 0.068052 0.000000
N1    N     N_3   0.840383 0.581777 0.094844 0.000000
C2    C     C_3   0.977010 0.573918 0.090431 0.000000
C3    C     C_R   0.063670 0.621477 0.133520 0.000000
N2    N     N_R   0.111961 0.665167 0.128499 0.000000
C4    C     C_R   0.154032 0.701026 0.178945 0.000000
C5    C     C_R   0.192980 0.752841 0.196071 0.000000
C6    C     C_R   0.207098 0.786511 0.249803 0.000000
C7    C     C_R   0.194531 0.765911 0.283810 0.000000
C8    C     C_R   0.171172 0.712297 0.266073 0.000000
C9    C     C_R   0.141294 0.680656 0.212154 0.000000
N3    N     N_R   0.085790 0.629586 0.185106 0.000000
H1    H     H_    0.651675 0.533339 0.064601 0.000000
H2    H     H_    0.790736 0.506585 0.027369 0.000000
H3    H     H_    0.766135 0.509583 0.091687 0.000000
H4    H     H_    0.823805 0.599503 0.135751 0.000000
H5    H     H_    0.983702 0.540225 0.096326 0.000000
H6    H     H_    0.006354 0.567025 0.050215 0.000000
H7    H     H_    0.202312 0.766616 0.168631 0.000000
H8    H     H_    0.227189 0.828631 0.265496 0.000000
H9    H     H_    0.195010 0.793890 0.323560 0.000000
H10   H     H_    0.167227 0.695988 0.292910 0.000000
C10   C     C_3   0.611047 0.700691 0.044390 0.000000
N4    N     N_3   0.751177 0.699997 0.037555 0.000000
C11   C     C_3   0.827378 0.707053 0.084402 0.000000
C12   C     C_R   0.917952 0.759133 0.111084 0.000000
N5    N     N_R   0.053790 0.763121 0.113501 0.000000
C13   C     C_R   0.098017 0.815701 0.146121 0.000000
C14   C     C_R   0.223049 0.844483 0.171140 0.000000
C15   C     C_R   0.236716 0.897948 0.206969 0.000000
C16   C     C_R   0.127902 0.922481 0.217765 0.000000
C17   C     C_R   0.004363 0.892697 0.194029 0.000000
C18   C     C_R   0.993319 0.840509 0.159789 0.000000
N6    N     N_R   0.878152 0.806861 0.139442 0.000000
H11   H     H_    0.554519 0.673880 0.004667 0.000000
H12   H     H_    0.576676 0.686634 0.072787 0.000000
H13   H     H_    0.593832 0.740454 0.056284 0.000000
H14   H     H_    0.793677 0.729636 0.029532 0.000000
H15   H     H_    0.763708 0.699125 0.111717 0.000000
H16   H     H_    0.894727 0.678235 0.071189 0.000000
H17   H     H_    0.309671 0.828226 0.167420 0.000000
H18   H     H_    0.332826 0.920424 0.227882 0.000000
H19   H     H_    0.139030 0.964166 0.245907 0.000000
H20   H     H_    0.915182 0.907805 0.201124 0.000000
C19   C     C_3   0.388640 0.902457 0.126624 0.000000
N7    N     N_3   0.472366 0.866798 0.125383 0.000000
C20   C     C_3   0.408474 0.811995 0.090053 0.000000
C21   C     C_R   0.442710 0.779616 0.113193 0.000000
N8    N     N_R   0.562814 0.791713 0.141082 0.000000
C22   C     C_R   0.556044 0.754177 0.154293 0.000000
C23   C     C_R   0.656123 0.747500 0.179926 0.000000
C24   C     C_R   0.626142 0.709681 0.195279 0.000000
C25   C     C_R   0.500526 0.678859 0.182229 0.000000
C26   C     C_R   0.406246 0.681462 0.149448 0.000000
C27   C     C_R   0.434782 0.722241 0.138236 0.000000
N9    N     N_R   0.357671 0.737750 0.112490 0.000000
H21   H     H_    0.406188 0.938908 0.166278 0.000000
H22   H     H_    0.415170 0.913434 0.095222 0.000000
H23   H     H_    0.282124 0.884761 0.121164 0.000000
H24   H     H_    0.487688 0.873155 0.164504 0.000000
H25   H     H_    0.298722 0.806533 0.084539 0.000000
H26   H     H_    0.449978 0.798334 0.050281 0.000000
H27   H     H_    0.755014 0.770727 0.186492 0.000000
H28   H     H_    0.698108 0.703812 0.218073 0.000000
H29   H     H_    0.477791 0.653576 0.199243 0.000000
H30   H     H_    0.313650 0.653976 0.136628 0.000000
C28   C     C_3   0.351260 0.748031 0.943384 0.000000
N10   N     N_3   0.487442 0.774651 0.948408 0.000000
C29   C     C_3   0.501320 0.782415 0.901980 0.000000
C30   C     C_R   0.643843 0.788970 0.891050 0.000000
N11   N     N_R   0.737434 0.833445 0.922748 0.000000
C31   C     C_R   0.850845 0.819011 0.901254 0.000000
C32   C     C_R   0.976739 0.842844 0.924269 0.000000
C33   C     C_R   0.080673 0.819017 0.896780 0.000000
C34   C     C_R   0.055088 0.771221 0.848950 0.000000
C35   C     C_R   0.925598 0.746198 0.828435 0.000000
C36   C     C_R   0.825945 0.771040 0.856462 0.000000
N12   N     N_R   0.696635 0.749655 0.849674 0.000000
H31   H     H_    0.335986 0.739239 0.976948 0.000000
H32   H     H_    0.282320 0.773293 0.943813 0.000000
H33   H     H_    0.330586 0.710885 0.904326 0.000000
H34   H     H_    0.550063 0.749161 0.945480 0.000000
H35   H     H_    0.445403 0.747032 0.866289 0.000000
H36   H     H_    0.460811 0.817705 0.909757 0.000000
H37   H     H_    0.990019 0.878770 0.962198 0.000000
H38   H     H_    0.182927 0.836586 0.912027 0.000000
H39   H     H_    0.136840 0.752797 0.828532 0.000000
H40   H     H_    0.903654 0.707456 0.793198 0.000000
C37   C     C_3   0.577899 0.819569 0.821892 0.000000
N13   N     N_3   0.660559 0.794246 0.778413 0.000000
C38   C     C_3   0.571136 0.752153 0.733961 0.000000
C39   C     C_R   0.641150 0.709094 0.700896 0.000000
N14   N     N_R   0.671741 0.697509 0.649727 0.000000
C40   C     C_R   0.726141 0.654699 0.633018 0.000000
C41   C     C_R   0.774171 0.626855 0.583775 0.000000
C42   C     C_R   0.826428 0.583442 0.574603 0.000000
C43   C     C_R   0.836309 0.571056 0.615504 0.000000
C44   C     C_R   0.793742 0.601786 0.665967 0.000000
C45   C     C_R   0.731406 0.642008 0.673040 0.000000
N15   N     N_R   0.675598 0.675503 0.717086 0.000000
H41   H     H_    0.637870 0.846331 0.860213 0.000000
H42   H     H_    0.518404 0.840971 0.810922 0.000000
H43   H     H_    0.510502 0.790095 0.827627 0.000000
H44   H     H_    0.725423 0.777271 0.790000 0.000000
H45   H     H_    0.485835 0.735453 0.748453 0.000000
H46   H     H_    0.536119 0.767461 0.708968 0.000000
H47   H     H_    0.768083 0.637547 0.552718 0.000000
H48   H     H_    0.861844 0.559571 0.535761 0.000000
H49   H     H_    0.878642 0.537215 0.607790 0.000000
H50   H     H_    0.815847 0.595514 0.698605 0.000000
C46   C     C_3   0.989342 0.884065 0.082816 0.000000
N16   N     N_3   0.935927 0.828884 0.045485 0.000000
C47   C     C_3   0.796675 0.824704 0.031318 0.000000
C48   C     C_R   0.749197 0.872727 0.070023 0.000000
N17   N     N_R   0.719857 0.884801 0.121940 0.000000
C49   C     C_R   0.674545 0.930074 0.139564 0.000000
C50   C     C_R   0.628296 0.959713 0.188804 0.000000
C51   C     C_R   0.586452 0.005255 0.197747 0.000000
C52   C     C_R   0.588637 0.019307 0.157518 0.000000
C53   C     C_R   0.633393 0.988229 0.107720 0.000000
C54   C     C_R   0.676664 0.943914 0.100123 0.000000
N18   N     N_R   0.724200 0.908395 0.055492 0.000000
H51   H     H_    0.096857 0.889424 0.092848 0.000000
H52   H     H_    0.972114 0.908424 0.064543 0.000000
H53   H     H_    0.941145 0.897281 0.120977 0.000000
H54   H     H_    0.941915 0.807308 0.065085 0.000000
H55   H     H_    0.787204 0.820138 0.990533 0.000000
H56   H     H_    0.731930 0.791123 0.031379 0.000000
H57   H     H_    0.623638 0.947995 0.219454 0.000000
H58   H     H_    0.549954 0.029755 0.236129 0.000000
H59   H     H_    0.554443 0.054710 0.165135 0.000000
H60   H     H_    0.635060 0.998720 0.076200 0.000000
C55   C     C_3   0.906961 0.757144 0.279760 0.000000
N19   N     N_3   0.939676 0.709080 0.274425 0.000000
C56   C     C_3   0.819083 0.673012 0.269751 0.000000
C57   C     C_R   0.849469 0.645016 0.298420 0.000000
N20   N     N_R   0.942471 0.613247 0.282404 0.000000
C58   C     C_R   0.925462 0.590219 0.313050 0.000000
C59   C     C_R   0.988590 0.551650 0.310136 0.000000
C60   C     C_R   0.955093 0.532475 0.345215 0.000000
C61   C     C_R   0.860737 0.552222 0.381762 0.000000
C62   C     C_R   0.796197 0.590144 0.382589 0.000000
C63   C     C_R   0.828360 0.607888 0.346736 0.000000
N21   N     N_R   0.774949 0.642192 0.337907 0.000000
H61   H     H_    0.994086 0.789464 0.298074 0.000000
H62   H     H_    0.884131 0.751727 0.239186 0.000000
H63   H     H_    0.826744 0.769218 0.307253 0.000000
H64   H     H_    0.985891 0.718550 0.311078 0.000000
H65   H     H_    0.736466 0.693847 0.288633 0.000000
H66   H     H_    0.789471 0.644300 0.226507 0.000000
H67   H     H_    0.061925 0.536897 0.281446 0.000000
H68   H     H_    0.003077 0.502310 0.344490 0.000000
H69   H     H_    0.836857 0.537641 0.409671 0.000000
H70   H     H_    0.726340 0.605747 0.411477 0.000000
C64   C     C_3   0.259642 0.609475 0.431807 0.000000
N22   N     N_3   0.268654 0.590834 0.374536 0.000000
C65   C     C_3   0.244431 0.631894 0.363486 0.000000
C66   C     C_R   0.314457 0.626225 0.315258 0.000000
N23   N     N_R   0.451306 0.633001 0.314793 0.000000
C67   C     C_R   0.466331 0.611704 0.261350 0.000000
C68   C     C_R   0.575873 0.596217 0.234784 0.000000
C69   C     C_R   0.566725 0.573199 0.179013 0.000000
C70   C     C_R   0.448787 0.566679 0.150769 0.000000
C71   C     C_R   0.335964 0.579540 0.178398 0.000000
C72   C     C_R   0.348319 0.598952 0.232950 0.000000
N24   N     N_R   0.249384 0.607209 0.265191 0.000000
H71   H     H_    0.157852 0.616515 0.442476 0.000000
H72   H     H_    0.281550 0.579250 0.441354 0.000000
H73   H     H_    0.332976 0.646453 0.455391 0.000000
H74   H     H_    0.192641 0.558155 0.353571 0.000000
H75   H     H_    0.136260 0.627906 0.355499 0.000000
H76   H     H_    0.281133 0.670594 0.399118 0.000000
H77   H     H_    0.659867 0.596136 0.255921 0.000000
H78   H     H_    0.652310 0.560322 0.157325 0.000000
H79   H     H_    0.448413 0.553106 0.107930 0.000000
H80   H     H_    0.242540 0.578100 0.159899 0.000000
C73   C     C_3   0.762923 0.854371 0.553050 0.000000
N25   N     N_3   0.752478 0.801940 0.546133 0.000000
C74   C     C_3   0.630584 0.770896 0.512135 0.000000
C75   C     C_R   0.620574 0.714751 0.495501 0.000000
N26   N     N_R   0.587121 0.675429 0.442979 0.000000
C76   C     C_R   0.545888 0.632762 0.448737 0.000000
C77   C     C_R   0.501659 0.581815 0.408740 0.000000
C78   C     C_R   0.471872 0.543602 0.424096 0.000000
C79   C     C_R   0.488573 0.556792 0.478127 0.000000
C80   C     C_R   0.535636 0.608411 0.517751 0.000000
C81   C     C_R   0.563042 0.645581 0.501637 0.000000
N27   N     N_R   0.611824 0.697343 0.532335 0.000000
H81   H     H_    0.855364 0.865651 0.537757 0.000000
H82   H     H_    0.679663 0.854572 0.529112 0.000000
H83   H     H_    0.760094 0.882919 0.596251 0.000000
H84   H     H_    0.738746 0.805061 0.583947 0.000000
H85   H     H_    0.544996 0.784315 0.535944 0.000000
H86   H     H_    0.623605 0.774422 0.475207 0.000000
H87   H     H_    0.490814 0.571817 0.366832 0.000000
H88   H     H_    0.436076 0.503051 0.393761 0.000000
H89   H     H_    0.465276 0.526378 0.489234 0.000000
H90   H     H_    0.549714 0.618903 0.559701 0.000000
C82   C     C_3   0.697366 0.131184 0.778561 0.000000
N28   N     N_3   0.591665 0.146750 0.814422 0.000000
C83   C     C_3   0.606153 0.203970 0.845809 0.000000
C84   C     C_R   0.469349 0.215508 0.851266 0.000000
N29   N     N_R   0.396442 0.203668 0.805509 0.000000
C85   C     C_R   0.275010 0.181695 0.810563 0.000000
C86   C     C_R   0.171126 0.152527 0.771707 0.000000
C87   C     C_R   0.055609 0.132702 0.786889 0.000000
C88   C     C_R   0.045279 0.144751 0.840469 0.000000
C89   C     C_R   0.154925 0.172593 0.877852 0.000000
C90   C     C_R   0.270561 0.186433 0.859967 0.000000
N30   N     N_R   0.391573 0.207228 0.886883 0.000000
H91   H     H_    0.664371 0.089879 0.746049 0.000000
H92   H     H_    0.719487 0.156252 0.759493 0.000000
H93   H     H_    0.785877 0.132210 0.801282 0.000000
H94   H     H_    0.597778 0.131996 0.840739 0.000000
H95   H     H_    0.657418 0.218783 0.886100 0.000000
H96   H     H_    0.662104 0.222480 0.824162 0.000000
H97   H     H_    0.179928 0.144391 0.730476 0.000000
H98   H     H_    0.971706 0.109283 0.757367 0.000000
H99   H     H_    0.951635 0.132148 0.852552 0.000000
H100  H     H_    0.154528 0.183313 0.919765 0.000000
C91   C     C_3   0.983139 0.162112 0.664716 0.000000
N31   N     N_3   0.095280 0.205834 0.686784 0.000000
C92   C     C_3   0.081668 0.235922 0.744194 0.000000
C93   C     C_R   0.189477 0.282373 0.770036 0.000000
N32   N     N_R   0.322010 0.280430 0.765140 0.000000
C94   C     C_R   0.377897 0.330063 0.779101 0.000000
C95   C     C_R   0.502863 0.347813 0.769620 0.000000
C96   C     C_R   0.533287 0.399247 0.780290 0.000000
C97   C     C_R   0.442096 0.432288 0.802435 0.000000
C98   C     C_R   0.317568 0.413600 0.812042 0.000000
C99   C     C_R   0.285236 0.361185 0.796940 0.000000
N33   N     N_R   0.164199 0.331984 0.792128 0.000000
H101  H     H_    0.976716 0.142806 0.620219 0.000000
H102  H     H_    0.996817 0.133438 0.677871 0.000000
H103  H     H_    0.889527 0.176742 0.679033 0.000000
H104  H     H_    0.085165 0.229462 0.669819 0.000000
H105  H     H_    0.984510 0.248884 0.750876 0.000000
H106  H     H_    0.089358 0.211616 0.761934 0.000000
H107  H     H_    0.571373 0.322078 0.749385 0.000000
H108  H     H_    0.627508 0.413043 0.769941 0.000000
H109  H     H_    0.467444 0.472771 0.811561 0.000000
H110  H     H_    0.250144 0.439914 0.829866 0.000000
C100  C     C_3   0.795202 0.411779 0.890041 0.000000
N34   N     N_3   0.773478 0.360443 0.885722 0.000000
C101  C     C_3   0.660521 0.326966 0.847335 0.000000
C102  C     C_R   0.705132 0.296691 0.792498 0.000000
N35   N     N_R   0.827257 0.308484 0.775667 0.000000
C103  C     C_R   0.813013 0.272669 0.722549 0.000000
C104  C     C_R   0.899864 0.268444 0.684279 0.000000
C105  C     C_R   0.862429 0.229332 0.631364 0.000000
C106  C     C_R   0.739071 0.195937 0.617723 0.000000
C107  C     C_R   0.650950 0.201777 0.656742 0.000000
C108  C     C_R   0.691256 0.240588 0.708918 0.000000
N36   N     N_R   0.620621 0.254735 0.752327 0.000000
H111  H     H_    0.850432 0.439844 0.929726 0.000000
H112  H     H_    0.850971 0.409854 0.855726 0.000000
H113  H     H_    0.699639 0.424411 0.890051 0.000000
H114  H     H_    0.749169 0.366302 0.923589 0.000000
H115  H     H_    0.609741 0.298972 0.859987 0.000000
H116  H     H_    0.586594 0.349773 0.846030 0.000000
H117  H     H_    0.991568 0.295873 0.694630 0.000000
H118  H     H_    0.929003 0.225191 0.600285 0.000000
H119  H     H_    0.710882 0.165771 0.576200 0.000000
H120  H     H_    0.554253 0.176598 0.646121 0.000000
C109  C     C_3   0.228058 0.059074 0.718894 0.000000
N37   N     N_3   0.336417 0.104316 0.742073 0.000000
C110  C     C_3   0.422967 0.098741 0.699595 0.000000
C111  C     C_R   0.367570 0.116096 0.664462 0.000000
N38   N     N_R   0.318146 0.084263 0.611824 0.000000
C112  C     C_R   0.277432 0.117985 0.598499 0.000000
C113  C     C_R   0.225706 0.107862 0.549217 0.000000
C114  C     C_R   0.204155 0.150505 0.544263 0.000000
C115  C     C_R   0.232580 0.201379 0.588091 0.000000
C116  C     C_R   0.285233 0.210506 0.637233 0.000000
C117  C     C_R   0.306537 0.167688 0.640691 0.000000
N39   N     N_R   0.363614 0.167358 0.682591 0.000000
H121  H     H_    0.173933 0.057754 0.684546 0.000000
H122  H     H_    0.268133 0.022382 0.704605 0.000000
H123  H     H_    0.159166 0.062193 0.750214 0.000000
H124  H     H_    0.390049 0.101544 0.771251 0.000000
H125  H     H_    0.522794 0.122922 0.717551 0.000000
H126  H     H_    0.430403 0.057746 0.675923 0.000000
H127  H     H_    0.209302 0.068406 0.515063 0.000000
H128  H     H_    0.168167 0.144695 0.505771 0.000000
H129  H     H_    0.216004 0.234140 0.583394 0.000000
H130  H     H_    0.310784 0.249934 0.671229 0.000000
C118  C     C_3   0.129700 0.124158 0.968897 0.000000
N40   N     N_3   0.129363 0.092529 0.910195 0.000000
C119  C     C_3   0.263354 0.094087 0.893884 0.000000
C120  C     C_R   0.349822 0.110226 0.941079 0.000000
N41   N     N_R   0.410008 0.161663 0.973729 0.000000
C121  C     C_R   0.473243 0.158888 0.013322 0.000000
C122  C     C_R   0.561927 0.197915 0.054633 0.000000
C123  C     C_R   0.617191 0.185340 0.090068 0.000000
C124  C     C_R   0.584708 0.134707 0.083226 0.000000
C125  C     C_R   0.497998 0.095420 0.040285 0.000000
C126  C     C_R   0.444543 0.108668 0.005686 0.000000
N42   N     N_R   0.363776 0.076702 0.960317 0.000000
H131  H     H_    0.178473 0.106968 0.989275 0.000000
H132  H     H_    0.180491 0.165352 0.983298 0.000000
H133  H     H_    0.027227 0.122497 0.981759 0.000000
H134  H     H_    0.073292 0.103106 0.888462 0.000000
H135  H     H_    0.277255 0.055077 0.861561 0.000000
H136  H     H_    0.290362 0.122635 0.879680 0.000000
H137  H     H_    0.591005 0.236581 0.058644 0.000000
H138  H     H_    0.687491 0.215048 0.123087 0.000000
H139  H     H_    0.629624 0.125704 0.111154 0.000000
H140  H     H_    0.475633 0.055640 0.033744 0.000000
C127  C     C_3   0.296589 0.362459 0.934795 0.000000
N43   N     N_3   0.169389 0.329025 0.927878 0.000000
C128  C     C_3   0.198339 0.285884 0.933970 0.000000
C129  C     C_R   0.224778 0.301246 0.991259 0.000000
N44   N     N_R   0.305341 0.277342 0.006828 0.000000
C130  C     C_R   0.280721 0.294032 0.058761 0.000000
C131  C     C_R   0.329290 0.279994 0.093569 0.000000
C132  C     C_R   0.283813 0.300393 0.144727 0.000000
C133  C     C_R   0.190083 0.333055 0.159432 0.000000
C134  C     C_R   0.139904 0.345622 0.123098 0.000000
C135  C     C_R   0.188476 0.325760 0.073133 0.000000
N45   N     N_R   0.149367 0.330532 0.031062 0.000000
H141  H     H_    0.352359 0.368578 0.971047 0.000000
H142  H     H_    0.353000 0.342528 0.899107 0.000000
H143  H     H_    0.280818 0.400194 0.938544 0.000000
H144  H     H_    0.136706 0.312545 0.887252 0.000000
H145  H     H_    0.111589 0.253746 0.918514 0.000000
H146  H     H_    0.286821 0.273682 0.912352 0.000000
H147  H     H_    0.398326 0.253293 0.081395 0.000000
H148  H     H_    0.320214 0.290284 0.173285 0.000000
H149  H     H_    0.154881 0.348198 0.199339 0.000000
H150  H     H_    0.065167 0.370076 0.133699 0.000000
C136  C     C_3   0.575802 0.410096 0.989051 0.000000
N46   N     N_3   0.556578 0.358226 0.984609 0.000000
C137  C     C_3   0.640492 0.361483 0.027336 0.000000
C138  C     C_R   0.691564 0.311665 0.007378 0.000000
N47   N     N_R   0.611153 0.262929 0.983724 0.000000
C139  C     C_R   0.697129 0.230300 0.970306 0.000000
C140  C     C_R   0.667829 0.176518 0.939781 0.000000
C141  C     C_R   0.771408 0.149979 0.929530 0.000000
C142  C     C_R   0.899067 0.178059 0.949114 0.000000
C143  C     C_R   0.927550 0.232160 0.977151 0.000000
C144  C     C_R   0.823072 0.257747 0.986913 0.000000
N48   N     N_R   0.824369 0.309760 0.010337 0.000000
H151  H     H_    0.527131 0.407265 0.952806 0.000000
H152  H     H_    0.532509 0.437218 0.025827 0.000000
H153  H     H_    0.682878 0.426421 0.991983 0.000000
H154  H     H_    0.586016 0.331579 0.947621 0.000000
H155  H     H_    0.726188 0.394552 0.040289 0.000000
H156  H     H_    0.580137 0.367571 0.061820 0.000000
H157  H     H_    0.569593 0.155410 0.921942 0.000000
H158  H     H_    0.753451 0.107484 0.905881 0.000000
H159  H     H_    0.977916 0.157659 0.941472 0.000000
H160  H     H_    0.028370 0.251962 0.990652 0.000000
C145  C     C_3   0.694125 0.498569 0.880874 0.000000
N49   N     N_3   0.783754 0.470851 0.842106 0.000000
C146  C     C_3   0.916975 0.495317 0.868135 0.000000
C147  C     C_R   0.012045 0.474750 0.827167 0.000000
N50   N     N_R   0.033268 0.423759 0.800565 0.000000
C148  C     C_R   0.113329 0.424249 0.762205 0.000000
C149  C     C_R   0.177250 0.385459 0.725925 0.000000
C150  C     C_R   0.261218 0.396831 0.692898 0.000000
C151  C     C_R   0.283174 0.446437 0.697294 0.000000
C152  C     C_R   0.223706 0.485795 0.735805 0.000000
C153  C     C_R   0.140903 0.473335 0.767732 0.000000
N51   N     N_R   0.080813 0.506072 0.809220 0.000000
H161  H     H_    0.736880 0.509909 0.921189 0.000000
H162  H     H_    0.683459 0.533833 0.878106 0.000000
H163  H     H_    0.596219 0.472561 0.872849 0.000000
H164  H     H_    0.777494 0.479769 0.811001 0.000000
H165  H     H_    0.930000 0.538111 0.883159 0.000000
H166  H     H_    0.935880 0.489846 0.902798 0.000000
H167  H     H_    0.167338 0.347694 0.723248 0.000000
H168  H     H_    0.311647 0.366874 0.663778 0.000000
H169  H     H_    0.349374 0.454618 0.671331 0.000000
H170  H     H_    0.242151 0.524989 0.740727 0.000000
C154  C     C_3   0.959065 0.217689 0.830992 0.000000
N52   N     N_3   0.937483 0.268313 0.840033 0.000000
C155  C     C_3   0.902647 0.297300 0.895046 0.000000
C156  C     C_R   0.965372 0.353792 0.919593 0.000000
N53   N     N_R   0.002158 0.383185 0.973552 0.000000
C157  C     C_R   0.058678 0.429932 0.979324 0.000000
C158  C     C_R   0.101730 0.474801 0.026034 0.000000
C159  C     C_R   0.167092 0.518357 0.023560 0.000000
C160  C     C_R   0.178676 0.515945 0.973787 0.000000
C161  C     C_R   0.123287 0.470856 0.927037 0.000000
C162  C     C_R   0.062567 0.428259 0.931156 0.000000
N54   N     N_R   0.002041 0.380708 0.891891 0.000000
H171  H     H_    0.066935 0.220124 0.837386 0.000000
H172  H     H_    0.903646 0.206430 0.858573 0.000000
H173  H     H_    0.921269 0.187559 0.789246 0.000000
H174  H     H_    0.853564 0.260664 0.815117 0.000000
H175  H     H_    0.793004 0.291235 0.895571 0.000000
H176  H     H_    0.939598 0.283017 0.920722 0.000000
H177  H     H_    0.074255 0.475132 0.062041 0.000000
H178  H     H_    0.205423 0.554649 0.060186 0.000000
H179  H     H_    0.226967 0.549725 0.971220 0.000000
H180  H     H_    0.128448 0.469867 0.889254 0.000000
C163  C     C_3   0.747724 0.592204 0.998611 0.000000
N55   N     N_3   0.891608 0.601340 0.995844 0.000000
C164  C     C_3   0.927544 0.632128 0.968602 0.000000
C165  C     C_R   0.071992 0.639297 0.964813 0.000000
N56   N     N_R   0.156865 0.657048 0.009514 0.000000
C166  C     C_R   0.261391 0.634071 0.988712 0.000000
C167  C     C_R   0.361942 0.628877 0.016005 0.000000
C168  C     C_R   0.442049 0.593219 0.985816 0.000000
C169  C     C_R   0.421415 0.564758 0.929780 0.000000
C170  C     C_R   0.319117 0.571031 0.903340 0.000000
C171  C     C_R   0.242338 0.606650 0.934239 0.000000
N57   N     N_R   0.127706 0.612343 0.917560 0.000000
H181  H     H_    0.715386 0.556071 0.001507 0.000000
H182  H     H_    0.718364 0.623449 0.036082 0.000000
H183  H     H_    0.696011 0.590018 0.963369 0.000000
H184  H     H_    0.918971 0.564848 0.972421 0.000000
H185  H     H_    0.871525 0.612969 0.928451 0.000000
H186  H     H_    0.913798 0.671730 0.993939 0.000000
H187  H     H_    0.369468 0.647641 0.059255 0.000000
H188  H     H_    0.516299 0.585422 0.006123 0.000000
H189  H     H_    0.481769 0.535899 0.906903 0.000000
H190  H     H_    0.295777 0.546641 0.860197 0.000000
C172  C     C_3   0.059409 0.722649 0.955051 0.000000
N58   N     N_3   0.936080 0.687563 0.925712 0.000000
C173  C     C_3   0.923145 0.690489 0.876959 0.000000
C174  C     C_R   0.868220 0.638195 0.830658 0.000000
N59   N     N_R   0.923300 0.594418 0.815876 0.000000
C175  C     C_R   0.841200 0.556693 0.772794 0.000000
C176  C     C_R   0.852618 0.505111 0.739190 0.000000
C177  C     C_R   0.759795 0.474447 0.695190 0.000000
C178  C     C_R   0.660386 0.495689 0.684564 0.000000
C179  C     C_R   0.652826 0.548009 0.717797 0.000000
C180  C     C_R   0.744215 0.577405 0.762034 0.000000
N60   N     N_R   0.759553 0.629342 0.797167 0.000000
H191  H     H_    0.062851 0.732083 0.997840 0.000000
H192  H     H_    0.142208 0.702581 0.935641 0.000000
H193  H     H_    0.067463 0.759964 0.953931 0.000000
H194  H     H_    0.858386 0.704208 0.947867 0.000000
H195  H     H_    0.850417 0.715813 0.884230 0.000000
H196  H     H_    0.021745 0.705514 0.868343 0.000000
H197  H     H_    0.931433 0.488372 0.745368 0.000000
H198  H     H_    0.766202 0.433760 0.668272 0.000000
H199  H     H_    0.590118 0.471464 0.649538 0.000000
H200  H     H_    0.578917 0.565398 0.708677 0.000000
C181  C     C_3   0.515071 0.557721 0.808990 0.000000
N61   N     N_3   0.503249 0.590096 0.866129 0.000000
C182  C     C_3   0.462851 0.638530 0.875704 0.000000
C183  C     C_R   0.388196 0.631909 0.827064 0.000000
N62   N     N_R   0.253973 0.611159 0.811999 0.000000
C184  C     C_R   0.237063 0.613285 0.766278 0.000000
C185  C     C_R   0.121965 0.597487 0.733721 0.000000
C186  C     C_R   0.127704 0.603958 0.688722 0.000000
C187  C     C_R   0.247522 0.623641 0.675994 0.000000
C188  C     C_R   0.363101 0.638149 0.708627 0.000000
C189  C     C_R   0.353895 0.633738 0.754407 0.000000
N63   N     N_R   0.451793 0.646389 0.792157 0.000000
H201  H     H_    0.418842 0.530957 0.789165 0.000000
H202  H     H_    0.542358 0.583268 0.791352 0.000000
H203  H     H_    0.594453 0.534590 0.803120 0.000000
H204  H     H_    0.597821 0.600753 0.886015 0.000000
H205  H     H_    0.403215 0.652281 0.911029 0.000000
H206  H     H_    0.554222 0.668592 0.885147 0.000000
H207  H     H_    0.030043 0.580602 0.742489 0.000000
H208  H     H_    0.038560 0.593363 0.663036 0.000000
H209  H     H_    0.250433 0.627504 0.640240 0.000000
H210  H     H_    0.456317 0.651891 0.697726 0.000000
C190  C     C_3   0.051410 0.851317 0.560521 0.000000
N64   N     N_3   0.001528 0.891453 0.606967 0.000000
C191  C     C_3   0.078827 0.940861 0.615593 0.000000
C192  C     C_R   0.225897 0.943356 0.622079 0.000000
N65   N     N_R   0.292851 0.920801 0.645237 0.000000
C193  C     C_R   0.422673 0.941033 0.644164 0.000000
C194  C     C_R   0.539317 0.930529 0.656509 0.000000
C195  C     C_R   0.659802 0.960633 0.657144 0.000000
C196  C     C_R   0.664587 0.997145 0.639810 0.000000
C197  C     C_R   0.548831 0.001066 0.618918 0.000000
C198  C     C_R   0.430632 0.973513 0.623187 0.000000
N66   N     N_R   0.310265 0.973874 0.606671 0.000000
H211  H     H_    0.979424 0.813692 0.544450 0.000000
H212  H     H_    0.065267 0.862646 0.528713 0.000000
H213  H     H_    0.149720 0.849316 0.573678 0.000000
H214  H     H_    0.020539 0.886513 0.639873 0.000000
H215  H     H_    0.059793 0.944685 0.579488 0.000000
H216  H     H_    0.044193 0.974883 0.649156 0.000000
H217  H     H_    0.541601 0.896639 0.659113 0.000000
H218  H     H_    0.751464 0.954388 0.669589 0.000000
H219  H     H_    0.759014 0.019705 0.639259 0.000000
H220  H     H_    0.550169 0.027450 0.602738 0.000000
C199  C     C_3   0.929951 0.084258 0.499926 0.000000
N67   N     N_3   0.860807 0.044297 0.511683 0.000000
C200  C     C_3   0.954881 0.033962 0.541470 0.000000
C201  C     C_R   0.016329 0.988703 0.503526 0.000000
N68   N     N_R   0.948227 0.946185 0.457602 0.000000
C202  C     C_R   0.031784 0.912581 0.441861 0.000000
C203  C     C_R   0.008712 0.862869 0.400232 0.000000
C204  C     C_R   0.088266 0.830422 0.401300 0.000000
C205  C     C_R   0.178620 0.846967 0.445529 0.000000
C206  C     C_R   0.211560 0.899640 0.482536 0.000000
C207  C     C_R   0.138650 0.931622 0.477730 0.000000
N69   N     N_R   0.137260 0.980583 0.515819 0.000000
H221  H     H_    0.868303 0.086088 0.469289 0.000000
H222  H     H_    0.947743 0.123184 0.537074 0.000000
H223  H     H_    0.026008 0.074034 0.483977 0.000000
H224  H     H_    0.835033 0.009885 0.474821 0.000000
H225  H     H_    0.033034 0.069223 0.564205 0.000000
H226  H     H_    0.901478 0.024018 0.570363 0.000000
H227  H     H_    0.923551 0.848271 0.371264 0.000000
H228  H     H_    0.061883 0.790965 0.371576 0.000000
H229  H     H_    0.224121 0.819749 0.451704 0.000000
H230  H     H_    0.277455 0.914641 0.518335 0.000000
C208  C     C_3   0.433073 0.858567 0.540604 0.000000
N70   N     N_3   0.496387 0.909453 0.547771 0.000000
C209  C     C_3   0.511039 0.901421 0.494077 0.000000
C210  C     C_R   0.539141 0.951778 0.492889 0.000000
N71   N     N_R   0.466091 0.991851 0.516164 0.000000
C211  C     C_R   0.520510 0.024181 0.497444 0.000000
C212  C     C_R   0.492871 0.072088 0.509531 0.000000
C213  C     C_R   0.554842 0.097281 0.482817 0.000000
C214  C     C_R   0.641638 0.073725 0.444178 0.000000
C215  C     C_R   0.672163 0.026277 0.434317 0.000000
C216  C     C_R   0.614451 0.003611 0.463283 0.000000
N72   N     N_R   0.633032 0.958677 0.460779 0.000000
H231  H     H_    0.457371 0.855564 0.576650 0.000000
H232  H     H_    0.324212 0.853746 0.534231 0.000000
H233  H     H_    0.466865 0.827126 0.503990 0.000000
H234  H     H_    0.591284 0.919105 0.566647 0.000000
H235  H     H_    0.594124 0.880211 0.477380 0.000000
H236  H     H_    0.418545 0.877122 0.469786 0.000000
H237  H     H_    0.430047 0.090529 0.540462 0.000000
H238  H     H_    0.534266 0.135150 0.491619 0.000000
H239  H     H_    0.686384 0.092713 0.422098 0.000000
H240  H     H_    0.734707 0.006595 0.403473 0.000000
C217  C     C_3   0.289544 0.788508 0.756301 0.000000
N73   N     N_3   0.318529 0.837050 0.753525 0.000000
C218  C     C_3   0.335694 0.883551 0.807277 0.000000
C219  C     C_R   0.264519 0.922677 0.806289 0.000000
N74   N     N_R   0.218252 0.918762 0.759012 0.000000
C220  C     C_R   0.143249 0.955735 0.776152 0.000000
C221  C     C_R   0.085415 0.972579 0.746197 0.000000
C222  C     C_R   0.004707 0.009344 0.771494 0.000000
C223  C     C_R   0.973219 0.022758 0.823854 0.000000
C224  C     C_R   0.040916 0.007381 0.854142 0.000000
C225  C     C_R   0.137055 0.978177 0.830162 0.000000
N75   N     N_R   0.222092 0.961563 0.851683 0.000000
H241  H     H_    0.331702 0.757913 0.722146 0.000000
H242  H     H_    0.326644 0.794044 0.795428 0.000000
H243  H     H_    0.181663 0.772841 0.749335 0.000000
H244  H     H_    0.233762 0.836677 0.733229 0.000000
H245  H     H_    0.294242 0.872924 0.837540 0.000000
H246  H     H_    0.441624 0.902980 0.818844 0.000000
H247  H     H_    0.108165 0.958548 0.705264 0.000000
H248  H     H_    0.954783 0.023007 0.748861 0.000000
H249  H     H_    0.897552 0.046321 0.841416 0.000000
H250  H     H_    0.016708 0.017315 0.894817 0.000000
C226  C     C_3   0.791191 0.916482 0.841664 0.000000
N76   N     N_3   0.831723 0.897914 0.876918 0.000000
C227  C     C_3   0.972421 0.918777 0.891632 0.000000
C228  C     C_R   0.995497 0.957449 0.949279 0.000000
N77   N     N_R   0.913404 0.957137 0.987788 0.000000
C229  C     C_R   0.979147 0.997759 0.033722 0.000000
C230  C     C_R   0.945143 0.014901 0.085664 0.000000
C231  C     C_R   0.032405 0.056044 0.126993 0.000000
C232  C     C_R   0.151230 0.078434 0.115798 0.000000
C233  C     C_R   0.184422 0.060153 0.063045 0.000000
C234  C     C_R   0.095232 0.020144 0.022851 0.000000
N78   N     N_R   0.109022 0.995135 0.969569 0.000000
H251  H     H_    0.681768 0.905763 0.832905 0.000000
H252  H     H_    0.820616 0.959973 0.861598 0.000000
H253  H     H_    0.839770 0.898011 0.803673 0.000000
H254  H     H_    0.781991 0.915457 0.911704 0.000000
H255  H     H_    0.031355 0.888240 0.882493 0.000000
H256  H     H_    0.008229 0.938674 0.869032 0.000000
H257  H     H_    0.854309 0.996919 0.094180 0.000000
H258  H     H_    0.008495 0.070591 0.168421 0.000000
H259  H     H_    0.218564 0.110182 0.148594 0.000000
H260  H     H_    0.276663 0.077032 0.053916 0.000000
C235  C     C_3   0.852111 0.050255 0.968772 0.000000
N79   N     N_3   0.767337 0.002407 0.961300 0.000000
C236  C     C_3   0.635565 0.000750 0.941664 0.000000
C237  C     C_R   0.539678 0.963959 0.952390 0.000000
N80   N     N_R   0.579849 0.931782 0.969523 0.000000
C238  C     C_R   0.465609 0.910602 0.980307 0.000000
C239  C     C_R   0.450123 0.875909 0.999709 0.000000
C240  C     C_R   0.323675 0.860193 0.010303 0.000000
C241  C     C_R   0.218597 0.880702 0.003080 0.000000
C242  C     C_R   0.238259 0.916538 0.984482 0.000000
C243  C     C_R   0.362462 0.929376 0.971161 0.000000
N81   N     N_R   0.404286 0.962668 0.951981 0.000000
H261  H     H_    0.955851 0.049393 0.978759 0.000000
H262  H     H_    0.845150 0.052765 0.931260 0.000000
H263  H     H_    0.819597 0.084811 0.002503 0.000000
H264  H     H_    0.758552 0.006227 0.999628 0.000000
H265  H     H_    0.610608 0.040630 0.963836 0.000000
H266  H     H_    0.631948 0.987150 0.897751 0.000000
H267  H     H_    0.533468 0.861364 0.006545 0.000000
H268  H     H_    0.307283 0.833593 0.026404 0.000000
H269  H     H_    0.120630 0.867943 0.011518 0.000000
H270  H     H_    0.158639 0.933383 0.980736 0.000000
C244  C     C_3   0.291980 0.435058 0.056696 0.000000
N82   N     N_3   0.301503 0.484337 0.106340 0.000000
C245  C     C_3   0.224508 0.475026 0.145081 0.000000
C246  C     C_R   0.078594 0.473436 0.137547 0.000000
N83   N     N_R   0.015895 0.511971 0.174911 0.000000
C247  C     C_R   0.889498 0.486265 0.168311 0.000000
C248  C     C_R   0.785720 0.503999 0.198938 0.000000
C249  C     C_R   0.669186 0.468224 0.189467 0.000000
C250  C     C_R   0.660287 0.415558 0.151264 0.000000
C251  C     C_R   0.765469 0.398810 0.120251 0.000000
C252  C     C_R   0.876351 0.435747 0.127906 0.000000
N84   N     N_R   0.991246 0.427200 0.104644 0.000000
H271  H     H_    0.323468 0.444641 0.024748 0.000000
H272  H     H_    0.357207 0.410811 0.061201 0.000000
H273  H     H_    0.187575 0.413871 0.046565 0.000000
H274  H     H_    0.259747 0.508510 0.096657 0.000000
H275  H     H_    0.238492 0.437094 0.141351 0.000000
H276  H     H_    0.262281 0.506792 0.186482 0.000000
H277  H     H_    0.794639 0.543689 0.230690 0.000000
H278  H     H_    0.586909 0.480896 0.213807 0.000000
H279  H     H_    0.572146 0.387361 0.146853 0.000000
H280  H     H_    0.764346 0.357597 0.094266 0.000000
C253  C     C_3   0.019954 0.836333 0.792674 0.000000
N85   N     N_3   0.013947 0.804521 0.734838 0.000000
C254  C     C_3   0.932247 0.826864 0.713665 0.000000
C255  C     C_R   0.957528 0.807974 0.656688 0.000000
N86   N     N_R   0.080862 0.818263 0.641128 0.000000
C256  C     C_R   0.071879 0.780817 0.589001 0.000000
C257  C     C_R   0.171796 0.769146 0.554790 0.000000
C258  C     C_R   0.143675 0.723824 0.505159 0.000000
C259  C     C_R   0.016258 0.693051 0.489947 0.000000
C260  C     C_R   0.914851 0.707640 0.523830 0.000000
C261  C     C_R   0.946239 0.751780 0.573599 0.000000
N87   N     N_R   0.869323 0.769600 0.615246 0.000000
H281  H     H_    0.085333 0.823318 0.812265 0.000000
H282  H     H_    0.063745 0.876918 0.803172 0.000000
H283  H     H_    0.918044 0.833786 0.806090 0.000000
H284  H     H_    0.963628 0.766677 0.724344 0.000000
H285  H     H_    0.826474 0.813184 0.717091 0.000000
H286  H     H_    0.959397 0.870419 0.735830 0.000000
H287  H     H_    0.269536 0.794004 0.567027 0.000000
H288  H     H_    0.221515 0.712536 0.478250 0.000000
H289  H     H_    0.995263 0.657252 0.451459 0.000000
H290  H     H_    0.816962 0.683418 0.511991 0.000000
C262  C     C_3   0.280614 0.650880 0.569555 0.000000
N88   N     N_3   0.370692 0.698256 0.608370 0.000000
C263  C     C_3   0.340207 0.741570 0.602653 0.000000
C264  C     C_R   0.431552 0.791104 0.641052 0.000000
N89   N     N_R   0.564729 0.793442 0.648007 0.000000
C265  C     C_R   0.604807 0.841036 0.691524 0.000000
C266  C     C_R   0.730367 0.870054 0.704451 0.000000
C267  C     C_R   0.751363 0.920540 0.747359 0.000000
C268  C     C_R   0.645033 0.944071 0.771221 0.000000
C269  C     C_R   0.517132 0.917246 0.750399 0.000000
C270  C     C_R   0.499315 0.864827 0.711854 0.000000
N90   N     N_R   0.390983 0.836682 0.677347 0.000000
H291  H     H_    0.318384 0.615647 0.563680 0.000000
H292  H     H_    0.179693 0.650662 0.584265 0.000000
H293  H     H_    0.274675 0.649906 0.530263 0.000000
H294  H     H_    0.467104 0.693891 0.596916 0.000000
H295  H     H_    0.355439 0.732891 0.560645 0.000000
H296  H     H_    0.236321 0.745458 0.612717 0.000000
H297  H     H_    0.804894 0.857233 0.676801 0.000000
H298  H     H_    0.850712 0.942411 0.760010 0.000000
H299  H     H_    0.662275 0.984948 0.802448 0.000000
H300  H     H_    0.436393 0.938310 0.762657 0.000000
C271  C     C_3   0.961640 0.727275 0.430771 0.000000
N91   N     N_3   0.923791 0.752061 0.401398 0.000000
C272  C     C_3   0.864043 0.796168 0.437026 0.000000
C273  C     C_R   0.748022 0.795430 0.406157 0.000000
N92   N     N_R   0.715715 0.838339 0.403931 0.000000
C274  C     C_R   0.585967 0.821531 0.388862 0.000000
C275  C     C_R   0.499743 0.850728 0.386661 0.000000
C276  C     C_R   0.367219 0.830965 0.382732 0.000000
C277  C     C_R   0.325649 0.779942 0.375015 0.000000
C278  C     C_R   0.416449 0.749448 0.370657 0.000000
C279  C     C_R   0.545866 0.771663 0.378845 0.000000
N93   N     N_R   0.646420 0.752356 0.386723 0.000000
H301  H     H_    0.016247 0.695882 0.404196 0.000000
H302  H     H_    0.028102 0.757289 0.466627 0.000000
H303  H     H_    0.871376 0.710068 0.442813 0.000000
H304  H     H_    0.849365 0.726092 0.371398 0.000000
H305  H     H_    0.828538 0.788671 0.469354 0.000000
H306  H     H_    0.932792 0.834334 0.456648 0.000000
H307  H     H_    0.532606 0.888364 0.389311 0.000000
H308  H     H_    0.301446 0.857183 0.385972 0.000000
H309  H     H_    0.223953 0.761873 0.372225 0.000000
H310  H     H_    0.387488 0.711493 0.366269 0.000000
C280  C     C_3   0.459098 0.772865 0.261764 0.000000
N94   N     N_3   0.543060 0.805555 0.244427 0.000000
C281  C     C_3   0.663295 0.824980 0.279672 0.000000
C282  C     C_R   0.729102 0.876808 0.289449 0.000000
N95   N     N_R   0.753289 0.891511 0.250109 0.000000
C283  C     C_R   0.820371 0.941919 0.280523 0.000000
C284  C     C_R   0.861849 0.980053 0.265829 0.000000
C285  C     C_R   0.940950 0.026997 0.303413 0.000000
C286  C     C_R   0.977812 0.035457 0.354310 0.000000
C287  C     C_R   0.929086 0.998378 0.369519 0.000000
C288  C     C_R   0.843434 0.953638 0.333115 0.000000
N96   N     N_R   0.781248 0.914200 0.340970 0.000000
H311  H     H_    0.380299 0.745376 0.230314 0.000000
H312  H     H_    0.519623 0.750368 0.271609 0.000000
H313  H     H_    0.413980 0.798824 0.297770 0.000000
H314  H     H_    0.497922 0.837639 0.253369 0.000000
H315  H     H_    0.636315 0.830638 0.318847 0.000000
H316  H     H_    0.732091 0.797496 0.266133 0.000000
H317  H     H_    0.836228 0.974501 0.226374 0.000000
H318  H     H_    0.976882 0.056943 0.292554 0.000000
H319  H     H_    0.042753 0.071701 0.382581 0.000000
H320  H     H_    0.955002 0.004610 0.409099 0.000000

loop_
_geom_bond_atom_site_label_1
_geom_bond_atom_site_label_2
_geom_bond_distance
_geom_bond_site_symmetry_2
_ccdc_geom_bond_type
Zn1   N2    1.994 .      S
Zn1   N5    2.048 .      S
Zn1   N9    2.030 .      S
Zn1   N56   1.983 .      S
Zn2   N12   2.004 .      S
Zn2   N15   2.076 .      S
Zn2   N60   2.035 .      S
Zn2   N63   2.027 .      S
Zn3   N11   2.034 .      S
Zn3   N18   2.038 1_556  S
Zn3   N77   2.054 .      S
Zn3   N80   2.011 .      S
Zn4   N3    2.018 .      S
Zn4   N20   1.979 1_455  S
Zn4   N24   1.994 .      S
Zn4   N83   2.020 .      S
Zn5   N21   2.052 .      S
Zn5   N23   2.081 .      S
Zn5   N26   2.048 .      S
Zn5   N93   2.058 .      S
Zn6   N6    1.995 .      S
Zn6   N8    1.959 .      S
Zn6   N17   2.051 .      S
Zn6   N95   2.140 .      S
Zn7   N14   2.002 .      S
Zn7   N27   2.014 .      S
Zn7   N87   2.001 .      S
Zn7   N89   1.987 .      S
Zn8   N29   1.961 .      S
Zn8   N32   1.969 .      S
Zn8   N36   1.995 .      S
Zn8   N39   1.905 .      S
Zn9   N30   1.976 .      S
Zn9   N41   2.070 .      S
Zn9   N44   2.019 1_556  S
Zn9   N47   1.948 .      S
Zn10  N33   1.978 1_655  S
Zn10  N35   2.047 .      S
Zn10  N50   2.048 1_655  S
Zn10  N54   1.987 1_655  S
Zn11  N51   1.958 .      S
Zn11  N57   1.964 .      S
Zn11  N59   2.025 1_455  S
Zn11  N62   2.039 .      S
Zn12  N38   1.967 .      S
Zn12  N66   1.951 1_545  S
Zn12  N69   1.990 1_545  S
Zn12  N71   2.072 1_545  S
Zn13  N42   2.063 1_565  S
Zn13  N75   2.047 .      S
Zn13  N78   2.015 .      S
Zn13  N81   2.053 .      S
Zn14  N45   2.003 1_655  S
Zn14  N48   2.001 .      S
Zn14  N53   1.988 1_654  S
Zn14  N84   2.032 .      S
Zn15  N65   2.085 .      S
Zn15  N74   2.015 .      S
Zn15  N86   1.998 .      S
Zn15  N90   1.983 .      S
Zn16  N68   2.005 .      S
Zn16  N72   2.062 .      S
Zn16  N92   2.083 .      S
Zn16  N96   2.122 .      S
C1    N1    1.450 .      S
C1    H1    1.109 .      S
C1    H2    1.108 .      S
C1    H3    1.109 .      S
N1    C2    1.449 .      S
N1    H4    1.044 .      S
C2    C3    1.480 1_655  S
C2    H5    1.101 .      S
C2    H6    1.107 1_655  S
C3    C2    1.480 1_455  S
C5    H7    1.039 .      S
C6    H8    1.081 .      S
C7    H9    1.025 .      S
C8    H10   1.081 .      S
H6    C2    1.107 1_455  S
C10   N4    1.446 .      S
C10   H11   1.107 .      S
C10   H12   1.104 .      S
C10   H13   1.101 .      S
N4    C11   1.457 .      S
N4    H14   1.036 .      S
C11   C12   1.484 .      S
C11   H15   1.094 .      S
C11   H16   1.106 .      S
C14   H17   1.058 .      S
C15   H18   1.081 .      S
C16   H19   1.081 .      S
C17   H20   1.058 1_455  S
H20   C17   1.058 1_655  S
C19   N7    1.455 .      S
C19   H21   1.106 .      S
C19   H22   1.106 .      S
C19   H23   1.102 .      S
N7    C20   1.461 .      S
N7    H24   1.043 .      S
C20   C21   1.485 .      S
C20   H25   1.108 .      S
C20   H26   1.107 .      S
C23   H27   1.083 .      S
C24   H28   1.075 .      S
C25   H29   1.067 .      S
C26   H30   1.072 .      S
C28   N10   1.450 .      S
C28   H31   1.108 .      S
C28   H32   1.107 .      S
C28   H33   1.107 .      S
N10   C29   1.448 .      S
N10   H34   1.043 .      S
C29   C30   1.486 .      S
C29   H35   1.109 .      S
C29   H36   1.110 .      S
C32   H37   1.073 .      S
C33   H38   1.076 .      S
C34   H39   1.081 .      S
C35   H40   1.081 .      S
C37   N13   1.447 .      S
C37   H41   1.096 .      S
C37   H42   1.094 .      S
C37   H43   1.093 .      S
N13   C38   1.447 .      S
N13   H44   1.039 .      S
C38   C39   1.466 .      S
C38   H45   1.104 .      S
C38   H46   1.101 .      S
C41   H47   1.079 .      S
C42   H48   1.081 .      S
C43   H49   1.081 .      S
C44   H50   1.065 .      S
C46   N16   1.454 .      S
C46   H51   1.104 1_655  S
C46   H52   1.109 .      S
C46   H53   1.102 .      S
N16   C47   1.452 .      S
N16   H54   1.040 .      S
C47   C48   1.472 .      S
C47   H55   1.104 1_554  S
C47   H56   1.097 .      S
C50   H57   1.082 .      S
C51   H58   1.081 .      S
C52   H59   1.081 .      S
C53   H60   1.081 .      S
N18   Zn3   2.038 1_554  S
H51   C46   1.104 1_455  S
H55   C47   1.104 1_556  S
C55   N19   1.452 .      S
C55   H61   1.103 .      S
C55   H62   1.107 .      S
C55   H63   1.107 .      S
N19   C56   1.447 .      S
N19   H64   1.035 .      S
C56   C57   1.483 .      S
C56   H65   1.107 .      S
C56   H66   1.109 .      S
N20   Zn4   1.979 1_655  S
C59   H67   1.081 1_655  S
C60   H68   1.081 1_655  S
C61   H69   1.081 .      S
C62   H70   1.062 .      S
H67   C59   1.081 1_455  S
H68   C60   1.081 1_455  S
C64   N22   1.451 .      S
C64   H71   1.106 .      S
C64   H72   1.109 .      S
C64   H73   1.108 .      S
N22   C65   1.453 .      S
N22   H74   1.043 .      S
C65   C66   1.489 .      S
C65   H75   1.106 .      S
C65   H76   1.101 .      S
C68   H77   1.055 .      S
C69   H78   1.079 .      S
C70   H79   1.081 .      S
C71   H80   1.080 .      S
C73   N25   1.451 .      S
C73   H81   1.104 .      S
C73   H82   1.099 .      S
C73   H83   1.105 .      S
N25   C74   1.451 .      S
N25   H84   1.043 .      S
C74   C75   1.474 .      S
C74   H85   1.107 .      S
C74   H86   1.109 .      S
C77   H87   1.081 .      S
C78   H88   1.081 .      S
C79   H89   1.081 .      S
C80   H90   1.081 .      S
C82   N28   1.451 .      S
C82   H91   1.109 .      S
C82   H92   1.108 .      S
C82   H93   1.106 .      S
N28   C83   1.460 .      S
N28   H94   1.041 .      S
C83   C84   1.484 .      S
C83   H95   1.108 .      S
C83   H96   1.104 .      S
C86   H97   1.082 .      S
C87   H98   1.081 1_455  S
C88   H99   1.081 1_455  S
C89   H100  1.074 .      S
H98   C87   1.081 1_655  S
H99   C88   1.081 1_655  S
C91   N31   1.451 1_655  S
C91   H101  1.103 .      S
C91   H102  1.109 .      S
C91   H103  1.109 .      S
N31   C91   1.451 1_455  S
N31   C92   1.449 .      S
N31   H104  1.042 .      S
C92   C93   1.471 .      S
C92   H105  1.106 1_455  S
C92   H106  1.073 .      S
C95   H107  1.071 .      S
C96   H108  1.076 .      S
C97   H109  1.078 .      S
C98   H110  1.062 .      S
N33   Zn10  1.978 1_455  S
H105  C92   1.106 1_655  S
C100  N34   1.441 .      S
C100  H111  1.107 .      S
C100  H112  1.107 .      S
C100  H113  1.104 .      S
N34   C101  1.447 .      S
N34   H114  1.038 .      S
C101  C102  1.485 .      S
C101  H115  1.107 .      S
C101  H116  1.107 .      S
C104  H117  1.068 .      S
C105  H118  1.081 .      S
C106  H119  1.081 .      S
C107  H120  1.078 .      S
C109  N37   1.452 .      S
C109  H121  1.109 .      S
C109  H122  1.109 .      S
C109  H123  1.107 .      S
N37   C110  1.449 .      S
N37   H124  1.043 .      S
C110  C111  1.481 .      S
C110  H125  1.106 .      S
C110  H126  1.080 .      S
C113  H127  1.081 .      S
C114  H128  1.081 .      S
C115  H129  1.081 .      S
C116  H130  1.081 .      S
C118  N40   1.463 .      S
C118  H131  1.106 .      S
C118  H132  1.108 .      S
C118  H133  1.107 .      S
N40   C119  1.442 .      S
N40   H134  1.032 .      S
C119  C120  1.439 .      S
C119  H135  1.104 .      S
C119  H136  1.097 .      S
C122  H137  1.081 .      S
C123  H138  1.081 .      S
C124  H139  1.081 .      S
C125  H140  1.081 .      S
N42   Zn13  2.063 1_545  S
C127  N43   1.445 .      S
C127  H141  1.103 .      S
C127  H142  1.109 .      S
C127  H143  1.109 .      S
N43   C128  1.446 .      S
N43   H144  1.044 .      S
C128  C129  1.477 .      S
C128  H145  1.095 .      S
C128  H146  1.099 .      S
N44   Zn9   2.019 1_554  S
C131  H147  1.077 .      S
C132  H148  1.081 .      S
C133  H149  1.081 .      S
C134  H150  1.081 .      S
N45   Zn14  2.003 1_455  S
C136  N46   1.456 .      S
C136  H151  1.109 .      S
C136  H152  1.108 1_556  S
C136  H153  1.105 .      S
N46   C137  1.450 1_556  S
N46   H154  1.042 .      S
C137  N46   1.450 1_554  S
C137  C138  1.486 .      S
C137  H155  1.107 .      S
C137  H156  1.108 .      S
C140  H157  1.071 .      S
C141  H158  1.081 .      S
C142  H159  1.047 .      S
C143  H160  1.067 1_655  S
H152  C136  1.108 1_554  S
H160  C143  1.067 1_455  S
C145  N49   1.442 .      S
C145  H161  1.098 .      S
C145  H162  1.107 .      S
C145  H163  1.104 .      S
N49   C146  1.447 .      S
N49   H164  1.044 .      S
C146  C147  1.469 1_655  S
C146  H165  1.105 .      S
C146  H166  1.098 .      S
C147  C146  1.469 1_455  S
N50   Zn10  2.048 1_455  S
C149  H167  1.070 .      S
C150  H168  1.081 .      S
C151  H169  1.081 .      S
C152  H170  1.081 .      S
C154  N52   1.447 .      S
C154  H171  1.104 1_655  S
C154  H172  1.108 .      S
C154  H173  1.103 .      S
N52   C155  1.447 .      S
N52   H174  1.040 .      S
C155  C156  1.484 .      S
C155  H175  1.106 .      S
C155  H176  1.102 .      S
N53   Zn14  1.988 1_456  S
C158  H177  1.054 .      S
C159  H178  1.081 .      S
C160  H179  1.073 .      S
C161  H180  1.061 .      S
N54   Zn10  1.987 1_455  S
H171  C154  1.104 1_455  S
C163  N55   1.458 .      S
C163  H181  1.106 1_556  S
C163  H182  1.099 1_556  S
C163  H183  1.107 .      S
N55   C164  1.460 .      S
N55   H184  1.042 .      S
C164  C165  1.466 1_655  S
C164  H185  1.108 .      S
C164  H186  1.070 .      S
C165  C164  1.466 1_455  S
C167  H187  1.072 .      S
C168  H188  1.078 1_556  S
C169  H189  1.078 .      S
C170  H190  1.081 .      S
H181  C163  1.106 1_554  S
H182  C163  1.099 1_554  S
H188  C168  1.078 1_554  S
C172  N58   1.449 1_455  S
C172  H191  1.108 .      S
C172  H192  1.102 .      S
C172  H193  1.109 .      S
N58   C172  1.449 1_655  S
N58   C173  1.439 .      S
N58   H194  1.044 .      S
C173  C174  1.477 .      S
C173  H195  1.092 .      S
C173  H196  1.105 1_655  S
N59   Zn11  2.025 1_655  S
C176  H197  1.072 .      S
C177  H198  1.081 .      S
C178  H199  1.081 .      S
C179  H200  1.081 .      S
H196  C173  1.105 1_455  S
C181  N61   1.447 .      S
C181  H201  1.107 .      S
C181  H202  1.093 .      S
C181  H203  1.109 .      S
N61   C182  1.455 .      S
N61   H204  1.044 .      S
C182  C183  1.498 .      S
C182  H205  1.104 .      S
C182  H206  1.108 .      S
C185  H207  1.073 .      S
C186  H208  1.076 .      S
C187  H209  1.077 .      S
C188  H210  1.074 .      S
C190  N64   1.442 .      S
C190  H211  1.106 1_455  S
C190  H212  1.108 .      S
C190  H213  1.097 .      S
N64   C191  1.444 .      S
N64   H214  1.040 .      S
C191  C192  1.502 .      S
C191  H215  1.109 .      S
C191  H216  1.108 .      S
C194  H217  1.045 .      S
C195  H218  1.081 .      S
C196  H219  1.081 1_565  S
C197  H220  1.080 .      S
N66   Zn12  1.951 1_565  S
H211  C190  1.106 1_655  S
H219  C196  1.081 1_545  S
C199  N67   1.451 .      S
C199  H221  1.109 .      S
C199  H222  1.107 .      S
C199  H223  1.104 1_655  S
N67   C200  1.452 .      S
N67   H224  1.040 .      S
C200  C201  1.489 1_645  S
C200  H225  1.103 1_655  S
C200  H226  1.109 .      S
C201  C200  1.489 1_465  S
C203  H227  1.080 1_455  S
C204  H228  1.043 .      S
C205  H229  1.078 .      S
C206  H230  1.078 .      S
N69   Zn12  1.990 1_565  S
H223  C199  1.104 1_455  S
H225  C200  1.103 1_455  S
H227  C203  1.080 1_655  S
C208  N70   1.449 .      S
C208  H231  1.106 .      S
C208  H232  1.103 .      S
C208  H233  1.108 .      S
N70   C209  1.437 .      S
N70   H234  1.039 .      S
C209  C210  1.486 .      S
C209  H235  1.106 .      S
C209  H236  1.090 .      S
N71   Zn12  2.072 1_565  S
C212  H237  1.060 .      S
C213  H238  1.081 .      S
C214  H239  1.081 .      S
C215  H240  1.065 .      S
C217  N73   1.457 .      S
C217  H241  1.103 .      S
C217  H242  1.105 .      S
C217  H243  1.101 .      S
N73   C218  1.462 .      S
N73   H244  1.042 .      S
C218  C219  1.480 .      S
C218  H245  1.108 .      S
C218  H246  1.106 .      S
C221  H247  1.067 .      S
C222  H248  1.081 1_455  S
C223  H249  1.081 .      S
C224  H250  1.083 .      S
H248  C222  1.081 1_655  S
C226  N76   1.450 .      S
C226  H251  1.106 .      S
C226  H252  1.109 .      S
C226  H253  1.104 .      S
N76   C227  1.444 .      S
N76   H254  1.042 .      S
C227  C228  1.464 .      S
C227  H255  1.095 1_655  S
C227  H256  1.088 1_655  S
C230  H257  1.075 1_545  S
C231  H258  1.081 .      S
C232  H259  1.081 .      S
C233  H260  1.080 .      S
H255  C227  1.095 1_455  S
H256  C227  1.088 1_455  S
H257  C230  1.075 1_565  S
C235  N79   1.448 .      S
C235  H261  1.109 .      S
C235  H262  1.109 .      S
C235  H263  1.109 1_556  S
N79   C236  1.448 .      S
N79   H264  1.044 .      S
C236  C237  1.481 1_545  S
C236  H265  1.109 .      S
C236  H266  1.109 1_545  S
C237  C236  1.481 1_565  S
C239  H267  1.077 1_556  S
C240  H268  1.078 .      S
C241  H269  1.076 .      S
C242  H270  1.055 .      S
H263  C235  1.109 1_554  S
H266  C236  1.109 1_565  S
H267  C239  1.077 1_554  S
C244  N82   1.442 .      S
C244  H271  1.106 .      S
C244  H272  1.109 .      S
C244  H273  1.104 .      S
N82   C245  1.453 .      S
N82   H274  1.033 .      S
C245  C246  1.499 .      S
C245  H275  1.109 .      S
C245  H276  1.109 .      S
C248  H277  1.066 .      S
C249  H278  1.081 .      S
C250  H279  1.081 .      S
C251  H280  1.073 .      S
C253  N85   1.439 .      S
C253  H281  1.100 .      S
C253  H282  1.097 .      S
C253  H283  1.109 1_455  S
N85   C254  1.444 1_455  S
N85   H284  1.044 1_455  S
C254  N85   1.444 1_655  S
C254  C255  1.471 .      S
C254  H285  1.109 .      S
C254  H286  1.108 .      S
C257  H287  1.082 .      S
C258  H288  1.076 .      S
C259  H289  1.080 1_455  S
C260  H290  1.076 .      S
H283  C253  1.109 1_655  S
H284  N85   1.044 1_655  S
H289  C259  1.080 1_655  S
C262  N88   1.453 .      S
C262  H291  1.109 .      S
C262  H292  1.109 .      S
C262  H293  1.106 .      S
N88   C263  1.451 .      S
N88   H294  1.044 .      S
C263  C264  1.488 .      S
C263  H295  1.108 .      S
C263  H296  1.107 .      S
C266  H297  1.066 .      S
C267  H298  1.067 .      S
C268  H299  1.081 .      S
C269  H300  1.072 .      S
C271  N91   1.444 .      S
C271  H301  1.109 1_655  S
C271  H302  1.104 1_655  S
C271  H303  1.109 .      S
N91   C272  1.440 .      S
N91   H304  1.037 .      S
C272  C273  1.475 .      S
C272  H305  1.091 .      S
C272  H306  1.099 .      S
C275  H307  1.073 .      S
C276  H308  1.081 .      S
C277  H309  1.070 .      S
C278  H310  1.056 .      S
H301  C271  1.109 1_455  S
H302  C271  1.104 1_455  S
C280  N94   1.445 .      S
C280  H311  1.094 .      S
C280  H312  1.109 .      S
C280  H313  1.093 .      S
N94   C281  1.440 .      S
N94   H314  1.044 .      S
C281  C282  1.456 .      S
C281  H315  1.083 .      S
C281  H316  1.090 .      S
C284  H317  1.080 .      S
C285  H318  1.081 .      S
C286  H319  1.081 1_655  S
C287  H320  1.077 1_565  S
H319  C286  1.081 1_455  S
H320  C287  1.077 1_545  S
C3    N2    1.377 .      A
C3    N3    1.381 .      A
N2    C4    1.322 .      A
C4    C5    1.348 .      A
C4    C9    1.340 .      A
C5    C6    1.350 .      A
C6    C7    1.367 .      A
C7    C8    1.387 .      A
C8    C9    1.356 .      A
C9    N3    1.336 .      A
C12   N5    1.373 1_655  A
C12   N6    1.375 .      A
N5    C12   1.373 1_455  A
N5    C13   1.361 .      A
C13   C14   1.388 .      A
C13   C18   1.347 1_455  A
C14   C15   1.386 .      A
C15   C16   1.382 .      A
C16   C17   1.375 .      A
C17   C18   1.351 1_455  A
C18   C13   1.347 1_655  A
C18   C17   1.351 1_655  A
C18   N6    1.330 .      A
C21   N8    1.364 .      A
C21   N9    1.379 .      A
N8    C22   1.326 .      A
C22   C23   1.358 .      A
C22   C27   1.354 .      A
C23   C24   1.376 .      A
C24   C25   1.379 .      A
C25   C26   1.386 .      A
C26   C27   1.377 .      A
C27   N9    1.353 .      A
C30   N11   1.377 .      A
C30   N12   1.377 .      A
N11   C31   1.341 .      A
C31   C32   1.358 .      A
C31   C36   1.352 .      A
C32   C33   1.392 1_655  A
C33   C32   1.392 1_455  A
C33   C34   1.389 .      A
C34   C35   1.380 1_455  A
C35   C34   1.380 1_655  A
C35   C36   1.371 .      A
C36   N12   1.337 .      A
C39   N14   1.369 .      A
C39   N15   1.376 .      A
N14   C40   1.337 .      A
C40   C41   1.371 .      A
C40   C45   1.365 .      A
C41   C42   1.381 .      A
C42   C43   1.388 .      A
C43   C44   1.388 .      A
C44   C45   1.373 .      A
C45   N15   1.358 .      A
C48   N17   1.382 .      A
C48   N18   1.367 .      A
N17   C49   1.346 .      A
C49   C50   1.373 .      A
C49   C54   1.367 .      A
C50   C51   1.387 1_565  A
C51   C50   1.387 1_545  A
C51   C52   1.393 .      A
C52   C53   1.386 1_545  A
C53   C52   1.386 1_565  A
C53   C54   1.372 .      A
C54   N18   1.346 .      A
C57   N20   1.368 .      A
C57   N21   1.378 .      A
N20   C58   1.337 .      A
C58   C59   1.372 .      A
C58   C63   1.358 .      A
C59   C60   1.382 .      A
C60   C61   1.389 .      A
C61   C62   1.386 .      A
C62   C63   1.370 .      A
C63   N21   1.353 .      A
C66   N23   1.380 .      A
C66   N24   1.379 .      A
N23   C67   1.351 .      A
C67   C68   1.361 .      A
C67   C72   1.350 .      A
C68   C69   1.385 .      A
C69   C70   1.389 .      A
C70   C71   1.389 .      A
C71   C72   1.366 .      A
C72   N24   1.330 .      A
C75   N26   1.374 .      A
C75   N27   1.370 .      A
N26   C76   1.348 .      A
C76   C77   1.372 .      A
C76   C81   1.366 .      A
C77   C78   1.387 .      A
C78   C79   1.394 .      A
C79   C80   1.386 .      A
C80   C81   1.372 .      A
C81   N27   1.344 .      A
C84   N29   1.364 .      A
C84   N30   1.369 .      A
N29   C85   1.341 .      A
C85   C86   1.372 .      A
C85   C90   1.343 .      A
C86   C87   1.387 .      A
C87   C88   1.393 .      A
C88   C89   1.388 .      A
C89   C90   1.359 .      A
C90   N30   1.342 .      A
C93   N32   1.369 .      A
C93   N33   1.358 .      A
N32   C94   1.339 .      A
C94   C95   1.372 .      A
C94   C99   1.354 .      A
C95   C96   1.377 .      A
C96   C97   1.385 .      A
C97   C98   1.379 .      A
C98   C99   1.371 .      A
C99   N33   1.350 .      A
C102  N35   1.382 .      A
C102  N36   1.368 .      A
N35   C103  1.349 .      A
C103  C104  1.368 .      A
C103  C108  1.361 .      A
C104  C105  1.385 .      A
C105  C106  1.390 .      A
C106  C107  1.384 .      A
C107  C108  1.373 .      A
C108  N36   1.342 .      A
C111  N38   1.366 .      A
C111  N39   1.352 .      A
N38   C112  1.351 .      A
C112  C113  1.374 .      A
C112  C117  1.354 .      A
C113  C114  1.389 .      A
C114  C115  1.392 .      A
C115  C116  1.384 .      A
C116  C117  1.370 .      A
C117  N39   1.338 .      A
C120  N41   1.370 .      A
C120  N42   1.372 .      A
N41   C121  1.348 1_556  A
C121  N41   1.348 1_554  A
C121  C122  1.373 .      A
C121  C126  1.371 .      A
C122  C123  1.387 .      A
C123  C124  1.393 .      A
C124  C125  1.386 .      A
C125  C126  1.371 .      A
C126  N42   1.346 1_554  A
N42   C126  1.346 1_556  A
C129  N44   1.373 1_556  A
C129  N45   1.371 1_556  A
N44   C129  1.373 1_554  A
N44   C130  1.346 .      A
C130  C131  1.371 .      A
C130  C135  1.363 .      A
C131  C132  1.386 .      A
C132  C133  1.393 .      A
C133  C134  1.386 .      A
C134  C135  1.372 .      A
C135  N45   1.344 .      A
N45   C129  1.371 1_554  A
C138  N47   1.369 1_554  A
C138  N48   1.374 .      A
N47   C138  1.369 1_556  A
N47   C139  1.331 .      A
C139  C140  1.370 .      A
C139  C144  1.351 .      A
C140  C141  1.370 .      A
C141  C142  1.379 .      A
C142  C143  1.374 .      A
C143  C144  1.362 .      A
C144  N48   1.345 1_556  A
N48   C144  1.345 1_554  A
C147  N50   1.376 .      A
C147  N51   1.358 .      A
N50   C148  1.360 .      A
C148  C149  1.377 .      A
C148  C153  1.361 .      A
C149  C150  1.387 .      A
C150  C151  1.390 .      A
C151  C152  1.382 .      A
C152  C153  1.371 .      A
C153  N51   1.335 .      A
C156  N53   1.362 1_655  A
C156  N54   1.378 1_655  A
N53   C156  1.362 1_455  A
N53   C157  1.336 .      A
C157  C158  1.349 1_556  A
C157  C162  1.347 .      A
C158  C157  1.349 1_554  A
C158  C159  1.381 .      A
C159  C160  1.387 1_554  A
C160  C159  1.387 1_556  A
C160  C161  1.379 .      A
C161  C162  1.365 .      A
C162  N54   1.342 .      A
N54   C156  1.378 1_455  A
C165  N56   1.366 1_556  A
C165  N57   1.364 .      A
N56   C165  1.366 1_554  A
N56   C166  1.340 1_554  A
C166  N56   1.340 1_556  A
C166  C167  1.368 1_556  A
C166  C171  1.351 .      A
C167  C166  1.368 1_554  A
C167  C168  1.385 1_554  A
C168  C167  1.385 1_556  A
C168  C169  1.391 .      A
C169  C170  1.383 .      A
C170  C171  1.365 .      A
C171  N57   1.336 .      A
C174  N59   1.373 .      A
C174  N60   1.376 .      A
N59   C175  1.351 .      A
C175  C176  1.377 .      A
C175  C180  1.360 .      A
C176  C177  1.385 .      A
C177  C178  1.389 .      A
C178  C179  1.382 .      A
C179  C180  1.378 .      A
C180  N60   1.346 .      A
C183  N62   1.384 .      A
C183  N63   1.377 .      A
N62   C184  1.346 .      A
C184  C185  1.370 .      A
C184  C189  1.360 .      A
C185  C186  1.382 .      A
C186  C187  1.387 .      A
C187  C188  1.381 .      A
C188  C189  1.371 .      A
C189  N63   1.342 .      A
C192  N65   1.393 .      A
C192  N66   1.365 .      A
N65   C193  1.367 .      A
C193  C194  1.373 .      A
C193  C198  1.348 .      A
C194  C195  1.387 .      A
C195  C196  1.383 .      A
C196  C197  1.377 1_565  A
C197  C196  1.377 1_545  A
C197  C198  1.378 1_545  A
C198  C197  1.378 1_565  A
C198  N66   1.326 .      A
C201  N68   1.377 1_455  A
C201  N69   1.379 .      A
N68   C201  1.377 1_655  A
N68   C202  1.329 1_655  A
C202  N68   1.329 1_455  A
C202  C203  1.347 .      A
C202  C207  1.345 .      A
C203  C204  1.371 .      A
C204  C205  1.396 .      A
C205  C206  1.373 .      A
C206  C207  1.356 .      A
C207  N69   1.324 .      A
C210  N71   1.388 .      A
C210  N72   1.375 .      A
N71   C211  1.348 1_565  A
C211  N71   1.348 1_545  A
C211  C212  1.367 .      A
C211  C216  1.356 .      A
C212  C213  1.383 .      A
C213  C214  1.387 .      A
C214  C215  1.382 .      A
C215  C216  1.367 .      A
C216  N72   1.343 1_545  A
N72   C216  1.343 1_565  A
C219  N74   1.374 .      A
C219  N75   1.375 .      A
N74   C220  1.334 .      A
C220  C221  1.360 .      A
C220  C225  1.350 .      A
C221  C222  1.383 1_565  A
C222  C221  1.383 1_545  A
C222  C223  1.391 1_455  A
C223  C222  1.391 1_655  A
C223  C224  1.389 1_655  A
C224  C223  1.389 1_455  A
C224  C225  1.370 1_545  A
C225  C224  1.370 1_565  A
C225  N75   1.350 .      A
C228  N77   1.375 .      A
C228  N78   1.369 1_655  A
N77   C229  1.349 1_556  A
C229  N77   1.349 1_554  A
C229  C230  1.371 1_565  A
C229  C234  1.366 1_665  A
C230  C229  1.371 1_545  A
C230  C231  1.386 1_655  A
C231  C230  1.386 1_455  A
C231  C232  1.392 .      A
C232  C233  1.385 .      A
C233  C234  1.371 .      A
C234  C229  1.366 1_445  A
C234  N78   1.343 1_544  A
N78   C228  1.369 1_455  A
N78   C234  1.343 1_566  A
C237  N80   1.379 .      A
C237  N81   1.378 .      A
N80   C238  1.334 .      A
C238  C239  1.370 .      A
C238  C243  1.354 .      A
C239  C240  1.379 1_556  A
C240  C239  1.379 1_554  A
C240  C241  1.383 .      A
C241  C242  1.384 1_554  A
C242  C241  1.384 1_556  A
C242  C243  1.366 .      A
C243  N81   1.351 .      A
C246  N83   1.376 .      A
C246  N84   1.379 1_455  A
N83   C247  1.348 1_455  A
C247  N83   1.348 1_655  A
C247  C248  1.372 .      A
C247  C252  1.355 .      A
C248  C249  1.383 .      A
C249  C250  1.387 .      A
C250  C251  1.383 .      A
C251  C252  1.371 .      A
C252  N84   1.342 .      A
N84   C246  1.379 1_655  A
C255  N86   1.366 1_655  A
C255  N87   1.366 .      A
N86   C255  1.366 1_455  A
N86   C256  1.343 .      A
C256  C257  1.371 .      A
C256  C261  1.361 1_455  A
C257  C258  1.382 .      A
C258  C259  1.393 .      A
C259  C260  1.383 1_455  A
C260  C259  1.383 1_655  A
C260  C261  1.372 .      A
C261  C256  1.361 1_655  A
C261  N87   1.346 .      A
C264  N89   1.363 .      A
C264  N90   1.372 .      A
N89   C265  1.342 .      A
C265  C266  1.360 .      A
C265  C270  1.357 .      A
C266  C267  1.375 .      A
C267  C268  1.381 .      A
C268  C269  1.378 .      A
C269  C270  1.376 .      A
C270  N90   1.341 .      A
C273  N92   1.395 .      A
C273  N93   1.374 .      A
N92   C274  1.331 .      A
C274  C275  1.357 .      A
C274  C279  1.347 .      A
C275  C276  1.364 .      A
C276  C277  1.404 .      A
C277  C278  1.365 .      A
C278  C279  1.341 .      A
C279  N93   1.328 .      A
C282  N95   1.390 .      A
C282  N96   1.377 .      A
N95   C283  1.362 .      A
C283  C284  1.386 .      A
C283  C288  1.374 .      A
C284  C285  1.385 1_565  A
C285  C284  1.385 1_545  A
C285  C286  1.388 .      A
C286  C287  1.382 1_545  A
C287  C286  1.382 1_565  A
C287  C288  1.373 .      A
C288  N96   1.347 .      A
